MODEL 1
REMARK VINA RESULT:      -7.3      0.000      0.000
REMARK  Name = 
REMARK  9 active torsions:
REMARK  status: ('A' for Active; 'I' for Inactive)
REMARK    1  A    between atoms: C_1  and  O_2
REMARK    2  A    between atoms: O_2  and  C_3
REMARK    3  A    between atoms: C_5  and  C_6
REMARK    4  A    between atoms: C_7  and  C_8
REMARK    5  A    between atoms: C_11  and  O_12
REMARK    6  A    between atoms: C_15  and  C_16
REMARK    7  A    between atoms: C_17  and  N_18
REMARK    8  A    between atoms: C_21  and  O_22
REMARK    9  A    between atoms: O_22  and  C_23
REMARK                            x       y       z     vdW  Elec       q    Type
REMARK                         _______ _______ _______ _____ _____    ______ ____
ROOT
ATOM      1  C   UNL     1       2.381   3.757  17.591  0.00  0.00    +0.000 A 
ATOM      2  C   UNL     1       2.184   5.056  18.065  0.00  0.00    +0.000 A 
ATOM      3  C   UNL     1       3.170   6.039  17.907  0.00  0.00    +0.000 A 
ATOM      4  C   UNL     1       4.388   5.703  17.277  0.00  0.00    +0.000 A 
ATOM      5  C   UNL     1       4.554   4.414  16.724  0.00  0.00    +0.000 A 
ATOM      6  C   UNL     1       3.553   3.450  16.900  0.00  0.00    +0.000 A 
ENDROOT
BRANCH   1   8
ATOM      7  C   UNL     1       0.819   2.899  19.171  0.00  0.00    +0.000 C 
ATOM      8  O   UNL     1       1.360   2.884  17.854  0.00  0.00    +0.000 OA
ENDBRANCH   1   8
BRANCH   3   9
ATOM      9  C   UNL     1       2.889   7.397  18.401  0.00  0.00    +0.000 C 
ATOM     10  C   UNL     1       1.936   8.153  17.831  0.00  0.00    +0.000 C 
BRANCH  10  11
ATOM     11  C   UNL     1       1.600   9.536  18.215  0.00  0.00    +0.000 A 
ATOM     12  C   UNL     1       2.498  10.563  17.883  0.00  0.00    +0.000 A 
ATOM     13  C   UNL     1       2.223  11.896  18.209  0.00  0.00    +0.000 A 
ATOM     14  C   UNL     1       1.037  12.208  18.860  0.00  0.00    +0.000 A 
ATOM     15  C   UNL     1       0.124  11.210  19.181  0.00  0.00    +0.000 A 
ATOM     16  C   UNL     1       0.402   9.879  18.855  0.00  0.00    +0.000 A 
BRANCH  14  17
ATOM     17  O   UNL     1       0.724  13.490  19.197  0.00  0.00    +0.000 OA
ATOM     18  H   UNL     1       0.668  14.021  18.385  0.00  0.00    +0.000 HD
ENDBRANCH  14  17
ENDBRANCH  10  11
ENDBRANCH   3   9
BRANCH   4  19
ATOM     19  C   UNL     1       5.523   6.643  17.296  0.00  0.00    +0.000 C 
ATOM     20  C   UNL     1       6.634   6.454  18.004  0.00  0.00    +0.000 C 
BRANCH  20  21
ATOM     21  N   UNL     1       7.690   7.440  17.938  0.00  0.00    +0.000 N 
ATOM     22  O   UNL     1       7.660   8.299  17.049  0.00  0.00    +0.000 OA
ATOM     23  O   UNL     1       8.576   7.338  18.803  0.00  0.00    +0.000 OA
ENDBRANCH  20  21
ENDBRANCH   4  19
BRANCH   5  24
ATOM     24  O   UNL     1       5.726   4.187  16.041  0.00  0.00    +0.000 OA
ATOM     25  C   UNL     1       5.669   4.193  14.617  0.00  0.00    +0.000 C 
ENDBRANCH   5  24
TORSDOF 7
ENDMDL
MODEL 2
REMARK VINA RESULT:      -7.3      1.250      1.565
REMARK  Name = 
REMARK  9 active torsions:
REMARK  status: ('A' for Active; 'I' for Inactive)
REMARK    1  A    between atoms: C_1  and  O_2
REMARK    2  A    between atoms: O_2  and  C_3
REMARK    3  A    between atoms: C_5  and  C_6
REMARK    4  A    between atoms: C_7  and  C_8
REMARK    5  A    between atoms: C_11  and  O_12
REMARK    6  A    between atoms: C_15  and  C_16
REMARK    7  A    between atoms: C_17  and  N_18
REMARK    8  A    between atoms: C_21  and  O_22
REMARK    9  A    between atoms: O_22  and  C_23
REMARK                            x       y       z     vdW  Elec       q    Type
REMARK                         _______ _______ _______ _____ _____    ______ ____
ROOT
ATOM      1  C   UNL     1       2.591   3.158  17.561  0.00  0.00    +0.000 A 
ATOM      2  C   UNL     1       2.248   4.450  17.966  0.00  0.00    +0.000 A 
ATOM      3  C   UNL     1       3.140   5.519  17.801  0.00  0.00    +0.000 A 
ATOM      4  C   UNL     1       4.412   5.279  17.238  0.00  0.00    +0.000 A 
ATOM      5  C   UNL     1       4.727   3.990  16.754  0.00  0.00    +0.000 A 
ATOM      6  C   UNL     1       3.818   2.939  16.934  0.00  0.00    +0.000 A 
ENDROOT
BRANCH   1   8
ATOM      7  C   UNL     1       0.813   2.408  18.957  0.00  0.00    +0.000 C 
ATOM      8  O   UNL     1       1.650   2.201  17.824  0.00  0.00    +0.000 OA
ENDBRANCH   1   8
BRANCH   3   9
ATOM      9  C   UNL     1       2.705   6.862  18.219  0.00  0.00    +0.000 C 
ATOM     10  C   UNL     1       2.153   7.062  19.427  0.00  0.00    +0.000 C 
BRANCH  10  11
ATOM     11  C   UNL     1       1.645   8.351  19.930  0.00  0.00    +0.000 A 
ATOM     12  C   UNL     1       1.511   9.419  19.028  0.00  0.00    +0.000 A 
ATOM     13  C   UNL     1       1.019  10.661  19.447  0.00  0.00    +0.000 A 
ATOM     14  C   UNL     1       0.646  10.834  20.774  0.00  0.00    +0.000 A 
ATOM     15  C   UNL     1       0.752   9.785  21.680  0.00  0.00    +0.000 A 
ATOM     16  C   UNL     1       1.244   8.546  21.258  0.00  0.00    +0.000 A 
BRANCH  14  17
ATOM     17  O   UNL     1       0.161  12.022  21.229  0.00  0.00    +0.000 OA
ATOM     18  H   UNL     1      -0.002  12.604  20.469  0.00  0.00    +0.000 HD
ENDBRANCH  14  17
ENDBRANCH  10  11
ENDBRANCH   3   9
BRANCH   4  19
ATOM     19  C   UNL     1       5.447   6.327  17.258  0.00  0.00    +0.000 C 
ATOM     20  C   UNL     1       6.566   6.254  17.976  0.00  0.00    +0.000 C 
BRANCH  20  21
ATOM     21  N   UNL     1       7.519   7.339  17.912  0.00  0.00    +0.000 N 
ATOM     22  O   UNL     1       8.418   7.405  18.759  0.00  0.00    +0.000 OA
ATOM     23  O   UNL     1       7.349   8.150  16.986  0.00  0.00    +0.000 OA
ENDBRANCH  20  21
ENDBRANCH   4  19
BRANCH   5  24
ATOM     24  O   UNL     1       5.944   3.852  16.130  0.00  0.00    +0.000 OA
ATOM     25  C   UNL     1       5.970   3.944  14.708  0.00  0.00    +0.000 C 
ENDBRANCH   5  24
TORSDOF 7
ENDMDL
MODEL 3
REMARK VINA RESULT:      -7.2      0.741      1.149
REMARK  Name = 
REMARK  9 active torsions:
REMARK  status: ('A' for Active; 'I' for Inactive)
REMARK    1  A    between atoms: C_1  and  O_2
REMARK    2  A    between atoms: O_2  and  C_3
REMARK    3  A    between atoms: C_5  and  C_6
REMARK    4  A    between atoms: C_7  and  C_8
REMARK    5  A    between atoms: C_11  and  O_12
REMARK    6  A    between atoms: C_15  and  C_16
REMARK    7  A    between atoms: C_17  and  N_18
REMARK    8  A    between atoms: C_21  and  O_22
REMARK    9  A    between atoms: O_22  and  C_23
REMARK                            x       y       z     vdW  Elec       q    Type
REMARK                         _______ _______ _______ _____ _____    ______ ____
ROOT
ATOM      1  C   UNL     1       2.390   3.672  17.577  0.00  0.00    +0.000 A 
ATOM      2  C   UNL     1       2.220   5.014  17.926  0.00  0.00    +0.000 A 
ATOM      3  C   UNL     1       3.247   5.947  17.726  0.00  0.00    +0.000 A 
ATOM      4  C   UNL     1       4.478   5.517  17.184  0.00  0.00    +0.000 A 
ATOM      5  C   UNL     1       4.620   4.179  16.756  0.00  0.00    +0.000 A 
ATOM      6  C   UNL     1       3.579   3.266  16.971  0.00  0.00    +0.000 A 
ENDROOT
BRANCH   1   8
ATOM      7  C   UNL     1       1.118   2.538  19.242  0.00  0.00    +0.000 C 
ATOM      8  O   UNL     1       1.328   2.860  17.870  0.00  0.00    +0.000 OA
ENDBRANCH   1   8
BRANCH   3   9
ATOM      9  C   UNL     1       2.993   7.352  18.084  0.00  0.00    +0.000 C 
ATOM     10  C   UNL     1       1.876   7.704  18.742  0.00  0.00    +0.000 C 
BRANCH  10  11
ATOM     11  C   UNL     1       1.502   9.081  19.113  0.00  0.00    +0.000 A 
ATOM     12  C   UNL     1       0.926   9.304  20.374  0.00  0.00    +0.000 A 
ATOM     13  C   UNL     1       0.566  10.593  20.785  0.00  0.00    +0.000 A 
ATOM     14  C   UNL     1       0.794  11.668  19.936  0.00  0.00    +0.000 A 
ATOM     15  C   UNL     1       1.380  11.473  18.691  0.00  0.00    +0.000 A 
ATOM     16  C   UNL     1       1.738  10.184  18.283  0.00  0.00    +0.000 A 
BRANCH  14  17
ATOM     17  O   UNL     1       0.462  12.940  20.291  0.00  0.00    +0.000 OA
ATOM     18  H   UNL     1       0.874  13.142  21.147  0.00  0.00    +0.000 HD
ENDBRANCH  14  17
ENDBRANCH  10  11
ENDBRANCH   3   9
BRANCH   4  19
ATOM     19  C   UNL     1       5.643   6.418  17.171  0.00  0.00    +0.000 C 
ATOM     20  C   UNL     1       6.649   6.347  18.040  0.00  0.00    +0.000 C 
BRANCH  20  21
ATOM     21  N   UNL     1       7.749   7.278  17.926  0.00  0.00    +0.000 N 
ATOM     22  O   UNL     1       7.858   7.961  16.900  0.00  0.00    +0.000 OA
ATOM     23  O   UNL     1       8.526   7.314  18.894  0.00  0.00    +0.000 OA
ENDBRANCH  20  21
ENDBRANCH   4  19
BRANCH   5  24
ATOM     24  O   UNL     1       5.810   3.854  16.149  0.00  0.00    +0.000 OA
ATOM     25  C   UNL     1       5.864   3.920  14.727  0.00  0.00    +0.000 C 
ENDBRANCH   5  24
TORSDOF 7
ENDMDL
MODEL 4
REMARK VINA RESULT:      -7.2      4.743      6.078
REMARK  Name = 
REMARK  9 active torsions:
REMARK  status: ('A' for Active; 'I' for Inactive)
REMARK    1  A    between atoms: C_1  and  O_2
REMARK    2  A    between atoms: O_2  and  C_3
REMARK    3  A    between atoms: C_5  and  C_6
REMARK    4  A    between atoms: C_7  and  C_8
REMARK    5  A    between atoms: C_11  and  O_12
REMARK    6  A    between atoms: C_15  and  C_16
REMARK    7  A    between atoms: C_17  and  N_18
REMARK    8  A    between atoms: C_21  and  O_22
REMARK    9  A    between atoms: O_22  and  C_23
REMARK                            x       y       z     vdW  Elec       q    Type
REMARK                         _______ _______ _______ _____ _____    ______ ____
ROOT
ATOM      1  C   UNL     1       5.744   3.480  12.912  0.00  0.00    +0.000 A 
ATOM      2  C   UNL     1       4.941   3.509  14.054  0.00  0.00    +0.000 A 
ATOM      3  C   UNL     1       5.296   4.283  15.167  0.00  0.00    +0.000 A 
ATOM      4  C   UNL     1       6.496   5.026  15.139  0.00  0.00    +0.000 A 
ATOM      5  C   UNL     1       7.265   5.063  13.955  0.00  0.00    +0.000 A 
ATOM      6  C   UNL     1       6.888   4.277  12.858  0.00  0.00    +0.000 A 
ENDROOT
BRANCH   1   8
ATOM      7  C   UNL     1       4.174   3.072  11.167  0.00  0.00    +0.000 C 
ATOM      8  O   UNL     1       5.308   2.647  11.918  0.00  0.00    +0.000 OA
ENDBRANCH   1   8
BRANCH   3   9
ATOM      9  C   UNL     1       4.390   4.295  16.327  0.00  0.00    +0.000 C 
ATOM     10  C   UNL     1       4.289   3.225  17.133  0.00  0.00    +0.000 C 
BRANCH  10  11
ATOM     11  C   UNL     1       3.386   3.112  18.293  0.00  0.00    +0.000 A 
ATOM     12  C   UNL     1       2.001   3.157  18.073  0.00  0.00    +0.000 A 
ATOM     13  C   UNL     1       1.097   3.039  19.135  0.00  0.00    +0.000 A 
ATOM     14  C   UNL     1       1.580   2.861  20.425  0.00  0.00    +0.000 A 
ATOM     15  C   UNL     1       2.948   2.794  20.664  0.00  0.00    +0.000 A 
ATOM     16  C   UNL     1       3.848   2.913  19.601  0.00  0.00    +0.000 A 
BRANCH  14  17
ATOM     17  O   UNL     1       0.740   2.740  21.491  0.00  0.00    +0.000 OA
ATOM     18  H   UNL     1       1.272   2.678  22.301  0.00  0.00    +0.000 HD
ENDBRANCH  14  17
ENDBRANCH  10  11
ENDBRANCH   3   9
BRANCH   4  19
ATOM     19  C   UNL     1       7.007   5.665  16.364  0.00  0.00    +0.000 C 
ATOM     20  C   UNL     1       7.442   4.993  17.429  0.00  0.00    +0.000 C 
BRANCH  20  21
ATOM     21  N   UNL     1       7.932   5.725  18.575  0.00  0.00    +0.000 N 
ATOM     22  O   UNL     1       8.082   6.950  18.490  0.00  0.00    +0.000 OA
ATOM     23  O   UNL     1       8.180   5.043  19.582  0.00  0.00    +0.000 OA
ENDBRANCH  20  21
ENDBRANCH   4  19
BRANCH   5  24
ATOM     24  O   UNL     1       8.368   5.884  13.967  0.00  0.00    +0.000 OA
ATOM     25  C   UNL     1       9.064   6.069  12.739  0.00  0.00    +0.000 C 
ENDBRANCH   5  24
TORSDOF 7
ENDMDL
MODEL 5
REMARK VINA RESULT:      -7.1      1.541      1.970
REMARK  Name = 
REMARK  9 active torsions:
REMARK  status: ('A' for Active; 'I' for Inactive)
REMARK    1  A    between atoms: C_1  and  O_2
REMARK    2  A    between atoms: O_2  and  C_3
REMARK    3  A    between atoms: C_5  and  C_6
REMARK    4  A    between atoms: C_7  and  C_8
REMARK    5  A    between atoms: C_11  and  O_12
REMARK    6  A    between atoms: C_15  and  C_16
REMARK    7  A    between atoms: C_17  and  N_18
REMARK    8  A    between atoms: C_21  and  O_22
REMARK    9  A    between atoms: O_22  and  C_23
REMARK                            x       y       z     vdW  Elec       q    Type
REMARK                         _______ _______ _______ _____ _____    ______ ____
ROOT
ATOM      1  C   UNL     1       2.863   3.103  18.179  0.00  0.00    +0.000 A 
ATOM      2  C   UNL     1       2.537   4.390  18.614  0.00  0.00    +0.000 A 
ATOM      3  C   UNL     1       3.374   5.480  18.337  0.00  0.00    +0.000 A 
ATOM      4  C   UNL     1       4.575   5.267  17.626  0.00  0.00    +0.000 A 
ATOM      5  C   UNL     1       4.863   3.982  17.115  0.00  0.00    +0.000 A 
ATOM      6  C   UNL     1       4.011   2.910  17.410  0.00  0.00    +0.000 A 
ENDROOT
BRANCH   1   8
ATOM      7  C   UNL     1       0.634   2.516  18.780  0.00  0.00    +0.000 C 
ATOM      8  O   UNL     1       1.986   2.124  18.559  0.00  0.00    +0.000 OA
ENDBRANCH   1   8
BRANCH   3   9
ATOM      9  C   UNL     1       2.957   6.815  18.796  0.00  0.00    +0.000 C 
ATOM     10  C   UNL     1       2.055   6.953  19.781  0.00  0.00    +0.000 C 
BRANCH  10  11
ATOM     11  C   UNL     1       1.536   8.236  20.289  0.00  0.00    +0.000 A 
ATOM     12  C   UNL     1       1.360   8.390  21.673  0.00  0.00    +0.000 A 
ATOM     13  C   UNL     1       0.886   9.591  22.212  0.00  0.00    +0.000 A 
ATOM     14  C   UNL     1       0.597  10.652  21.364  0.00  0.00    +0.000 A 
ATOM     15  C   UNL     1       0.781  10.529  19.992  0.00  0.00    +0.000 A 
ATOM     16  C   UNL     1       1.255   9.327  19.456  0.00  0.00    +0.000 A 
BRANCH  14  17
ATOM     17  O   UNL     1       0.134  11.841  21.841  0.00  0.00    +0.000 OA
ATOM     18  H   UNL     1      -0.232  12.352  21.102  0.00  0.00    +0.000 HD
ENDBRANCH  14  17
ENDBRANCH  10  11
ENDBRANCH   3   9
BRANCH   4  19
ATOM     19  C   UNL     1       5.577   6.341  17.515  0.00  0.00    +0.000 C 
ATOM     20  C   UNL     1       6.782   6.296  18.078  0.00  0.00    +0.000 C 
BRANCH  20  21
ATOM     21  N   UNL     1       7.691   7.405  17.894  0.00  0.00    +0.000 N 
ATOM     22  O   UNL     1       8.512   7.667  18.782  0.00  0.00    +0.000 OA
ATOM     23  O   UNL     1       7.566   8.032  16.830  0.00  0.00    +0.000 OA
ENDBRANCH  20  21
ENDBRANCH   4  19
BRANCH   5  24
ATOM     24  O   UNL     1       6.000   3.869  16.350  0.00  0.00    +0.000 OA
ATOM     25  C   UNL     1       5.847   3.901  14.934  0.00  0.00    +0.000 C 
ENDBRANCH   5  24
TORSDOF 7
ENDMDL
MODEL 6
REMARK VINA RESULT:      -7.0      4.755      6.103
REMARK  Name = 
REMARK  9 active torsions:
REMARK  status: ('A' for Active; 'I' for Inactive)
REMARK    1  A    between atoms: C_1  and  O_2
REMARK    2  A    between atoms: O_2  and  C_3
REMARK    3  A    between atoms: C_5  and  C_6
REMARK    4  A    between atoms: C_7  and  C_8
REMARK    5  A    between atoms: C_11  and  O_12
REMARK    6  A    between atoms: C_15  and  C_16
REMARK    7  A    between atoms: C_17  and  N_18
REMARK    8  A    between atoms: C_21  and  O_22
REMARK    9  A    between atoms: O_22  and  C_23
REMARK                            x       y       z     vdW  Elec       q    Type
REMARK                         _______ _______ _______ _____ _____    ______ ____
ROOT
ATOM      1  C   UNL     1       5.751   3.434  12.865  0.00  0.00    +0.000 A 
ATOM      2  C   UNL     1       4.921   3.461  13.989  0.00  0.00    +0.000 A 
ATOM      3  C   UNL     1       5.248   4.237  15.109  0.00  0.00    +0.000 A 
ATOM      4  C   UNL     1       6.445   4.986  15.108  0.00  0.00    +0.000 A 
ATOM      5  C   UNL     1       7.241   5.024  13.942  0.00  0.00    +0.000 A 
ATOM      6  C   UNL     1       6.893   4.236  12.837  0.00  0.00    +0.000 A 
ENDROOT
BRANCH   1   8
ATOM      7  C   UNL     1       6.307   1.693  11.338  0.00  0.00    +0.000 C 
ATOM      8  O   UNL     1       5.341   2.599  11.863  0.00  0.00    +0.000 OA
ENDBRANCH   1   8
BRANCH   3   9
ATOM      9  C   UNL     1       4.315   4.247  16.248  0.00  0.00    +0.000 C 
ATOM     10  C   UNL     1       4.235   3.196  17.081  0.00  0.00    +0.000 C 
BRANCH  10  11
ATOM     11  C   UNL     1       3.311   3.081  18.223  0.00  0.00    +0.000 A 
ATOM     12  C   UNL     1       3.849   2.944  19.513  0.00  0.00    +0.000 A 
ATOM     13  C   UNL     1       3.019   2.847  20.635  0.00  0.00    +0.000 A 
ATOM     14  C   UNL     1       1.641   2.900  20.471  0.00  0.00    +0.000 A 
ATOM     15  C   UNL     1       1.086   3.055  19.206  0.00  0.00    +0.000 A 
ATOM     16  C   UNL     1       1.918   3.151  18.086  0.00  0.00    +0.000 A 
BRANCH  14  17
ATOM     17  O   UNL     1       0.793   2.810  21.533  0.00  0.00    +0.000 OA
ATOM     18  H   UNL     1       0.027   3.385  21.369  0.00  0.00    +0.000 HD
ENDBRANCH  14  17
ENDBRANCH  10  11
ENDBRANCH   3   9
BRANCH   4  19
ATOM     19  C   UNL     1       6.925   5.628  16.343  0.00  0.00    +0.000 C 
ATOM     20  C   UNL     1       7.446   4.964  17.374  0.00  0.00    +0.000 C 
BRANCH  20  21
ATOM     21  N   UNL     1       7.895   5.700  18.534  0.00  0.00    +0.000 N 
ATOM     22  O   UNL     1       8.082   6.919  18.442  0.00  0.00    +0.000 OA
ATOM     23  O   UNL     1       8.072   5.026  19.563  0.00  0.00    +0.000 OA
ENDBRANCH  20  21
ENDBRANCH   4  19
BRANCH   5  24
ATOM     24  O   UNL     1       8.340   5.850  13.978  0.00  0.00    +0.000 OA
ATOM     25  C   UNL     1       9.025   6.088  12.752  0.00  0.00    +0.000 C 
ENDBRANCH   5  24
TORSDOF 7
ENDMDL
MODEL 7
REMARK VINA RESULT:      -6.9      4.146      5.956
REMARK  Name = 
REMARK  9 active torsions:
REMARK  status: ('A' for Active; 'I' for Inactive)
REMARK    1  A    between atoms: C_1  and  O_2
REMARK    2  A    between atoms: O_2  and  C_3
REMARK    3  A    between atoms: C_5  and  C_6
REMARK    4  A    between atoms: C_7  and  C_8
REMARK    5  A    between atoms: C_11  and  O_12
REMARK    6  A    between atoms: C_15  and  C_16
REMARK    7  A    between atoms: C_17  and  N_18
REMARK    8  A    between atoms: C_21  and  O_22
REMARK    9  A    between atoms: O_22  and  C_23
REMARK                            x       y       z     vdW  Elec       q    Type
REMARK                         _______ _______ _______ _____ _____    ______ ____
ROOT
ATOM      1  C   UNL     1       5.702   3.505  12.740  0.00  0.00    +0.000 A 
ATOM      2  C   UNL     1       5.086   3.202  13.956  0.00  0.00    +0.000 A 
ATOM      3  C   UNL     1       5.577   3.720  15.163  0.00  0.00    +0.000 A 
ATOM      4  C   UNL     1       6.725   4.542  15.147  0.00  0.00    +0.000 A 
ATOM      5  C   UNL     1       7.297   4.915  13.911  0.00  0.00    +0.000 A 
ATOM      6  C   UNL     1       6.788   4.380  12.720  0.00  0.00    +0.000 A 
ENDROOT
BRANCH   1   8
ATOM      7  C   UNL     1       3.855   3.328  11.245  0.00  0.00    +0.000 C 
ATOM      8  O   UNL     1       5.152   2.895  11.645  0.00  0.00    +0.000 OA
ENDBRANCH   1   8
BRANCH   3   9
ATOM      9  C   UNL     1       4.864   3.389  16.407  0.00  0.00    +0.000 C 
ATOM     10  C   UNL     1       3.638   3.881  16.650  0.00  0.00    +0.000 C 
BRANCH  10  11
ATOM     11  C   UNL     1       2.853   3.650  17.876  0.00  0.00    +0.000 A 
ATOM     12  C   UNL     1       2.492   2.334  18.205  0.00  0.00    +0.000 A 
ATOM     13  C   UNL     1       1.761   2.054  19.365  0.00  0.00    +0.000 A 
ATOM     14  C   UNL     1       1.398   3.095  20.210  0.00  0.00    +0.000 A 
ATOM     15  C   UNL     1       1.761   4.404  19.914  0.00  0.00    +0.000 A 
ATOM     16  C   UNL     1       2.491   4.680  18.754  0.00  0.00    +0.000 A 
BRANCH  14  17
ATOM     17  O   UNL     1       0.688   2.873  21.351  0.00  0.00    +0.000 OA
ATOM     18  H   UNL     1       0.266   2.000  21.290  0.00  0.00    +0.000 HD
ENDBRANCH  14  17
ENDBRANCH  10  11
ENDBRANCH   3   9
BRANCH   4  19
ATOM     19  C   UNL     1       7.393   4.916  16.405  0.00  0.00    +0.000 C 
ATOM     20  C   UNL     1       7.071   5.985  17.130  0.00  0.00    +0.000 C 
BRANCH  20  21
ATOM     21  N   UNL     1       7.789   6.250  18.357  0.00  0.00    +0.000 N 
ATOM     22  O   UNL     1       7.940   5.337  19.178  0.00  0.00    +0.000 OA
ATOM     23  O   UNL     1       8.204   7.412  18.497  0.00  0.00    +0.000 OA
ENDBRANCH  20  21
ENDBRANCH   4  19
BRANCH   5  24
ATOM     24  O   UNL     1       8.352   5.796  13.966  0.00  0.00    +0.000 OA
ATOM     25  C   UNL     1       9.026   6.092  12.746  0.00  0.00    +0.000 C 
ENDBRANCH   5  24
TORSDOF 7
ENDMDL
MODEL 8
REMARK VINA RESULT:      -6.7      2.790      7.627
REMARK  Name = 
REMARK  9 active torsions:
REMARK  status: ('A' for Active; 'I' for Inactive)
REMARK    1  A    between atoms: C_1  and  O_2
REMARK    2  A    between atoms: O_2  and  C_3
REMARK    3  A    between atoms: C_5  and  C_6
REMARK    4  A    between atoms: C_7  and  C_8
REMARK    5  A    between atoms: C_11  and  O_12
REMARK    6  A    between atoms: C_15  and  C_16
REMARK    7  A    between atoms: C_17  and  N_18
REMARK    8  A    between atoms: C_21  and  O_22
REMARK    9  A    between atoms: O_22  and  C_23
REMARK                            x       y       z     vdW  Elec       q    Type
REMARK                         _______ _______ _______ _____ _____    ______ ____
ROOT
ATOM      1  C   UNL     1       1.229  10.633  19.160  0.00  0.00    +0.000 A 
ATOM      2  C   UNL     1       1.788   9.655  18.333  0.00  0.00    +0.000 A 
ATOM      3  C   UNL     1       1.917   8.329  18.768  0.00  0.00    +0.000 A 
ATOM      4  C   UNL     1       1.496   7.984  20.071  0.00  0.00    +0.000 A 
ATOM      5  C   UNL     1       0.856   8.952  20.875  0.00  0.00    +0.000 A 
ATOM      6  C   UNL     1       0.743  10.271  20.416  0.00  0.00    +0.000 A 
ENDROOT
BRANCH   1   8
ATOM      7  C   UNL     1       1.556  12.968  19.500  0.00  0.00    +0.000 C 
ATOM      8  O   UNL     1       1.207  11.894  18.631  0.00  0.00    +0.000 OA
ENDBRANCH   1   8
BRANCH   3   9
ATOM      9  C   UNL     1       2.484   7.340  17.837  0.00  0.00    +0.000 C 
ATOM     10  C   UNL     1       3.788   7.020  17.883  0.00  0.00    +0.000 C 
BRANCH  10  11
ATOM     11  C   UNL     1       4.468   6.079  16.975  0.00  0.00    +0.000 A 
ATOM     12  C   UNL     1       4.393   4.704  17.252  0.00  0.00    +0.000 A 
ATOM     13  C   UNL     1       5.006   3.765  16.416  0.00  0.00    +0.000 A 
ATOM     14  C   UNL     1       5.689   4.199  15.287  0.00  0.00    +0.000 A 
ATOM     15  C   UNL     1       5.760   5.553  14.983  0.00  0.00    +0.000 A 
ATOM     16  C   UNL     1       5.147   6.490  15.821  0.00  0.00    +0.000 A 
BRANCH  14  17
ATOM     17  O   UNL     1       6.301   3.323  14.443  0.00  0.00    +0.000 OA
ATOM     18  H   UNL     1       5.879   2.454  14.536  0.00  0.00    +0.000 HD
ENDBRANCH  14  17
ENDBRANCH  10  11
ENDBRANCH   3   9
BRANCH   4  19
ATOM     19  C   UNL     1       1.821   6.663  20.635  0.00  0.00    +0.000 C 
ATOM     20  C   UNL     1       1.159   5.545  20.343  0.00  0.00    +0.000 C 
BRANCH  20  21
ATOM     21  N   UNL     1       1.573   4.300  20.950  0.00  0.00    +0.000 N 
ATOM     22  O   UNL     1       0.937   3.267  20.704  0.00  0.00    +0.000 OA
ATOM     23  O   UNL     1       2.561   4.368  21.700  0.00  0.00    +0.000 OA
ENDBRANCH  20  21
ENDBRANCH   4  19
BRANCH   5  24
ATOM     24  O   UNL     1       0.385   8.521  22.093  0.00  0.00    +0.000 OA
ATOM     25  C   UNL     1       0.022   9.515  23.047  0.00  0.00    +0.000 C 
ENDBRANCH   5  24
TORSDOF 7
ENDMDL
MODEL 9
REMARK VINA RESULT:      -6.7      2.375      4.176
REMARK  Name = 
REMARK  9 active torsions:
REMARK  status: ('A' for Active; 'I' for Inactive)
REMARK    1  A    between atoms: C_1  and  O_2
REMARK    2  A    between atoms: O_2  and  C_3
REMARK    3  A    between atoms: C_5  and  C_6
REMARK    4  A    between atoms: C_7  and  C_8
REMARK    5  A    between atoms: C_11  and  O_12
REMARK    6  A    between atoms: C_15  and  C_16
REMARK    7  A    between atoms: C_17  and  N_18
REMARK    8  A    between atoms: C_21  and  O_22
REMARK    9  A    between atoms: O_22  and  C_23
REMARK                            x       y       z     vdW  Elec       q    Type
REMARK                         _______ _______ _______ _____ _____    ______ ____
ROOT
ATOM      1  C   UNL     1       5.520   5.585  15.888  0.00  0.00    +0.000 A 
ATOM      2  C   UNL     1       4.796   6.626  16.474  0.00  0.00    +0.000 A 
ATOM      3  C   UNL     1       3.923   6.385  17.544  0.00  0.00    +0.000 A 
ATOM      4  C   UNL     1       3.758   5.067  18.020  0.00  0.00    +0.000 A 
ATOM      5  C   UNL     1       4.551   4.029  17.484  0.00  0.00    +0.000 A 
ATOM      6  C   UNL     1       5.413   4.296  16.412  0.00  0.00    +0.000 A 
ENDROOT
BRANCH   1   8
ATOM      7  C   UNL     1       6.977   4.905  14.130  0.00  0.00    +0.000 C 
ATOM      8  O   UNL     1       6.297   5.948  14.823  0.00  0.00    +0.000 OA
ENDBRANCH   1   8
BRANCH   3   9
ATOM      9  C   UNL     1       3.214   7.531  18.138  0.00  0.00    +0.000 C 
ATOM     10  C   UNL     1       2.276   8.196  17.442  0.00  0.00    +0.000 C 
BRANCH  10  11
ATOM     11  C   UNL     1       1.537   9.378  17.920  0.00  0.00    +0.000 A 
ATOM     12  C   UNL     1       2.256  10.548  18.210  0.00  0.00    +0.000 A 
ATOM     13  C   UNL     1       1.604  11.705  18.652  0.00  0.00    +0.000 A 
ATOM     14  C   UNL     1       0.222  11.698  18.793  0.00  0.00    +0.000 A 
ATOM     15  C   UNL     1      -0.512  10.556  18.494  0.00  0.00    +0.000 A 
ATOM     16  C   UNL     1       0.142   9.402  18.053  0.00  0.00    +0.000 A 
BRANCH  14  17
ATOM     17  O   UNL     1      -0.457  12.799  19.219  0.00  0.00    +0.000 OA
ATOM     18  H   UNL     1       0.011  13.592  18.911  0.00  0.00    +0.000 HD
ENDBRANCH  14  17
ENDBRANCH  10  11
ENDBRANCH   3   9
BRANCH   4  19
ATOM     19  C   UNL     1       2.690   4.749  18.984  0.00  0.00    +0.000 C 
ATOM     20  C   UNL     1       2.910   4.372  20.242  0.00  0.00    +0.000 C 
BRANCH  20  21
ATOM     21  N   UNL     1       1.784   4.094  21.104  0.00  0.00    +0.000 N 
ATOM     22  O   UNL     1       0.658   4.486  20.773  0.00  0.00    +0.000 OA
ATOM     23  O   UNL     1       2.045   3.470  22.146  0.00  0.00    +0.000 OA
ENDBRANCH  20  21
ENDBRANCH   4  19
BRANCH   5  24
ATOM     24  O   UNL     1       4.408   2.788  18.061  0.00  0.00    +0.000 OA
ATOM     25  C   UNL     1       3.402   1.928  17.534  0.00  0.00    +0.000 C 
ENDBRANCH   5  24
TORSDOF 7
ENDMDL
