MODEL 1
REMARK VINA RESULT:      -7.6      0.000      0.000
REMARK  Name = 
REMARK  10 active torsions:
REMARK  status: ('A' for Active; 'I' for Inactive)
REMARK    1  A    between atoms: C_1  and  C_2
REMARK    2  A    between atoms: C_2  and  N_3
REMARK    3  A    between atoms: C_2  and  C_8
REMARK    4  A    between atoms: C_4  and  C_6
REMARK    5  A    between atoms: C_6  and  O_7
REMARK    6  A    between atoms: C_11  and  C_12
REMARK    7  A    between atoms: C_12  and  N_13
REMARK    8  A    between atoms: C_18  and  O_19
REMARK    9  A    between atoms: O_19  and  C_20
REMARK   10  A    between atoms: C_20  and  C_21
REMARK                            x       y       z     vdW  Elec       q    Type
REMARK                         _______ _______ _______ _____ _____    ______ ____
ROOT
ATOM      1  C   UNL     1       2.190   7.442  19.789  0.00  0.00    +0.000 C 
ENDROOT
BRANCH   1   2
ATOM      2  N   UNL     1       2.366   6.992  18.390  0.00  0.00    +0.000 NA
ATOM      3  C   UNL     1       3.675   7.439  17.837  0.00  0.00    +0.000 C 
ATOM      4  C   UNL     1       4.398   6.405  16.985  0.00  0.00    +0.000 A 
ATOM      5  C   UNL     1       5.054   6.732  15.799  0.00  0.00    +0.000 A 
ATOM      6  C   UNL     1       5.687   5.730  15.053  0.00  0.00    +0.000 A 
ATOM      7  C   UNL     1       5.704   4.404  15.498  0.00  0.00    +0.000 A 
ATOM      8  C   UNL     1       5.100   4.082  16.710  0.00  0.00    +0.000 A 
ATOM      9  C   UNL     1       4.416   5.068  17.426  0.00  0.00    +0.000 A 
ATOM     10  C   UNL     1       3.523   4.720  18.587  0.00  0.00    +0.000 C 
ATOM     11  F   UNL     1       4.053   5.052  19.796  0.00  0.00    +0.000 F 
ATOM     12  C   UNL     1       2.219   5.512  18.342  0.00  0.00    +0.000 C 
BRANCH   7  13
ATOM     13  O   UNL     1       6.324   3.509  14.670  0.00  0.00    +0.000 OA
BRANCH  13  14
ATOM     14  C   UNL     1       6.266   3.805  13.272  0.00  0.00    +0.000 C 
BRANCH  14  15
ATOM     15  C   UNL     1       5.206   2.950  12.646  0.00  0.00    +0.000 C 
ATOM     16  C   UNL     1       4.517   3.402  11.384  0.00  0.00    +0.000 C 
ATOM     17  C   UNL     1       5.471   2.243  11.340  0.00  0.00    +0.000 C 
ENDBRANCH  14  15
ENDBRANCH  13  14
ENDBRANCH   7  13
ENDBRANCH   1   2
BRANCH   1  21
ATOM     18  C   UNL     1      -0.537  10.758  20.491  0.00  0.00    +0.000 A 
ATOM     19  C   UNL     1       0.010  10.545  19.213  0.00  0.00    +0.000 A 
ATOM     20  C   UNL     1       0.898   9.489  18.972  0.00  0.00    +0.000 A 
ATOM     21  C   UNL     1       1.279   8.630  20.007  0.00  0.00    +0.000 A 
ATOM     22  C   UNL     1       0.705   8.814  21.273  0.00  0.00    +0.000 A 
ATOM     23  C   UNL     1      -0.194   9.858  21.511  0.00  0.00    +0.000 A 
BRANCH  18  25
ATOM     24  C   UNL     1      -2.494  12.106  19.556  0.00  0.00    +0.000 C 
ATOM     25  C   UNL     1      -1.502  11.910  20.708  0.00  0.00    +0.000 C 
BRANCH  25  26
ATOM     26  N   UNL     1      -0.759  13.131  20.974  0.00  0.00    +0.000 N 
ATOM     27  C   UNL     1      -0.490  13.553  22.259  0.00  0.00    +0.000 C 
ATOM     28  O   UNL     1      -0.867  12.967  23.266  0.00  0.00    +0.000 OA
ATOM     29  H   UNL     1      -0.499  13.712  20.187  0.00  0.00    +0.000 HD
BRANCH  27  30
ATOM     30  C   UNL     1       0.341  14.837  22.342  0.00  0.00    +0.000 C 
BRANCH  30  31
ATOM     31  O   UNL     1       1.738  14.584  22.292  0.00  0.00    +0.000 OA
ATOM     32  H   UNL     1       2.075  15.083  21.519  0.00  0.00    +0.000 HD
ENDBRANCH  30  31
ENDBRANCH  27  30
ENDBRANCH  25  26
ENDBRANCH  18  25
ENDBRANCH   1  21
TORSDOF 9
ENDMDL
MODEL 2
REMARK VINA RESULT:      -7.5      3.727     10.417
REMARK  Name = 
REMARK  10 active torsions:
REMARK  status: ('A' for Active; 'I' for Inactive)
REMARK    1  A    between atoms: C_1  and  C_2
REMARK    2  A    between atoms: C_2  and  N_3
REMARK    3  A    between atoms: C_2  and  C_8
REMARK    4  A    between atoms: C_4  and  C_6
REMARK    5  A    between atoms: C_6  and  O_7
REMARK    6  A    between atoms: C_11  and  C_12
REMARK    7  A    between atoms: C_12  and  N_13
REMARK    8  A    between atoms: C_18  and  O_19
REMARK    9  A    between atoms: O_19  and  C_20
REMARK   10  A    between atoms: C_20  and  C_21
REMARK                            x       y       z     vdW  Elec       q    Type
REMARK                         _______ _______ _______ _____ _____    ______ ____
ROOT
ATOM      1  C   UNL     1       1.372  10.243  19.370  0.00  0.00    +0.000 C 
ENDROOT
BRANCH   1   2
ATOM      2  N   UNL     1       0.406  10.807  18.401  0.00  0.00    +0.000 NA
ATOM      3  C   UNL     1      -0.705   9.854  18.126  0.00  0.00    +0.000 C 
ATOM      4  C   UNL     1      -2.085  10.488  18.031  0.00  0.00    +0.000 A 
ATOM      5  C   UNL     1      -3.021  10.115  17.067  0.00  0.00    +0.000 A 
ATOM      6  C   UNL     1      -4.269  10.749  17.024  0.00  0.00    +0.000 A 
ATOM      7  C   UNL     1      -4.609  11.733  17.959  0.00  0.00    +0.000 A 
ATOM      8  C   UNL     1      -3.700  12.069  18.959  0.00  0.00    +0.000 A 
ATOM      9  C   UNL     1      -2.432  11.481  18.968  0.00  0.00    +0.000 A 
ATOM     10  C   UNL     1      -1.329  12.004  19.849  0.00  0.00    +0.000 C 
ATOM     11  F   UNL     1      -1.056  11.197  20.910  0.00  0.00    +0.000 F 
ATOM     12  C   UNL     1      -0.094  12.106  18.926  0.00  0.00    +0.000 C 
BRANCH   7  13
ATOM     13  O   UNL     1      -5.841  12.304  17.796  0.00  0.00    +0.000 OA
BRANCH  13  14
ATOM     14  C   UNL     1      -6.960  11.499  18.174  0.00  0.00    +0.000 C 
BRANCH  14  15
ATOM     15  C   UNL     1      -6.650  10.832  19.480  0.00  0.00    +0.000 C 
ATOM     16  C   UNL     1      -7.737  10.636  20.506  0.00  0.00    +0.000 C 
ATOM     17  C   UNL     1      -7.177   9.450  19.773  0.00  0.00    +0.000 C 
ENDBRANCH  14  15
ENDBRANCH  13  14
ENDBRANCH   7  13
ENDBRANCH   1   2
BRANCH   1  21
ATOM     18  C   UNL     1       2.909   6.231  18.689  0.00  0.00    +0.000 A 
ATOM     19  C   UNL     1       3.047   7.222  17.701  0.00  0.00    +0.000 A 
ATOM     20  C   UNL     1       2.548   8.515  17.899  0.00  0.00    +0.000 A 
ATOM     21  C   UNL     1       1.881   8.847  19.082  0.00  0.00    +0.000 A 
ATOM     22  C   UNL     1       1.777   7.873  20.085  0.00  0.00    +0.000 A 
ATOM     23  C   UNL     1       2.288   6.586  19.896  0.00  0.00    +0.000 A 
BRANCH  18  25
ATOM     24  C   UNL     1       3.034   3.805  19.477  0.00  0.00    +0.000 C 
ATOM     25  C   UNL     1       3.470   4.842  18.437  0.00  0.00    +0.000 C 
BRANCH  25  26
ATOM     26  N   UNL     1       4.919   4.908  18.336  0.00  0.00    +0.000 N 
ATOM     27  C   UNL     1       5.594   4.417  17.238  0.00  0.00    +0.000 C 
ATOM     28  O   UNL     1       5.050   3.872  16.286  0.00  0.00    +0.000 OA
ATOM     29  H   UNL     1       5.436   5.262  19.130  0.00  0.00    +0.000 HD
BRANCH  27  30
ATOM     30  C   UNL     1       7.112   4.614  17.290  0.00  0.00    +0.000 C 
BRANCH  30  31
ATOM     31  O   UNL     1       7.672   4.860  16.008  0.00  0.00    +0.000 OA
ATOM     32  H   UNL     1       8.191   5.687  16.093  0.00  0.00    +0.000 HD
ENDBRANCH  30  31
ENDBRANCH  27  30
ENDBRANCH  25  26
ENDBRANCH  18  25
ENDBRANCH   1  21
TORSDOF 9
ENDMDL
MODEL 3
REMARK VINA RESULT:      -7.5      1.474      1.865
REMARK  Name = 
REMARK  10 active torsions:
REMARK  status: ('A' for Active; 'I' for Inactive)
REMARK    1  A    between atoms: C_1  and  C_2
REMARK    2  A    between atoms: C_2  and  N_3
REMARK    3  A    between atoms: C_2  and  C_8
REMARK    4  A    between atoms: C_4  and  C_6
REMARK    5  A    between atoms: C_6  and  O_7
REMARK    6  A    between atoms: C_11  and  C_12
REMARK    7  A    between atoms: C_12  and  N_13
REMARK    8  A    between atoms: C_18  and  O_19
REMARK    9  A    between atoms: O_19  and  C_20
REMARK   10  A    between atoms: C_20  and  C_21
REMARK                            x       y       z     vdW  Elec       q    Type
REMARK                         _______ _______ _______ _____ _____    ______ ____
ROOT
ATOM      1  C   UNL     1       2.055   7.479  20.020  0.00  0.00    +0.000 C 
ENDROOT
BRANCH   1   2
ATOM      2  N   UNL     1       2.241   7.021  18.626  0.00  0.00    +0.000 NA
ATOM      3  C   UNL     1       3.530   7.511  18.062  0.00  0.00    +0.000 C 
ATOM      4  C   UNL     1       4.288   6.496  17.218  0.00  0.00    +0.000 A 
ATOM      5  C   UNL     1       4.926   6.835  16.025  0.00  0.00    +0.000 A 
ATOM      6  C   UNL     1       5.593   5.849  15.287  0.00  0.00    +0.000 A 
ATOM      7  C   UNL     1       5.661   4.529  15.745  0.00  0.00    +0.000 A 
ATOM      8  C   UNL     1       5.075   4.198  16.964  0.00  0.00    +0.000 A 
ATOM      9  C   UNL     1       4.358   5.165  17.673  0.00  0.00    +0.000 A 
ATOM     10  C   UNL     1       3.483   4.796  18.841  0.00  0.00    +0.000 C 
ATOM     11  F   UNL     1       4.006   5.161  20.044  0.00  0.00    +0.000 F 
ATOM     12  C   UNL     1       2.150   5.537  18.594  0.00  0.00    +0.000 C 
BRANCH   7  13
ATOM     13  O   UNL     1       6.310   3.650  14.923  0.00  0.00    +0.000 OA
BRANCH  13  14
ATOM     14  C   UNL     1       6.266   3.948  13.526  0.00  0.00    +0.000 C 
BRANCH  14  15
ATOM     15  C   UNL     1       5.231   3.076  12.883  0.00  0.00    +0.000 C 
ATOM     16  C   UNL     1       4.586   3.497  11.587  0.00  0.00    +0.000 C 
ATOM     17  C   UNL     1       5.544   2.339  11.604  0.00  0.00    +0.000 C 
ENDBRANCH  14  15
ENDBRANCH  13  14
ENDBRANCH   7  13
ENDBRANCH   1   2
BRANCH   1  21
ATOM     18  C   UNL     1      -0.407  11.005  20.679  0.00  0.00    +0.000 A 
ATOM     19  C   UNL     1      -0.039  10.628  19.375  0.00  0.00    +0.000 A 
ATOM     20  C   UNL     1       0.763   9.503  19.146  0.00  0.00    +0.000 A 
ATOM     21  C   UNL     1       1.233   8.736  20.215  0.00  0.00    +0.000 A 
ATOM     22  C   UNL     1       0.834   9.084  21.514  0.00  0.00    +0.000 A 
ATOM     23  C   UNL     1       0.022  10.198  21.743  0.00  0.00    +0.000 A 
BRANCH  18  25
ATOM     24  C   UNL     1      -0.612  13.541  20.466  0.00  0.00    +0.000 C 
ATOM     25  C   UNL     1      -1.283  12.228  20.883  0.00  0.00    +0.000 C 
BRANCH  25  26
ATOM     26  N   UNL     1      -1.737  12.284  22.263  0.00  0.00    +0.000 N 
ATOM     27  C   UNL     1      -3.050  12.553  22.586  0.00  0.00    +0.000 C 
ATOM     28  O   UNL     1      -3.925  12.788  21.763  0.00  0.00    +0.000 OA
ATOM     29  H   UNL     1      -1.045  12.192  22.995  0.00  0.00    +0.000 HD
BRANCH  27  30
ATOM     30  C   UNL     1      -3.349  12.527  24.089  0.00  0.00    +0.000 C 
BRANCH  30  31
ATOM     31  O   UNL     1      -4.452  11.692  24.409  0.00  0.00    +0.000 OA
ATOM     32  H   UNL     1      -4.136  10.772  24.297  0.00  0.00    +0.000 HD
ENDBRANCH  30  31
ENDBRANCH  27  30
ENDBRANCH  25  26
ENDBRANCH  18  25
ENDBRANCH   1  21
TORSDOF 9
ENDMDL
MODEL 4
REMARK VINA RESULT:      -7.4      1.249      1.399
REMARK  Name = 
REMARK  10 active torsions:
REMARK  status: ('A' for Active; 'I' for Inactive)
REMARK    1  A    between atoms: C_1  and  C_2
REMARK    2  A    between atoms: C_2  and  N_3
REMARK    3  A    between atoms: C_2  and  C_8
REMARK    4  A    between atoms: C_4  and  C_6
REMARK    5  A    between atoms: C_6  and  O_7
REMARK    6  A    between atoms: C_11  and  C_12
REMARK    7  A    between atoms: C_12  and  N_13
REMARK    8  A    between atoms: C_18  and  O_19
REMARK    9  A    between atoms: O_19  and  C_20
REMARK   10  A    between atoms: C_20  and  C_21
REMARK                            x       y       z     vdW  Elec       q    Type
REMARK                         _______ _______ _______ _____ _____    ______ ____
ROOT
ATOM      1  C   UNL     1       2.121   6.859  19.910  0.00  0.00    +0.000 C 
ENDROOT
BRANCH   1   2
ATOM      2  N   UNL     1       2.348   6.586  18.474  0.00  0.00    +0.000 NA
ATOM      3  C   UNL     1       3.684   7.075  18.033  0.00  0.00    +0.000 C 
ATOM      4  C   UNL     1       4.428   6.145  17.086  0.00  0.00    +0.000 A 
ATOM      5  C   UNL     1       5.136   6.607  15.976  0.00  0.00    +0.000 A 
ATOM      6  C   UNL     1       5.785   5.696  15.135  0.00  0.00    +0.000 A 
ATOM      7  C   UNL     1       5.766   4.324  15.408  0.00  0.00    +0.000 A 
ATOM      8  C   UNL     1       5.110   3.862  16.545  0.00  0.00    +0.000 A 
ATOM      9  C   UNL     1       4.410   4.763  17.354  0.00  0.00    +0.000 A 
ATOM     10  C   UNL     1       3.466   4.287  18.425  0.00  0.00    +0.000 C 
ATOM     11  F   UNL     1       3.950   4.454  19.686  0.00  0.00    +0.000 F 
ATOM     12  C   UNL     1       2.184   5.127  18.233  0.00  0.00    +0.000 C 
BRANCH   7  13
ATOM     13  O   UNL     1       6.407   3.530  14.497  0.00  0.00    +0.000 OA
BRANCH  13  14
ATOM     14  C   UNL     1       6.207   3.865  13.122  0.00  0.00    +0.000 C 
BRANCH  14  15
ATOM     15  C   UNL     1       5.102   3.011  12.578  0.00  0.00    +0.000 C 
ATOM     16  C   UNL     1       4.415   3.392  11.291  0.00  0.00    +0.000 C 
ATOM     17  C   UNL     1       5.318   2.192  11.329  0.00  0.00    +0.000 C 
ENDBRANCH  14  15
ENDBRANCH  13  14
ENDBRANCH   7  13
ENDBRANCH   1   2
BRANCH   1  21
ATOM     18  C   UNL     1       0.434  10.715  21.010  0.00  0.00    +0.000 A 
ATOM     19  C   UNL     1       0.699  10.413  19.662  0.00  0.00    +0.000 A 
ATOM     20  C   UNL     1       1.254   9.182  19.292  0.00  0.00    +0.000 A 
ATOM     21  C   UNL     1       1.574   8.226  20.260  0.00  0.00    +0.000 A 
ATOM     22  C   UNL     1       1.274   8.507  21.601  0.00  0.00    +0.000 A 
ATOM     23  C   UNL     1       0.707   9.731  21.971  0.00  0.00    +0.000 A 
BRANCH  18  25
ATOM     24  C   UNL     1      -1.638  11.975  21.809  0.00  0.00    +0.000 C 
ATOM     25  C   UNL     1      -0.173  12.060  21.368  0.00  0.00    +0.000 C 
BRANCH  25  26
ATOM     26  N   UNL     1      -0.011  12.985  20.257  0.00  0.00    +0.000 N 
ATOM     27  C   UNL     1       0.391  14.290  20.451  0.00  0.00    +0.000 C 
ATOM     28  O   UNL     1       0.616  14.783  21.549  0.00  0.00    +0.000 OA
ATOM     29  H   UNL     1      -0.271  12.668  19.332  0.00  0.00    +0.000 HD
BRANCH  27  30
ATOM     30  C   UNL     1       0.548  15.100  19.160  0.00  0.00    +0.000 C 
BRANCH  30  31
ATOM     31  O   UNL     1      -0.700  15.522  18.629  0.00  0.00    +0.000 OA
ATOM     32  H   UNL     1      -1.368  15.327  19.318  0.00  0.00    +0.000 HD
ENDBRANCH  30  31
ENDBRANCH  27  30
ENDBRANCH  25  26
ENDBRANCH  18  25
ENDBRANCH   1  21
TORSDOF 9
ENDMDL
MODEL 5
REMARK VINA RESULT:      -7.4      1.335      2.018
REMARK  Name = 
REMARK  10 active torsions:
REMARK  status: ('A' for Active; 'I' for Inactive)
REMARK    1  A    between atoms: C_1  and  C_2
REMARK    2  A    between atoms: C_2  and  N_3
REMARK    3  A    between atoms: C_2  and  C_8
REMARK    4  A    between atoms: C_4  and  C_6
REMARK    5  A    between atoms: C_6  and  O_7
REMARK    6  A    between atoms: C_11  and  C_12
REMARK    7  A    between atoms: C_12  and  N_13
REMARK    8  A    between atoms: C_18  and  O_19
REMARK    9  A    between atoms: O_19  and  C_20
REMARK   10  A    between atoms: C_20  and  C_21
REMARK                            x       y       z     vdW  Elec       q    Type
REMARK                         _______ _______ _______ _____ _____    ______ ____
ROOT
ATOM      1  C   UNL     1       2.166   6.973  20.014  0.00  0.00    +0.000 C 
ENDROOT
BRANCH   1   2
ATOM      2  N   UNL     1       2.357   6.658  18.581  0.00  0.00    +0.000 NA
ATOM      3  C   UNL     1       3.674   7.149  18.087  0.00  0.00    +0.000 C 
ATOM      4  C   UNL     1       4.403   6.198  17.149  0.00  0.00    +0.000 A 
ATOM      5  C   UNL     1       5.074   6.633  16.006  0.00  0.00    +0.000 A 
ATOM      6  C   UNL     1       5.712   5.704  15.176  0.00  0.00    +0.000 A 
ATOM      7  C   UNL     1       5.719   4.342  15.493  0.00  0.00    +0.000 A 
ATOM      8  C   UNL     1       5.101   3.908  16.663  0.00  0.00    +0.000 A 
ATOM      9  C   UNL     1       4.411   4.825  17.462  0.00  0.00    +0.000 A 
ATOM     10  C   UNL     1       3.504   4.372  18.574  0.00  0.00    +0.000 C 
ATOM     11  F   UNL     1       4.021   4.586  19.814  0.00  0.00    +0.000 F 
ATOM     12  C   UNL     1       2.206   5.190  18.391  0.00  0.00    +0.000 C 
BRANCH   7  13
ATOM     13  O   UNL     1       6.346   3.527  14.590  0.00  0.00    +0.000 OA
BRANCH  13  14
ATOM     14  C   UNL     1       6.196   3.885  13.214  0.00  0.00    +0.000 C 
BRANCH  14  15
ATOM     15  C   UNL     1       5.126   3.026  12.610  0.00  0.00    +0.000 C 
ATOM     16  C   UNL     1       4.468   3.436  11.317  0.00  0.00    +0.000 C 
ATOM     17  C   UNL     1       5.395   2.254  11.343  0.00  0.00    +0.000 C 
ENDBRANCH  14  15
ENDBRANCH  13  14
ENDBRANCH   7  13
ENDBRANCH   1   2
BRANCH   1  21
ATOM     18  C   UNL     1       0.145  10.738  20.831  0.00  0.00    +0.000 A 
ATOM     19  C   UNL     1       0.483   9.869  21.883  0.00  0.00    +0.000 A 
ATOM     20  C   UNL     1       1.122   8.648  21.637  0.00  0.00    +0.000 A 
ATOM     21  C   UNL     1       1.426   8.255  20.331  0.00  0.00    +0.000 A 
ATOM     22  C   UNL     1       1.127   9.137  19.282  0.00  0.00    +0.000 A 
ATOM     23  C   UNL     1       0.502  10.362  19.527  0.00  0.00    +0.000 A 
BRANCH  18  25
ATOM     24  C   UNL     1       0.426  13.232  21.298  0.00  0.00    +0.000 C 
ATOM     25  C   UNL     1      -0.543  12.055  21.142  0.00  0.00    +0.000 C 
BRANCH  25  26
ATOM     26  N   UNL     1      -1.384  11.906  22.319  0.00  0.00    +0.000 N 
ATOM     27  C   UNL     1      -2.603  12.542  22.426  0.00  0.00    +0.000 C 
ATOM     28  O   UNL     1      -3.063  13.291  21.574  0.00  0.00    +0.000 OA
ATOM     29  H   UNL     1      -1.019  11.376  23.099  0.00  0.00    +0.000 HD
BRANCH  27  30
ATOM     30  C   UNL     1      -3.365  12.231  23.718  0.00  0.00    +0.000 C 
BRANCH  30  31
ATOM     31  O   UNL     1      -4.364  13.198  24.006  0.00  0.00    +0.000 OA
ATOM     32  H   UNL     1      -3.974  13.798  24.675  0.00  0.00    +0.000 HD
ENDBRANCH  30  31
ENDBRANCH  27  30
ENDBRANCH  25  26
ENDBRANCH  18  25
ENDBRANCH   1  21
TORSDOF 9
ENDMDL
MODEL 6
REMARK VINA RESULT:      -7.4      3.247     11.237
REMARK  Name = 
REMARK  10 active torsions:
REMARK  status: ('A' for Active; 'I' for Inactive)
REMARK    1  A    between atoms: C_1  and  C_2
REMARK    2  A    between atoms: C_2  and  N_3
REMARK    3  A    between atoms: C_2  and  C_8
REMARK    4  A    between atoms: C_4  and  C_6
REMARK    5  A    between atoms: C_6  and  O_7
REMARK    6  A    between atoms: C_11  and  C_12
REMARK    7  A    between atoms: C_12  and  N_13
REMARK    8  A    between atoms: C_18  and  O_19
REMARK    9  A    between atoms: O_19  and  C_20
REMARK   10  A    between atoms: C_20  and  C_21
REMARK                            x       y       z     vdW  Elec       q    Type
REMARK                         _______ _______ _______ _____ _____    ______ ____
ROOT
ATOM      1  C   UNL     1       1.278   9.843  19.350  0.00  0.00    +0.000 C 
ENDROOT
BRANCH   1   2
ATOM      2  N   UNL     1      -0.015   9.822  20.070  0.00  0.00    +0.000 NA
ATOM      3  C   UNL     1       0.059  10.594  21.341  0.00  0.00    +0.000 C 
ATOM      4  C   UNL     1      -1.165  11.447  21.646  0.00  0.00    +0.000 A 
ATOM      5  C   UNL     1      -1.714  11.546  22.924  0.00  0.00    +0.000 A 
ATOM      6  C   UNL     1      -2.851  12.336  23.135  0.00  0.00    +0.000 A 
ATOM      7  C   UNL     1      -3.429  13.059  22.086  0.00  0.00    +0.000 A 
ATOM      8  C   UNL     1      -2.850  13.010  20.821  0.00  0.00    +0.000 A 
ATOM      9  C   UNL     1      -1.752  12.175  20.594  0.00  0.00    +0.000 A 
ATOM     10  C   UNL     1      -1.266  11.876  19.201  0.00  0.00    +0.000 C 
ATOM     11  F   UNL     1      -0.099  12.502  18.890  0.00  0.00    +0.000 F 
ATOM     12  C   UNL     1      -1.074  10.343  19.164  0.00  0.00    +0.000 C 
BRANCH   7  13
ATOM     13  O   UNL     1      -4.555  13.767  22.406  0.00  0.00    +0.000 OA
BRANCH  13  14
ATOM     14  C   UNL     1      -5.711  12.993  22.733  0.00  0.00    +0.000 C 
BRANCH  14  15
ATOM     15  C   UNL     1      -6.429  12.646  21.464  0.00  0.00    +0.000 C 
ATOM     16  C   UNL     1      -7.591  11.687  21.490  0.00  0.00    +0.000 C 
ATOM     17  C   UNL     1      -7.832  13.145  21.222  0.00  0.00    +0.000 C 
ENDBRANCH  14  15
ENDBRANCH  13  14
ENDBRANCH   7  13
ENDBRANCH   1   2
BRANCH   1  21
ATOM     18  C   UNL     1       3.194   5.991  18.704  0.00  0.00    +0.000 A 
ATOM     19  C   UNL     1       3.257   6.991  17.718  0.00  0.00    +0.000 A 
ATOM     20  C   UNL     1       2.636   8.232  17.904  0.00  0.00    +0.000 A 
ATOM     21  C   UNL     1       1.920   8.500  19.074  0.00  0.00    +0.000 A 
ATOM     22  C   UNL     1       1.888   7.521  20.077  0.00  0.00    +0.000 A 
ATOM     23  C   UNL     1       2.521   6.287  19.899  0.00  0.00    +0.000 A 
BRANCH  18  25
ATOM     24  C   UNL     1       3.716   3.663  19.615  0.00  0.00    +0.000 C 
ATOM     25  C   UNL     1       3.887   4.662  18.465  0.00  0.00    +0.000 C 
BRANCH  25  26
ATOM     26  N   UNL     1       5.293   4.885  18.169  0.00  0.00    +0.000 N 
ATOM     27  C   UNL     1       5.876   4.409  17.013  0.00  0.00    +0.000 C 
ATOM     28  O   UNL     1       5.286   3.750  16.168  0.00  0.00    +0.000 OA
ATOM     29  H   UNL     1       5.860   5.343  18.871  0.00  0.00    +0.000 HD
BRANCH  27  30
ATOM     30  C   UNL     1       7.354   4.780  16.854  0.00  0.00    +0.000 C 
BRANCH  30  31
ATOM     31  O   UNL     1       8.200   4.018  17.702  0.00  0.00    +0.000 OA
ATOM     32  H   UNL     1       8.473   4.621  18.425  0.00  0.00    +0.000 HD
ENDBRANCH  30  31
ENDBRANCH  27  30
ENDBRANCH  25  26
ENDBRANCH  18  25
ENDBRANCH   1  21
TORSDOF 9
ENDMDL
MODEL 7
REMARK VINA RESULT:      -7.4      3.799     10.607
REMARK  Name = 
REMARK  10 active torsions:
REMARK  status: ('A' for Active; 'I' for Inactive)
REMARK    1  A    between atoms: C_1  and  C_2
REMARK    2  A    between atoms: C_2  and  N_3
REMARK    3  A    between atoms: C_2  and  C_8
REMARK    4  A    between atoms: C_4  and  C_6
REMARK    5  A    between atoms: C_6  and  O_7
REMARK    6  A    between atoms: C_11  and  C_12
REMARK    7  A    between atoms: C_12  and  N_13
REMARK    8  A    between atoms: C_18  and  O_19
REMARK    9  A    between atoms: O_19  and  C_20
REMARK   10  A    between atoms: C_20  and  C_21
REMARK                            x       y       z     vdW  Elec       q    Type
REMARK                         _______ _______ _______ _____ _____    ______ ____
ROOT
ATOM      1  C   UNL     1       1.127  10.298  19.464  0.00  0.00    +0.000 C 
ENDROOT
BRANCH   1   2
ATOM      2  N   UNL     1       0.256  10.830  18.392  0.00  0.00    +0.000 NA
ATOM      3  C   UNL     1      -0.796   9.847  18.010  0.00  0.00    +0.000 C 
ATOM      4  C   UNL     1      -2.173  10.446  17.761  0.00  0.00    +0.000 A 
ATOM      5  C   UNL     1      -2.991  10.041  16.706  0.00  0.00    +0.000 A 
ATOM      6  C   UNL     1      -4.241  10.644  16.524  0.00  0.00    +0.000 A 
ATOM      7  C   UNL     1      -4.703  11.626  17.406  0.00  0.00    +0.000 A 
ATOM      8  C   UNL     1      -3.915  11.992  18.494  0.00  0.00    +0.000 A 
ATOM      9  C   UNL     1      -2.642  11.436  18.645  0.00  0.00    +0.000 A 
ATOM     10  C   UNL     1      -1.653  11.994  19.633  0.00  0.00    +0.000 C 
ATOM     11  F   UNL     1      -1.475  11.203  20.726  0.00  0.00    +0.000 F 
ATOM     12  C   UNL     1      -0.328  12.120  18.847  0.00  0.00    +0.000 C 
BRANCH   7  13
ATOM     13  O   UNL     1      -5.924  12.165  17.107  0.00  0.00    +0.000 OA
BRANCH  13  14
ATOM     14  C   UNL     1      -6.359  13.238  17.945  0.00  0.00    +0.000 C 
BRANCH  14  15
ATOM     15  C   UNL     1      -7.542  12.775  18.740  0.00  0.00    +0.000 C 
ATOM     16  C   UNL     1      -7.414  11.593  19.668  0.00  0.00    +0.000 C 
ATOM     17  C   UNL     1      -7.580  12.974  20.235  0.00  0.00    +0.000 C 
ENDBRANCH  14  15
ENDBRANCH  13  14
ENDBRANCH   7  13
ENDBRANCH   1   2
BRANCH   1  21
ATOM     18  C   UNL     1       2.965   6.464  18.546  0.00  0.00    +0.000 A 
ATOM     19  C   UNL     1       2.312   6.663  19.775  0.00  0.00    +0.000 A 
ATOM     20  C   UNL     1       1.725   7.895  20.092  0.00  0.00    +0.000 A 
ATOM     21  C   UNL     1       1.792   8.965  19.196  0.00  0.00    +0.000 A 
ATOM     22  C   UNL     1       2.406   8.758  17.952  0.00  0.00    +0.000 A 
ATOM     23  C   UNL     1       2.979   7.525  17.629  0.00  0.00    +0.000 A 
BRANCH  18  25
ATOM     24  C   UNL     1       3.276   4.042  19.294  0.00  0.00    +0.000 C 
ATOM     25  C   UNL     1       3.582   5.111  18.239  0.00  0.00    +0.000 C 
BRANCH  25  26
ATOM     26  N   UNL     1       5.015   5.257  18.040  0.00  0.00    +0.000 N 
ATOM     27  C   UNL     1       5.684   4.577  17.044  0.00  0.00    +0.000 C 
ATOM     28  O   UNL     1       5.150   3.788  16.275  0.00  0.00    +0.000 OA
ATOM     29  H   UNL     1       5.532   5.822  18.701  0.00  0.00    +0.000 HD
BRANCH  27  30
ATOM     30  C   UNL     1       7.181   4.891  16.960  0.00  0.00    +0.000 C 
BRANCH  30  31
ATOM     31  O   UNL     1       7.442   6.115  16.288  0.00  0.00    +0.000 OA
ATOM     32  H   UNL     1       6.946   6.071  15.445  0.00  0.00    +0.000 HD
ENDBRANCH  30  31
ENDBRANCH  27  30
ENDBRANCH  25  26
ENDBRANCH  18  25
ENDBRANCH   1  21
TORSDOF 9
ENDMDL
MODEL 8
REMARK VINA RESULT:      -7.3      3.884      5.658
REMARK  Name = 
REMARK  10 active torsions:
REMARK  status: ('A' for Active; 'I' for Inactive)
REMARK    1  A    between atoms: C_1  and  C_2
REMARK    2  A    between atoms: C_2  and  N_3
REMARK    3  A    between atoms: C_2  and  C_8
REMARK    4  A    between atoms: C_4  and  C_6
REMARK    5  A    between atoms: C_6  and  O_7
REMARK    6  A    between atoms: C_11  and  C_12
REMARK    7  A    between atoms: C_12  and  N_13
REMARK    8  A    between atoms: C_18  and  O_19
REMARK    9  A    between atoms: O_19  and  C_20
REMARK   10  A    between atoms: C_20  and  C_21
REMARK                            x       y       z     vdW  Elec       q    Type
REMARK                         _______ _______ _______ _____ _____    ______ ____
ROOT
ATOM      1  C   UNL     1       0.278  11.314  20.472  0.00  0.00    +0.000 C 
ENDROOT
BRANCH   1   2
ATOM      2  N   UNL     1       0.242  10.077  19.661  0.00  0.00    +0.000 NA
ATOM      3  C   UNL     1       1.534   9.857  18.952  0.00  0.00    +0.000 C 
ATOM      4  C   UNL     1       2.017   8.414  18.933  0.00  0.00    +0.000 A 
ATOM      5  C   UNL     1       2.581   7.823  17.803  0.00  0.00    +0.000 A 
ATOM      6  C   UNL     1       2.992   6.485  17.847  0.00  0.00    +0.000 A 
ATOM      7  C   UNL     1       2.877   5.736  19.022  0.00  0.00    +0.000 A 
ATOM      8  C   UNL     1       2.368   6.337  20.170  0.00  0.00    +0.000 A 
ATOM      9  C   UNL     1       1.902   7.654  20.113  0.00  0.00    +0.000 A 
ATOM     10  C   UNL     1       1.098   8.253  21.236  0.00  0.00    +0.000 C 
ATOM     11  F   UNL     1       1.793   9.162  21.972  0.00  0.00    +0.000 F 
ATOM     12  C   UNL     1      -0.106   8.935  20.548  0.00  0.00    +0.000 C 
BRANCH   7  13
ATOM     13  O   UNL     1       3.280   4.432  18.935  0.00  0.00    +0.000 OA
BRANCH  13  14
ATOM     14  C   UNL     1       2.651   3.648  17.918  0.00  0.00    +0.000 C 
BRANCH  14  15
ATOM     15  C   UNL     1       1.864   2.555  18.576  0.00  0.00    +0.000 C 
ATOM     16  C   UNL     1       1.678   2.552  20.071  0.00  0.00    +0.000 C 
ATOM     17  C   UNL     1       0.510   2.846  19.174  0.00  0.00    +0.000 C 
ENDBRANCH  14  15
ENDBRANCH  13  14
ENDBRANCH   7  13
ENDBRANCH   1   2
BRANCH   1  21
ATOM     18  C   UNL     1      -3.424  12.592  22.368  0.00  0.00    +0.000 A 
ATOM     19  C   UNL     1      -2.380  12.050  23.139  0.00  0.00    +0.000 A 
ATOM     20  C   UNL     1      -1.187  11.622  22.544  0.00  0.00    +0.000 A 
ATOM     21  C   UNL     1      -1.012  11.709  21.160  0.00  0.00    +0.000 A 
ATOM     22  C   UNL     1      -2.034  12.286  20.392  0.00  0.00    +0.000 A 
ATOM     23  C   UNL     1      -3.220  12.727  20.987  0.00  0.00    +0.000 A 
BRANCH  18  25
ATOM     24  C   UNL     1      -4.603  13.062  24.584  0.00  0.00    +0.000 C 
ATOM     25  C   UNL     1      -4.699  13.048  23.054  0.00  0.00    +0.000 C 
BRANCH  25  26
ATOM     26  N   UNL     1      -5.818  12.236  22.605  0.00  0.00    +0.000 N 
ATOM     27  C   UNL     1      -6.842  12.766  21.848  0.00  0.00    +0.000 C 
ATOM     28  O   UNL     1      -6.914  13.942  21.518  0.00  0.00    +0.000 OA
ATOM     29  H   UNL     1      -5.868  11.277  22.922  0.00  0.00    +0.000 HD
BRANCH  27  30
ATOM     30  C   UNL     1      -7.910  11.749  21.432  0.00  0.00    +0.000 C 
BRANCH  30  31
ATOM     31  O   UNL     1      -7.370  10.455  21.208  0.00  0.00    +0.000 OA
ATOM     32  H   UNL     1      -6.397  10.554  21.265  0.00  0.00    +0.000 HD
ENDBRANCH  30  31
ENDBRANCH  27  30
ENDBRANCH  25  26
ENDBRANCH  18  25
ENDBRANCH   1  21
TORSDOF 9
ENDMDL
MODEL 9
REMARK VINA RESULT:      -7.3      5.621      7.783
REMARK  Name = 
REMARK  10 active torsions:
REMARK  status: ('A' for Active; 'I' for Inactive)
REMARK    1  A    between atoms: C_1  and  C_2
REMARK    2  A    between atoms: C_2  and  N_3
REMARK    3  A    between atoms: C_2  and  C_8
REMARK    4  A    between atoms: C_4  and  C_6
REMARK    5  A    between atoms: C_6  and  O_7
REMARK    6  A    between atoms: C_11  and  C_12
REMARK    7  A    between atoms: C_12  and  N_13
REMARK    8  A    between atoms: C_18  and  O_19
REMARK    9  A    between atoms: O_19  and  C_20
REMARK   10  A    between atoms: C_20  and  C_21
REMARK                            x       y       z     vdW  Elec       q    Type
REMARK                         _______ _______ _______ _____ _____    ______ ____
ROOT
ATOM      1  C   UNL     1       7.711   7.894  17.409  0.00  0.00    +0.000 C 
ENDROOT
BRANCH   1   2
ATOM      2  N   UNL     1       6.666   7.190  18.186  0.00  0.00    +0.000 NA
ATOM      3  C   UNL     1       5.321   7.370  17.574  0.00  0.00    +0.000 C 
ATOM      4  C   UNL     1       4.447   6.124  17.566  0.00  0.00    +0.000 A 
ATOM      5  C   UNL     1       3.084   6.158  17.860  0.00  0.00    +0.000 A 
ATOM      6  C   UNL     1       2.340   4.971  17.851  0.00  0.00    +0.000 A 
ATOM      7  C   UNL     1       2.935   3.751  17.516  0.00  0.00    +0.000 A 
ATOM      8  C   UNL     1       4.282   3.720  17.165  0.00  0.00    +0.000 A 
ATOM      9  C   UNL     1       5.041   4.892  17.232  0.00  0.00    +0.000 A 
ATOM     10  C   UNL     1       6.543   4.862  17.134  0.00  0.00    +0.000 C 
ATOM     11  F   UNL     1       7.016   5.332  15.948  0.00  0.00    +0.000 F 
ATOM     12  C   UNL     1       7.039   5.753  18.295  0.00  0.00    +0.000 C 
BRANCH   7  13
ATOM     13  O   UNL     1       2.115   2.657  17.573  0.00  0.00    +0.000 OA
BRANCH  13  14
ATOM     14  C   UNL     1       1.062   2.713  18.539  0.00  0.00    +0.000 C 
BRANCH  14  15
ATOM     15  C   UNL     1       1.549   2.091  19.813  0.00  0.00    +0.000 C 
ATOM     16  C   UNL     1       2.681   2.726  20.580  0.00  0.00    +0.000 C 
ATOM     17  C   UNL     1       1.286   2.765  21.137  0.00  0.00    +0.000 C 
ENDBRANCH  14  15
ENDBRANCH  13  14
ENDBRANCH   7  13
ENDBRANCH   1   2
BRANCH   1  21
ATOM     18  C   UNL     1       9.344  11.599  18.999  0.00  0.00    +0.000 A 
ATOM     19  C   UNL     1       9.580  10.378  19.656  0.00  0.00    +0.000 A 
ATOM     20  C   UNL     1       9.051   9.178  19.165  0.00  0.00    +0.000 A 
ATOM     21  C   UNL     1       8.259   9.169  18.014  0.00  0.00    +0.000 A 
ATOM     22  C   UNL     1       8.055  10.378  17.333  0.00  0.00    +0.000 A 
ATOM     23  C   UNL     1       8.594  11.574  17.814  0.00  0.00    +0.000 A 
BRANCH  18  25
ATOM     24  C   UNL     1      10.075  12.873  21.088  0.00  0.00    +0.000 C 
ATOM     25  C   UNL     1       9.941  12.877  19.561  0.00  0.00    +0.000 C 
BRANCH  25  26
ATOM     26  N   UNL     1       9.171  14.023  19.105  0.00  0.00    +0.000 N 
ATOM     27  C   UNL     1       9.693  14.945  18.222  0.00  0.00    +0.000 C 
ATOM     28  O   UNL     1      10.832  14.898  17.776  0.00  0.00    +0.000 OA
ATOM     29  H   UNL     1       8.254  14.171  19.508  0.00  0.00    +0.000 HD
BRANCH  27  30
ATOM     30  C   UNL     1       8.720  16.058  17.822  0.00  0.00    +0.000 C 
BRANCH  30  31
ATOM     31  O   UNL     1       7.488  15.980  18.524  0.00  0.00    +0.000 OA
ATOM     32  H   UNL     1       6.796  16.254  17.887  0.00  0.00    +0.000 HD
ENDBRANCH  30  31
ENDBRANCH  27  30
ENDBRANCH  25  26
ENDBRANCH  18  25
ENDBRANCH   1  21
TORSDOF 9
ENDMDL
