MODEL 1
REMARK VINA RESULT:      -5.7      0.000      0.000
REMARK  Name = 
REMARK  5 active torsions:
REMARK  status: ('A' for Active; 'I' for Inactive)
REMARK    1  A    between atoms: N_1  and  C_2
REMARK    2  A    between atoms: C_2  and  C_3
REMARK    3  A    between atoms: C_2  and  C_6
REMARK    4  A    between atoms: C_3  and  C_4
REMARK    5  A    between atoms: C_4  and  O_5
REMARK                            x       y       z     vdW  Elec       q    Type
REMARK                         _______ _______ _______ _____ _____    ______ ____
ROOT
ATOM      1  C   UNL     1       5.423   4.437  17.168  0.00  0.00    +0.000 C 
ENDROOT
BRANCH   1   2
ATOM      2  C   UNL     1       4.043   3.932  17.582  0.00  0.00    +0.000 A 
ATOM      3  C   UNL     1       2.929   4.783  17.699  0.00  0.00    +0.000 A 
ATOM      4  C   UNL     1       1.674   4.286  18.060  0.00  0.00    +0.000 A 
ATOM      5  C   UNL     1       1.519   2.927  18.297  0.00  0.00    +0.000 A 
ATOM      6  F   UNL     1       0.315   2.449  18.638  0.00  0.00    +0.000 F 
ATOM      7  C   UNL     1       2.593   2.057  18.176  0.00  0.00    +0.000 A 
ATOM      8  C   UNL     1       3.848   2.556  17.814  0.00  0.00    +0.000 A 
ENDBRANCH   1   2
BRANCH   1   9
ATOM      9  N   UNL     1       6.475   4.132  18.145  0.00  0.00    +0.000 NA
ATOM     10  H   UNL     1       7.176   4.873  18.129  0.00  0.00    +0.000 HD
ATOM     11  H   UNL     1       6.964   3.281  17.875  0.00  0.00    +0.000 HD
ENDBRANCH   1   9
BRANCH   1  12
ATOM     12  C   UNL     1       5.844   3.984  15.754  0.00  0.00    +0.000 C 
BRANCH  12  13
ATOM     13  C   UNL     1       6.923   4.843  15.100  0.00  0.00    +0.000 C 
BRANCH  13  14
ATOM     14  O   UNL     1       7.312   5.878  15.996  0.00  0.00    +0.000 OA
ATOM     15  H   UNL     1       7.250   5.523  16.900  0.00  0.00    +0.000 HD
ENDBRANCH  13  14
ENDBRANCH  12  13
ENDBRANCH   1  12
TORSDOF 5
ENDMDL
MODEL 2
REMARK VINA RESULT:      -5.5      1.042      1.072
REMARK  Name = 
REMARK  5 active torsions:
REMARK  status: ('A' for Active; 'I' for Inactive)
REMARK    1  A    between atoms: N_1  and  C_2
REMARK    2  A    between atoms: C_2  and  C_3
REMARK    3  A    between atoms: C_2  and  C_6
REMARK    4  A    between atoms: C_3  and  C_4
REMARK    5  A    between atoms: C_4  and  O_5
REMARK                            x       y       z     vdW  Elec       q    Type
REMARK                         _______ _______ _______ _____ _____    ______ ____
ROOT
ATOM      1  C   UNL     1       5.208   4.838  17.817  0.00  0.00    +0.000 C 
ENDROOT
BRANCH   1   2
ATOM      2  C   UNL     1       3.874   4.129  18.034  0.00  0.00    +0.000 A 
ATOM      3  C   UNL     1       2.636   4.767  17.831  0.00  0.00    +0.000 A 
ATOM      4  C   UNL     1       1.431   4.084  18.018  0.00  0.00    +0.000 A 
ATOM      5  C   UNL     1       1.454   2.750  18.402  0.00  0.00    +0.000 A 
ATOM      6  F   UNL     1       0.300   2.093  18.576  0.00  0.00    +0.000 F 
ATOM      7  C   UNL     1       2.656   2.087  18.597  0.00  0.00    +0.000 A 
ATOM      8  C   UNL     1       3.861   2.771  18.408  0.00  0.00    +0.000 A 
ENDBRANCH   1   2
BRANCH   1   9
ATOM      9  N   UNL     1       6.357   4.098  18.353  0.00  0.00    +0.000 NA
ATOM     10  H   UNL     1       7.194   4.343  17.823  0.00  0.00    +0.000 HD
ATOM     11  H   UNL     1       6.223   3.098  18.212  0.00  0.00    +0.000 HD
ENDBRANCH   1   9
BRANCH   1  12
ATOM     12  C   UNL     1       5.457   5.242  16.349  0.00  0.00    +0.000 C 
BRANCH  12  13
ATOM     13  C   UNL     1       6.570   4.467  15.649  0.00  0.00    +0.000 C 
BRANCH  13  14
ATOM     14  O   UNL     1       6.170   3.110  15.486  0.00  0.00    +0.000 OA
ATOM     15  H   UNL     1       6.024   2.738  16.372  0.00  0.00    +0.000 HD
ENDBRANCH  13  14
ENDBRANCH  12  13
ENDBRANCH   1  12
TORSDOF 5
ENDMDL
MODEL 3
REMARK VINA RESULT:      -5.5      1.104      1.193
REMARK  Name = 
REMARK  5 active torsions:
REMARK  status: ('A' for Active; 'I' for Inactive)
REMARK    1  A    between atoms: N_1  and  C_2
REMARK    2  A    between atoms: C_2  and  C_3
REMARK    3  A    between atoms: C_2  and  C_6
REMARK    4  A    between atoms: C_3  and  C_4
REMARK    5  A    between atoms: C_4  and  O_5
REMARK                            x       y       z     vdW  Elec       q    Type
REMARK                         _______ _______ _______ _____ _____    ______ ____
ROOT
ATOM      1  C   UNL     1       5.292   4.358  17.274  0.00  0.00    +0.000 C 
ENDROOT
BRANCH   1   2
ATOM      2  C   UNL     1       3.922   3.829  17.686  0.00  0.00    +0.000 A 
ATOM      3  C   UNL     1       2.780   4.650  17.749  0.00  0.00    +0.000 A 
ATOM      4  C   UNL     1       1.534   4.130  18.110  0.00  0.00    +0.000 A 
ATOM      5  C   UNL     1       1.416   2.778  18.402  0.00  0.00    +0.000 A 
ATOM      6  F   UNL     1       0.221   2.278  18.743  0.00  0.00    +0.000 F 
ATOM      7  C   UNL     1       2.517   1.937  18.336  0.00  0.00    +0.000 A 
ATOM      8  C   UNL     1       3.763   2.458  17.974  0.00  0.00    +0.000 A 
ENDBRANCH   1   2
BRANCH   1   9
ATOM      9  N   UNL     1       5.919   3.582  16.196  0.00  0.00    +0.000 NA
ATOM     10  H   UNL     1       5.199   3.072  15.685  0.00  0.00    +0.000 HD
ATOM     11  H   UNL     1       6.533   2.872  16.591  0.00  0.00    +0.000 HD
ENDBRANCH   1   9
BRANCH   1  12
ATOM     12  C   UNL     1       5.293   5.862  16.932  0.00  0.00    +0.000 C 
BRANCH  12  13
ATOM     13  C   UNL     1       6.642   6.558  17.094  0.00  0.00    +0.000 C 
BRANCH  13  14
ATOM     14  O   UNL     1       7.504   6.171  16.029  0.00  0.00    +0.000 OA
ATOM     15  H   UNL     1       7.840   6.984  15.613  0.00  0.00    +0.000 HD
ENDBRANCH  13  14
ENDBRANCH  12  13
ENDBRANCH   1  12
TORSDOF 5
ENDMDL
MODEL 4
REMARK VINA RESULT:      -5.4      1.038      1.201
REMARK  Name = 
REMARK  5 active torsions:
REMARK  status: ('A' for Active; 'I' for Inactive)
REMARK    1  A    between atoms: N_1  and  C_2
REMARK    2  A    between atoms: C_2  and  C_3
REMARK    3  A    between atoms: C_2  and  C_6
REMARK    4  A    between atoms: C_3  and  C_4
REMARK    5  A    between atoms: C_4  and  O_5
REMARK                            x       y       z     vdW  Elec       q    Type
REMARK                         _______ _______ _______ _____ _____    ______ ____
ROOT
ATOM      1  C   UNL     1       5.201   4.994  18.487  0.00  0.00    +0.000 C 
ENDROOT
BRANCH   1   2
ATOM      2  C   UNL     1       3.861   4.264  18.516  0.00  0.00    +0.000 A 
ATOM      3  C   UNL     1       2.720   4.749  17.849  0.00  0.00    +0.000 A 
ATOM      4  C   UNL     1       1.513   4.045  17.877  0.00  0.00    +0.000 A 
ATOM      5  C   UNL     1       1.439   2.842  18.565  0.00  0.00    +0.000 A 
ATOM      6  F   UNL     1       0.283   2.164  18.587  0.00  0.00    +0.000 F 
ATOM      7  C   UNL     1       2.548   2.328  19.220  0.00  0.00    +0.000 A 
ATOM      8  C   UNL     1       3.755   3.032  19.191  0.00  0.00    +0.000 A 
ENDBRANCH   1   2
BRANCH   1   9
ATOM      9  N   UNL     1       6.355   4.094  18.373  0.00  0.00    +0.000 NA
ATOM     10  H   UNL     1       6.642   4.035  17.396  0.00  0.00    +0.000 HD
ATOM     11  H   UNL     1       6.086   3.149  18.641  0.00  0.00    +0.000 HD
ENDBRANCH   1   9
BRANCH   1  12
ATOM     12  C   UNL     1       5.271   6.108  17.422  0.00  0.00    +0.000 C 
BRANCH  12  13
ATOM     13  C   UNL     1       6.028   5.735  16.151  0.00  0.00    +0.000 C 
BRANCH  13  14
ATOM     14  O   UNL     1       7.393   6.116  16.284  0.00  0.00    +0.000 OA
ATOM     15  H   UNL     1       7.543   6.351  17.216  0.00  0.00    +0.000 HD
ENDBRANCH  13  14
ENDBRANCH  12  13
ENDBRANCH   1  12
TORSDOF 5
ENDMDL
MODEL 5
REMARK VINA RESULT:      -5.4      0.738      1.414
REMARK  Name = 
REMARK  5 active torsions:
REMARK  status: ('A' for Active; 'I' for Inactive)
REMARK    1  A    between atoms: N_1  and  C_2
REMARK    2  A    between atoms: C_2  and  C_3
REMARK    3  A    between atoms: C_2  and  C_6
REMARK    4  A    between atoms: C_3  and  C_4
REMARK    5  A    between atoms: C_4  and  O_5
REMARK                            x       y       z     vdW  Elec       q    Type
REMARK                         _______ _______ _______ _____ _____    ______ ____
ROOT
ATOM      1  C   UNL     1       5.613   4.481  17.328  0.00  0.00    +0.000 C 
ENDROOT
BRANCH   1   2
ATOM      2  C   UNL     1       4.285   4.011  17.916  0.00  0.00    +0.000 A 
ATOM      3  C   UNL     1       4.211   3.113  18.997  0.00  0.00    +0.000 A 
ATOM      4  C   UNL     1       2.980   2.718  19.526  0.00  0.00    +0.000 A 
ATOM      5  C   UNL     1       1.808   3.227  18.984  0.00  0.00    +0.000 A 
ATOM      6  F   UNL     1       0.627   2.853  19.494  0.00  0.00    +0.000 F 
ATOM      7  C   UNL     1       1.844   4.125  17.928  0.00  0.00    +0.000 A 
ATOM      8  C   UNL     1       3.077   4.520  17.400  0.00  0.00    +0.000 A 
ENDBRANCH   1   2
BRANCH   1   9
ATOM      9  N   UNL     1       6.772   4.156  18.169  0.00  0.00    +0.000 NA
ATOM     10  H   UNL     1       6.691   3.194  18.498  0.00  0.00    +0.000 HD
ATOM     11  H   UNL     1       6.768   4.737  19.006  0.00  0.00    +0.000 HD
ENDBRANCH   1   9
BRANCH   1  12
ATOM     12  C   UNL     1       5.844   4.011  15.877  0.00  0.00    +0.000 C 
BRANCH  12  13
ATOM     13  C   UNL     1       7.001   4.696  15.156  0.00  0.00    +0.000 C 
BRANCH  13  14
ATOM     14  O   UNL     1       7.356   5.885  15.855  0.00  0.00    +0.000 OA
ATOM     15  H   UNL     1       7.653   5.625  16.744  0.00  0.00    +0.000 HD
ENDBRANCH  13  14
ENDBRANCH  12  13
ENDBRANCH   1  12
TORSDOF 5
ENDMDL
MODEL 6
REMARK VINA RESULT:      -5.3      1.374      1.664
REMARK  Name = 
REMARK  5 active torsions:
REMARK  status: ('A' for Active; 'I' for Inactive)
REMARK    1  A    between atoms: N_1  and  C_2
REMARK    2  A    between atoms: C_2  and  C_3
REMARK    3  A    between atoms: C_2  and  C_6
REMARK    4  A    between atoms: C_3  and  C_4
REMARK    5  A    between atoms: C_4  and  O_5
REMARK                            x       y       z     vdW  Elec       q    Type
REMARK                         _______ _______ _______ _____ _____    ______ ____
ROOT
ATOM      1  C   UNL     1       5.279   4.681  17.446  0.00  0.00    +0.000 C 
ENDROOT
BRANCH   1   2
ATOM      2  C   UNL     1       3.948   4.544  18.179  0.00  0.00    +0.000 A 
ATOM      3  C   UNL     1       2.784   4.061  17.552  0.00  0.00    +0.000 A 
ATOM      4  C   UNL     1       1.585   3.927  18.257  0.00  0.00    +0.000 A 
ATOM      5  C   UNL     1       1.541   4.266  19.602  0.00  0.00    +0.000 A 
ATOM      6  F   UNL     1       0.394   4.133  20.280  0.00  0.00    +0.000 F 
ATOM      7  C   UNL     1       2.673   4.731  20.255  0.00  0.00    +0.000 A 
ATOM      8  C   UNL     1       3.872   4.864  19.549  0.00  0.00    +0.000 A 
ENDBRANCH   1   2
BRANCH   1   9
ATOM      9  N   UNL     1       6.418   4.136  18.195  0.00  0.00    +0.000 NA
ATOM     10  H   UNL     1       6.232   4.213  19.195  0.00  0.00    +0.000 HD
ATOM     11  H   UNL     1       7.249   4.700  18.023  0.00  0.00    +0.000 HD
ENDBRANCH   1   9
BRANCH   1  12
ATOM     12  C   UNL     1       5.251   4.117  16.010  0.00  0.00    +0.000 C 
BRANCH  12  13
ATOM     13  C   UNL     1       6.129   4.862  15.009  0.00  0.00    +0.000 C 
BRANCH  13  14
ATOM     14  O   UNL     1       7.493   4.750  15.401  0.00  0.00    +0.000 OA
ATOM     15  H   UNL     1       7.851   3.943  14.993  0.00  0.00    +0.000 HD
ENDBRANCH  13  14
ENDBRANCH  12  13
ENDBRANCH   1  12
TORSDOF 5
ENDMDL
MODEL 7
REMARK VINA RESULT:      -5.3      3.933      5.427
REMARK  Name = 
REMARK  5 active torsions:
REMARK  status: ('A' for Active; 'I' for Inactive)
REMARK    1  A    between atoms: N_1  and  C_2
REMARK    2  A    between atoms: C_2  and  C_3
REMARK    3  A    between atoms: C_2  and  C_6
REMARK    4  A    between atoms: C_3  and  C_4
REMARK    5  A    between atoms: C_4  and  O_5
REMARK                            x       y       z     vdW  Elec       q    Type
REMARK                         _______ _______ _______ _____ _____    ______ ____
ROOT
ATOM      1  C   UNL     1       1.315   3.342  18.743  0.00  0.00    +0.000 C 
ENDROOT
BRANCH   1   2
ATOM      2  C   UNL     1       2.424   4.212  18.157  0.00  0.00    +0.000 A 
ATOM      3  C   UNL     1       3.429   3.695  17.318  0.00  0.00    +0.000 A 
ATOM      4  C   UNL     1       4.418   4.522  16.780  0.00  0.00    +0.000 A 
ATOM      5  C   UNL     1       4.406   5.880  17.069  0.00  0.00    +0.000 A 
ATOM      6  F   UNL     1       5.351   6.674  16.549  0.00  0.00    +0.000 F 
ATOM      7  C   UNL     1       3.422   6.425  17.880  0.00  0.00    +0.000 A 
ATOM      8  C   UNL     1       2.432   5.597  18.417  0.00  0.00    +0.000 A 
ENDBRANCH   1   2
BRANCH   1   9
ATOM      9  N   UNL     1       1.534   1.904  18.543  0.00  0.00    +0.000 NA
ATOM     10  H   UNL     1       2.452   1.757  18.124  0.00  0.00    +0.000 HD
ATOM     11  H   UNL     1       0.861   1.540  17.871  0.00  0.00    +0.000 HD
ENDBRANCH   1   9
BRANCH   1  12
ATOM     12  C   UNL     1       1.014   3.646  20.225  0.00  0.00    +0.000 C 
BRANCH  12  13
ATOM     13  C   UNL     1       2.088   3.185  21.207  0.00  0.00    +0.000 C 
BRANCH  13  14
ATOM     14  O   UNL     1       1.480   2.439  22.256  0.00  0.00    +0.000 OA
ATOM     15  H   UNL     1       1.996   1.623  22.373  0.00  0.00    +0.000 HD
ENDBRANCH  13  14
ENDBRANCH  12  13
ENDBRANCH   1  12
TORSDOF 5
ENDMDL
MODEL 8
REMARK VINA RESULT:      -5.3      3.809      5.208
REMARK  Name = 
REMARK  5 active torsions:
REMARK  status: ('A' for Active; 'I' for Inactive)
REMARK    1  A    between atoms: N_1  and  C_2
REMARK    2  A    between atoms: C_2  and  C_3
REMARK    3  A    between atoms: C_2  and  C_6
REMARK    4  A    between atoms: C_3  and  C_4
REMARK    5  A    between atoms: C_4  and  O_5
REMARK                            x       y       z     vdW  Elec       q    Type
REMARK                         _______ _______ _______ _____ _____    ______ ____
ROOT
ATOM      1  C   UNL     1       1.108   3.420  18.676  0.00  0.00    +0.000 C 
ENDROOT
BRANCH   1   2
ATOM      2  C   UNL     1       2.275   4.200  18.077  0.00  0.00    +0.000 A 
ATOM      3  C   UNL     1       2.456   5.579  18.295  0.00  0.00    +0.000 A 
ATOM      4  C   UNL     1       3.547   6.260  17.749  0.00  0.00    +0.000 A 
ATOM      5  C   UNL     1       4.475   5.566  16.987  0.00  0.00    +0.000 A 
ATOM      6  F   UNL     1       5.524   6.218  16.468  0.00  0.00    +0.000 F 
ATOM      7  C   UNL     1       4.336   4.204  16.763  0.00  0.00    +0.000 A 
ATOM      8  C   UNL     1       3.244   3.523  17.310  0.00  0.00    +0.000 A 
ENDBRANCH   1   2
BRANCH   1   9
ATOM      9  N   UNL     1       1.117   1.994  18.326  0.00  0.00    +0.000 NA
ATOM     10  H   UNL     1       0.765   1.451  19.113  0.00  0.00    +0.000 HD
ATOM     11  H   UNL     1       2.075   1.679  18.177  0.00  0.00    +0.000 HD
ENDBRANCH   1   9
BRANCH   1  12
ATOM     12  C   UNL     1       0.963   3.605  20.201  0.00  0.00    +0.000 C 
BRANCH  12  13
ATOM     13  C   UNL     1       1.752   2.610  21.047  0.00  0.00    +0.000 C 
BRANCH  13  14
ATOM     14  O   UNL     1       2.164   3.239  22.256  0.00  0.00    +0.000 OA
ATOM     15  H   UNL     1       2.767   2.628  22.714  0.00  0.00    +0.000 HD
ENDBRANCH  13  14
ENDBRANCH  12  13
ENDBRANCH   1  12
TORSDOF 5
ENDMDL
MODEL 9
REMARK VINA RESULT:      -5.2      2.234      2.925
REMARK  Name = 
REMARK  5 active torsions:
REMARK  status: ('A' for Active; 'I' for Inactive)
REMARK    1  A    between atoms: N_1  and  C_2
REMARK    2  A    between atoms: C_2  and  C_3
REMARK    3  A    between atoms: C_2  and  C_6
REMARK    4  A    between atoms: C_3  and  C_4
REMARK    5  A    between atoms: C_4  and  O_5
REMARK                            x       y       z     vdW  Elec       q    Type
REMARK                         _______ _______ _______ _____ _____    ______ ____
ROOT
ATOM      1  C   UNL     1       6.557   5.394  16.923  0.00  0.00    +0.000 C 
ENDROOT
BRANCH   1   2
ATOM      2  C   UNL     1       5.091   5.071  17.200  0.00  0.00    +0.000 A 
ATOM      3  C   UNL     1       4.523   3.817  16.909  0.00  0.00    +0.000 A 
ATOM      4  C   UNL     1       3.182   3.546  17.194  0.00  0.00    +0.000 A 
ATOM      5  C   UNL     1       2.398   4.527  17.785  0.00  0.00    +0.000 A 
ATOM      6  F   UNL     1       1.114   4.266  18.064  0.00  0.00    +0.000 F 
ATOM      7  C   UNL     1       2.928   5.769  18.099  0.00  0.00    +0.000 A 
ATOM      8  C   UNL     1       4.270   6.039  17.813  0.00  0.00    +0.000 A 
ENDBRANCH   1   2
BRANCH   1   9
ATOM      9  N   UNL     1       6.795   6.808  16.611  0.00  0.00    +0.000 NA
ATOM     10  H   UNL     1       5.928   7.332  16.731  0.00  0.00    +0.000 HD
ATOM     11  H   UNL     1       7.048   6.911  15.630  0.00  0.00    +0.000 HD
ENDBRANCH   1   9
BRANCH   1  12
ATOM     12  C   UNL     1       7.513   4.912  18.034  0.00  0.00    +0.000 C 
BRANCH  12  13
ATOM     13  C   UNL     1       7.804   5.941  19.122  0.00  0.00    +0.000 C 
BRANCH  13  14
ATOM     14  O   UNL     1       8.415   5.294  20.233  0.00  0.00    +0.000 OA
ATOM     15  H   UNL     1       9.158   4.767  19.894  0.00  0.00    +0.000 HD
ENDBRANCH  13  14
ENDBRANCH  12  13
ENDBRANCH   1  12
TORSDOF 5
ENDMDL
