MODEL 1
REMARK VINA RESULT:      -5.8      0.000      0.000
REMARK  Name = 
REMARK  1 active torsions:
REMARK  status: ('A' for Active; 'I' for Inactive)
REMARK    1  A    between atoms: N_1  and  C_2
REMARK                            x       y       z     vdW  Elec       q    Type
REMARK                         _______ _______ _______ _____ _____    ______ ____
ROOT
ATOM      1  C   UNL     1       5.106   3.729  17.839  0.00  0.00    +0.000 A 
ATOM      2  C   UNL     1       5.262   4.428  19.040  0.00  0.00    +0.000 A 
ATOM      3  C   UNL     1       6.157   5.485  19.129  0.00  0.00    +0.000 A 
ATOM      4  C   UNL     1       6.871   5.883  17.998  0.00  0.00    +0.000 A 
ATOM      5 CL   UNL     1       7.967   7.216  18.190  0.00  0.00    +0.000 Cl
ATOM      6  C   UNL     1       6.703   5.264  16.753  0.00  0.00    +0.000 A 
ATOM      7  N   UNL     1       7.378   5.706  15.663  0.00  0.00    +0.000 NA
ATOM      8  C   UNL     1       7.168   5.116  14.471  0.00  0.00    +0.000 A 
ATOM      9  C   UNL     1       6.301   4.063  14.289  0.00  0.00    +0.000 A 
ATOM     10  C   UNL     1       5.614   3.593  15.401  0.00  0.00    +0.000 A 
ATOM     11  C   UNL     1       5.793   4.179  16.674  0.00  0.00    +0.000 A 
ENDROOT
BRANCH   1  12
ATOM     12  N   UNL     1       4.099   2.743  17.785  0.00  0.00    +0.000 N 
ATOM     13  H   UNL     1       3.308   2.930  18.394  0.00  0.00    +0.000 HD
ATOM     14  H   UNL     1       4.436   1.793  17.900  0.00  0.00    +0.000 HD
ENDBRANCH   1  12
TORSDOF 1
ENDMDL
MODEL 2
REMARK VINA RESULT:      -5.7      3.784      5.584
REMARK  Name = 
REMARK  1 active torsions:
REMARK  status: ('A' for Active; 'I' for Inactive)
REMARK    1  A    between atoms: N_1  and  C_2
REMARK                            x       y       z     vdW  Elec       q    Type
REMARK                         _______ _______ _______ _____ _____    ______ ____
ROOT
ATOM      1  C   UNL     1       2.410   6.419  19.746  0.00  0.00    +0.000 A 
ATOM      2  C   UNL     1       3.134   7.001  18.701  0.00  0.00    +0.000 A 
ATOM      3  C   UNL     1       3.718   6.211  17.722  0.00  0.00    +0.000 A 
ATOM      4  C   UNL     1       3.541   4.826  17.754  0.00  0.00    +0.000 A 
ATOM      5 CL   UNL     1       4.299   3.908  16.490  0.00  0.00    +0.000 Cl
ATOM      6  C   UNL     1       2.768   4.196  18.737  0.00  0.00    +0.000 A 
ATOM      7  N   UNL     1       2.577   2.853  18.712  0.00  0.00    +0.000 NA
ATOM      8  C   UNL     1       1.798   2.279  19.649  0.00  0.00    +0.000 A 
ATOM      9  C   UNL     1       1.181   2.983  20.657  0.00  0.00    +0.000 A 
ATOM     10  C   UNL     1       1.379   4.357  20.700  0.00  0.00    +0.000 A 
ATOM     11  C   UNL     1       2.183   5.011  19.739  0.00  0.00    +0.000 A 
ENDROOT
BRANCH   1  12
ATOM     12  N   UNL     1       1.747   7.283  20.642  0.00  0.00    +0.000 N 
ATOM     13  H   UNL     1       1.130   6.807  21.293  0.00  0.00    +0.000 HD
ATOM     14  H   UNL     1       1.281   8.068  20.199  0.00  0.00    +0.000 HD
ENDBRANCH   1  12
TORSDOF 1
ENDMDL
MODEL 3
REMARK VINA RESULT:      -5.7      3.535      4.385
REMARK  Name = 
REMARK  1 active torsions:
REMARK  status: ('A' for Active; 'I' for Inactive)
REMARK    1  A    between atoms: N_1  and  C_2
REMARK                            x       y       z     vdW  Elec       q    Type
REMARK                         _______ _______ _______ _____ _____    ______ ____
ROOT
ATOM      1  C   UNL     1       2.161   2.769  18.986  0.00  0.00    +0.000 A 
ATOM      2  C   UNL     1       1.231   3.024  19.999  0.00  0.00    +0.000 A 
ATOM      3  C   UNL     1       1.104   4.298  20.534  0.00  0.00    +0.000 A 
ATOM      4  C   UNL     1       1.877   5.343  20.024  0.00  0.00    +0.000 A 
ATOM      5 CL   UNL     1       1.655   6.908  20.744  0.00  0.00    +0.000 Cl
ATOM      6  C   UNL     1       2.774   5.159  18.964  0.00  0.00    +0.000 A 
ATOM      7  N   UNL     1       3.475   6.206  18.461  0.00  0.00    +0.000 NA
ATOM      8  C   UNL     1       4.302   6.007  17.416  0.00  0.00    +0.000 A 
ATOM      9  C   UNL     1       4.491   4.779  16.824  0.00  0.00    +0.000 A 
ATOM     10  C   UNL     1       3.787   3.698  17.339  0.00  0.00    +0.000 A 
ATOM     11  C   UNL     1       2.903   3.852  18.429  0.00  0.00    +0.000 A 
ENDROOT
BRANCH   1  12
ATOM     12  N   UNL     1       2.159   1.483  18.408  0.00  0.00    +0.000 N 
ATOM     13  H   UNL     1       2.917   0.887  18.728  0.00  0.00    +0.000 HD
ATOM     14  H   UNL     1       2.089   1.479  17.396  0.00  0.00    +0.000 HD
ENDBRANCH   1  12
TORSDOF 1
ENDMDL
MODEL 4
REMARK VINA RESULT:      -5.6      2.948      4.355
REMARK  Name = 
REMARK  1 active torsions:
REMARK  status: ('A' for Active; 'I' for Inactive)
REMARK    1  A    between atoms: N_1  and  C_2
REMARK                            x       y       z     vdW  Elec       q    Type
REMARK                         _______ _______ _______ _____ _____    ______ ____
ROOT
ATOM      1  C   UNL     1       4.941   4.418  16.625  0.00  0.00    +0.000 A 
ATOM      2  C   UNL     1       5.336   5.759  16.619  0.00  0.00    +0.000 A 
ATOM      3  C   UNL     1       4.527   6.734  17.185  0.00  0.00    +0.000 A 
ATOM      4  C   UNL     1       3.333   6.366  17.808  0.00  0.00    +0.000 A 
ATOM      5 CL   UNL     1       2.381   7.644  18.497  0.00  0.00    +0.000 Cl
ATOM      6  C   UNL     1       2.923   5.030  17.905  0.00  0.00    +0.000 A 
ATOM      7  N   UNL     1       1.780   4.703  18.557  0.00  0.00    +0.000 NA
ATOM      8  C   UNL     1       1.430   3.407  18.667  0.00  0.00    +0.000 A 
ATOM      9  C   UNL     1       2.169   2.375  18.137  0.00  0.00    +0.000 A 
ATOM     10  C   UNL     1       3.335   2.700  17.455  0.00  0.00    +0.000 A 
ATOM     11  C   UNL     1       3.751   4.042  17.314  0.00  0.00    +0.000 A 
ENDROOT
BRANCH   1  12
ATOM     12  N   UNL     1       5.860   3.466  16.136  0.00  0.00    +0.000 N 
ATOM     13  H   UNL     1       6.630   3.275  16.770  0.00  0.00    +0.000 HD
ATOM     14  H   UNL     1       6.193   3.649  15.196  0.00  0.00    +0.000 HD
ENDBRANCH   1  12
TORSDOF 1
ENDMDL
MODEL 5
REMARK VINA RESULT:      -5.6      3.105      4.955
REMARK  Name = 
REMARK  1 active torsions:
REMARK  status: ('A' for Active; 'I' for Inactive)
REMARK    1  A    between atoms: N_1  and  C_2
REMARK                            x       y       z     vdW  Elec       q    Type
REMARK                         _______ _______ _______ _____ _____    ______ ____
ROOT
ATOM      1  C   UNL     1       3.737   2.865  17.951  0.00  0.00    +0.000 A 
ATOM      2  C   UNL     1       4.489   3.567  17.005  0.00  0.00    +0.000 A 
ATOM      3  C   UNL     1       4.407   4.950  16.925  0.00  0.00    +0.000 A 
ATOM      4  C   UNL     1       3.604   5.649  17.828  0.00  0.00    +0.000 A 
ATOM      5 CL   UNL     1       3.560   7.377  17.665  0.00  0.00    +0.000 Cl
ATOM      6  C   UNL     1       2.884   5.002  18.841  0.00  0.00    +0.000 A 
ATOM      7  N   UNL     1       2.150   5.715  19.731  0.00  0.00    +0.000 NA
ATOM      8  C   UNL     1       1.499   5.070  20.718  0.00  0.00    +0.000 A 
ATOM      9  C   UNL     1       1.522   3.703  20.873  0.00  0.00    +0.000 A 
ATOM     10  C   UNL     1       2.260   2.961  19.959  0.00  0.00    +0.000 A 
ATOM     11  C   UNL     1       2.967   3.588  18.909  0.00  0.00    +0.000 A 
ENDROOT
BRANCH   1  12
ATOM     12  N   UNL     1       3.954   1.475  18.055  0.00  0.00    +0.000 N 
ATOM     13  H   UNL     1       4.925   1.221  18.207  0.00  0.00    +0.000 HD
ATOM     14  H   UNL     1       3.543   0.930  17.305  0.00  0.00    +0.000 HD
ENDBRANCH   1  12
TORSDOF 1
ENDMDL
MODEL 6
REMARK VINA RESULT:      -5.5      3.479      4.376
REMARK  Name = 
REMARK  1 active torsions:
REMARK  status: ('A' for Active; 'I' for Inactive)
REMARK    1  A    between atoms: N_1  and  C_2
REMARK                            x       y       z     vdW  Elec       q    Type
REMARK                         _______ _______ _______ _____ _____    ______ ____
ROOT
ATOM      1  C   UNL     1       2.461   5.752  19.710  0.00  0.00    +0.000 A 
ATOM      2  C   UNL     1       2.015   4.647  20.440  0.00  0.00    +0.000 A 
ATOM      3  C   UNL     1       2.301   3.358  20.013  0.00  0.00    +0.000 A 
ATOM      4  C   UNL     1       3.082   3.165  18.872  0.00  0.00    +0.000 A 
ATOM      5 CL   UNL     1       3.400   1.523  18.407  0.00  0.00    +0.000 Cl
ATOM      6  C   UNL     1       3.614   4.236  18.142  0.00  0.00    +0.000 A 
ATOM      7  N   UNL     1       4.407   4.012  17.064  0.00  0.00    +0.000 NA
ATOM      8  C   UNL     1       4.935   5.061  16.404  0.00  0.00    +0.000 A 
ATOM      9  C   UNL     1       4.704   6.371  16.755  0.00  0.00    +0.000 A 
ATOM     10  C   UNL     1       3.883   6.612  17.849  0.00  0.00    +0.000 A 
ATOM     11  C   UNL     1       3.307   5.549  18.581  0.00  0.00    +0.000 A 
ENDROOT
BRANCH   1  12
ATOM     12  N   UNL     1       2.235   7.032  20.259  0.00  0.00    +0.000 N 
ATOM     13  H   UNL     1       2.280   7.057  21.274  0.00  0.00    +0.000 HD
ATOM     14  H   UNL     1       1.400   7.493  19.916  0.00  0.00    +0.000 HD
ENDBRANCH   1  12
TORSDOF 1
ENDMDL
MODEL 7
REMARK VINA RESULT:      -5.5      3.116      4.503
REMARK  Name = 
REMARK  1 active torsions:
REMARK  status: ('A' for Active; 'I' for Inactive)
REMARK    1  A    between atoms: N_1  and  C_2
REMARK                            x       y       z     vdW  Elec       q    Type
REMARK                         _______ _______ _______ _____ _____    ______ ____
ROOT
ATOM      1  C   UNL     1       3.230   6.513  18.021  0.00  0.00    +0.000 A 
ATOM      2  C   UNL     1       4.307   6.986  17.266  0.00  0.00    +0.000 A 
ATOM      3  C   UNL     1       5.124   6.104  16.573  0.00  0.00    +0.000 A 
ATOM      4  C   UNL     1       4.838   4.738  16.592  0.00  0.00    +0.000 A 
ATOM      5 CL   UNL     1       5.904   3.700  15.696  0.00  0.00    +0.000 Cl
ATOM      6  C   UNL     1       3.731   4.216  17.274  0.00  0.00    +0.000 A 
ATOM      7  N   UNL     1       3.456   2.888  17.233  0.00  0.00    +0.000 NA
ATOM      8  C   UNL     1       2.364   2.420  17.867  0.00  0.00    +0.000 A 
ATOM      9  C   UNL     1       1.499   3.221  18.578  0.00  0.00    +0.000 A 
ATOM     10  C   UNL     1       1.779   4.580  18.638  0.00  0.00    +0.000 A 
ATOM     11  C   UNL     1       2.908   5.125  17.987  0.00  0.00    +0.000 A 
ENDROOT
BRANCH   1  12
ATOM     12  N   UNL     1       2.373   7.469  18.605  0.00  0.00    +0.000 N 
ATOM     13  H   UNL     1       1.643   7.067  19.186  0.00  0.00    +0.000 HD
ATOM     14  H   UNL     1       1.993   8.146  17.952  0.00  0.00    +0.000 HD
ENDBRANCH   1  12
TORSDOF 1
ENDMDL
MODEL 8
REMARK VINA RESULT:      -5.4      2.661      3.200
REMARK  Name = 
REMARK  1 active torsions:
REMARK  status: ('A' for Active; 'I' for Inactive)
REMARK    1  A    between atoms: N_1  and  C_2
REMARK                            x       y       z     vdW  Elec       q    Type
REMARK                         _______ _______ _______ _____ _____    ______ ____
ROOT
ATOM      1  C   UNL     1       4.483   3.843  19.239  0.00  0.00    +0.000 A 
ATOM      2  C   UNL     1       3.114   4.026  19.456  0.00  0.00    +0.000 A 
ATOM      3  C   UNL     1       2.487   5.196  19.051  0.00  0.00    +0.000 A 
ATOM      4  C   UNL     1       3.219   6.176  18.379  0.00  0.00    +0.000 A 
ATOM      5 CL   UNL     1       2.361   7.609  17.902  0.00  0.00    +0.000 Cl
ATOM      6  C   UNL     1       4.577   6.015  18.074  0.00  0.00    +0.000 A 
ATOM      7  N   UNL     1       5.248   6.968  17.379  0.00  0.00    +0.000 NA
ATOM      8  C   UNL     1       6.543   6.769  17.067  0.00  0.00    +0.000 A 
ATOM      9  C   UNL     1       7.244   5.641  17.428  0.00  0.00    +0.000 A 
ATOM     10  C   UNL     1       6.571   4.665  18.151  0.00  0.00    +0.000 A 
ATOM     11  C   UNL     1       5.211   4.820  18.500  0.00  0.00    +0.000 A 
ENDROOT
BRANCH   1  12
ATOM     12  N   UNL     1       5.033   2.586  19.570  0.00  0.00    +0.000 N 
ATOM     13  H   UNL     1       5.977   2.446  19.222  0.00  0.00    +0.000 HD
ATOM     14  H   UNL     1       4.437   1.797  19.347  0.00  0.00    +0.000 HD
ENDBRANCH   1  12
TORSDOF 1
ENDMDL
MODEL 9
REMARK VINA RESULT:      -5.4      2.603      2.953
REMARK  Name = 
REMARK  1 active torsions:
REMARK  status: ('A' for Active; 'I' for Inactive)
REMARK    1  A    between atoms: N_1  and  C_2
REMARK                            x       y       z     vdW  Elec       q    Type
REMARK                         _______ _______ _______ _____ _____    ______ ____
ROOT
ATOM      1  C   UNL     1       3.615   3.157  18.076  0.00  0.00    +0.000 A 
ATOM      2  C   UNL     1       2.557   3.538  18.907  0.00  0.00    +0.000 A 
ATOM      3  C   UNL     1       2.209   4.875  19.036  0.00  0.00    +0.000 A 
ATOM      4  C   UNL     1       2.889   5.842  18.294  0.00  0.00    +0.000 A 
ATOM      5 CL   UNL     1       2.391   7.492  18.508  0.00  0.00    +0.000 Cl
ATOM      6  C   UNL     1       3.911   5.510  17.395  0.00  0.00    +0.000 A 
ATOM      7  N   UNL     1       4.520   6.469  16.654  0.00  0.00    +0.000 NA
ATOM      8  C   UNL     1       5.472   6.116  15.770  0.00  0.00    +0.000 A 
ATOM      9  C   UNL     1       5.882   4.816  15.576  0.00  0.00    +0.000 A 
ATOM     10  C   UNL     1       5.273   3.827  16.338  0.00  0.00    +0.000 A 
ATOM     11  C   UNL     1       4.265   4.141  17.276  0.00  0.00    +0.000 A 
ENDROOT
BRANCH   1  12
ATOM     12  N   UNL     1       3.841   1.776  17.902  0.00  0.00    +0.000 N 
ATOM     13  H   UNL     1       3.057   1.192  18.179  0.00  0.00    +0.000 HD
ATOM     14  H   UNL     1       4.711   1.440  18.302  0.00  0.00    +0.000 HD
ENDBRANCH   1  12
TORSDOF 1
ENDMDL
