MODEL 1
REMARK VINA RESULT:      -8.1      0.000      0.000
REMARK  Name = 
REMARK  12 active torsions:
REMARK  status: ('A' for Active; 'I' for Inactive)
REMARK    1  A    between atoms: C_1  and  C_2
REMARK    2  A    between atoms: C_4  and  C_5
REMARK    3  A    between atoms: N_7  and  C_8
REMARK    4  A    between atoms: C_8  and  C_9
REMARK    5  A    between atoms: C_8  and  C_10
REMARK    6  A    between atoms: C_8  and  C_11
REMARK    7  A    between atoms: C_12  and  C_13
REMARK    8  A    between atoms: C_15  and  O_16
REMARK    9  A    between atoms: O_16  and  C_17
REMARK   10  A    between atoms: C_21  and  N_22
REMARK   11  A    between atoms: N_22  and  S_23
REMARK   12  A    between atoms: S_23  and  C_26
REMARK                            x       y       z     vdW  Elec       q    Type
REMARK                         _______ _______ _______ _____ _____    ______ ____
ROOT
ATOM      1  O   UNL     1       1.619   9.905  18.656  0.00  0.00    +0.000 OA
ENDROOT
BRANCH   1   7
ATOM      2  C   UNL     1      -2.624   9.995  16.586  0.00  0.00    +0.000 C 
ATOM      3  C   UNL     1      -1.807  10.426  17.763  0.00  0.00    +0.000 A 
ATOM      4  C   UNL     1      -2.248  11.364  18.672  0.00  0.00    +0.000 A 
ATOM      5  C   UNL     1      -1.352  11.850  19.640  0.00  0.00    +0.000 A 
ATOM      6  C   UNL     1      -0.007  11.441  19.611  0.00  0.00    +0.000 A 
ATOM      7  C   UNL     1       0.323  10.427  18.716  0.00  0.00    +0.000 A 
ATOM      8  N   UNL     1      -0.577   9.894  17.850  0.00  0.00    +0.000 NA
BRANCH   5   9
ATOM      9  C   UNL     1      -1.932  12.840  20.597  0.00  0.00    +0.000 C 
ATOM     10  O   UNL     1      -1.944  14.021  20.267  0.00  0.00    +0.000 OA
ATOM     11  N   UNL     1      -2.484  12.363  21.768  0.00  0.00    +0.000 N 
ATOM     12  H   UNL     1      -2.581  11.366  21.906  0.00  0.00    +0.000 HD
BRANCH  11  13
ATOM     13  C   UNL     1      -3.104  13.218  22.804  0.00  0.00    +0.000 C 
ATOM     14  C   UNL     1      -4.292  14.009  22.232  0.00  0.00    +0.000 C 
ATOM     15  C   UNL     1      -3.607  12.311  23.948  0.00  0.00    +0.000 C 
ATOM     16  C   UNL     1      -2.081  14.199  23.399  0.00  0.00    +0.000 C 
ENDBRANCH  11  13
ENDBRANCH   5   9
BRANCH   6  17
ATOM     17  C   UNL     1       0.995  12.132  20.356  0.00  0.00    +0.000 C 
ATOM     18  N   UNL     1       1.852  12.639  20.961  0.00  0.00    +0.000 NA
ENDBRANCH   6  17
ENDBRANCH   1   7
BRANCH   1  19
ATOM     19  C   UNL     1       1.823   8.633  19.188  0.00  0.00    +0.000 A 
ATOM     20  C   UNL     1       1.348   8.283  20.459  0.00  0.00    +0.000 A 
ATOM     21  C   UNL     1       1.495   6.997  20.959  0.00  0.00    +0.000 A 
ATOM     22  C   UNL     1       2.062   6.014  20.161  0.00  0.00    +0.000 A 
ATOM     23  C   UNL     1       2.544   6.334  18.888  0.00  0.00    +0.000 A 
ATOM     24  C   UNL     1       2.444   7.649  18.396  0.00  0.00    +0.000 A 
BRANCH  23  25
ATOM     25  N   UNL     1       3.069   5.271  18.117  0.00  0.00    +0.000 N 
ATOM     26  H   UNL     1       2.845   5.197  17.129  0.00  0.00    +0.000 HD
BRANCH  25  27
ATOM     27  S   UNL     1       4.547   4.550  18.521  0.00  0.00    +0.000 S 
ATOM     28  O   UNL     1       5.170   5.427  19.485  0.00  0.00    +0.000 OA
ATOM     29  O   UNL     1       4.304   3.153  18.823  0.00  0.00    +0.000 OA
BRANCH  27  30
ATOM     30  C   UNL     1       5.507   4.635  17.017  0.00  0.00    +0.000 A 
ATOM     31  C   UNL     1       5.238   3.765  15.957  0.00  0.00    +0.000 A 
ATOM     32  C   UNL     1       5.944   3.902  14.754  0.00  0.00    +0.000 A 
ATOM     33  C   UNL     1       6.901   4.909  14.617  0.00  0.00    +0.000 A 
ATOM     34 CL   UNL     1       7.752   5.088  13.134  0.00  0.00    +0.000 Cl
ATOM     35  C   UNL     1       7.162   5.784  15.673  0.00  0.00    +0.000 A 
ATOM     36  C   UNL     1       6.459   5.652  16.872  0.00  0.00    +0.000 A 
ENDBRANCH  27  30
ENDBRANCH  25  27
ENDBRANCH  23  25
ENDBRANCH   1  19
TORSDOF 8
ENDMDL
MODEL 2
REMARK VINA RESULT:      -8.0      1.014      1.211
REMARK  Name = 
REMARK  12 active torsions:
REMARK  status: ('A' for Active; 'I' for Inactive)
REMARK    1  A    between atoms: C_1  and  C_2
REMARK    2  A    between atoms: C_4  and  C_5
REMARK    3  A    between atoms: N_7  and  C_8
REMARK    4  A    between atoms: C_8  and  C_9
REMARK    5  A    between atoms: C_8  and  C_10
REMARK    6  A    between atoms: C_8  and  C_11
REMARK    7  A    between atoms: C_12  and  C_13
REMARK    8  A    between atoms: C_15  and  O_16
REMARK    9  A    between atoms: O_16  and  C_17
REMARK   10  A    between atoms: C_21  and  N_22
REMARK   11  A    between atoms: N_22  and  S_23
REMARK   12  A    between atoms: S_23  and  C_26
REMARK                            x       y       z     vdW  Elec       q    Type
REMARK                         _______ _______ _______ _____ _____    ______ ____
ROOT
ATOM      1  O   UNL     1       1.608   9.859  18.668  0.00  0.00    +0.000 OA
ENDROOT
BRANCH   1   7
ATOM      2  C   UNL     1      -2.539   9.913  16.410  0.00  0.00    +0.000 C 
ATOM      3  C   UNL     1      -1.782  10.338  17.629  0.00  0.00    +0.000 A 
ATOM      4  C   UNL     1      -2.280  11.254  18.531  0.00  0.00    +0.000 A 
ATOM      5  C   UNL     1      -1.437  11.739  19.546  0.00  0.00    +0.000 A 
ATOM      6  C   UNL     1      -0.086  11.353  19.572  0.00  0.00    +0.000 A 
ATOM      7  C   UNL     1       0.302  10.358  18.677  0.00  0.00    +0.000 A 
ATOM      8  N   UNL     1      -0.549   9.825  17.764  0.00  0.00    +0.000 NA
BRANCH   5   9
ATOM      9  C   UNL     1      -2.076  12.703  20.491  0.00  0.00    +0.000 C 
ATOM     10  O   UNL     1      -2.531  12.265  21.542  0.00  0.00    +0.000 OA
ATOM     11  N   UNL     1      -2.057  14.043  20.162  0.00  0.00    +0.000 N 
ATOM     12  H   UNL     1      -1.529  14.354  19.357  0.00  0.00    +0.000 HD
BRANCH  11  13
ATOM     13  C   UNL     1      -2.638  15.115  21.000  0.00  0.00    +0.000 C 
ATOM     14  C   UNL     1      -2.324  16.504  20.420  0.00  0.00    +0.000 C 
ATOM     15  C   UNL     1      -4.168  14.922  21.047  0.00  0.00    +0.000 C 
ATOM     16  C   UNL     1      -2.112  15.038  22.443  0.00  0.00    +0.000 C 
ENDBRANCH  11  13
ENDBRANCH   5   9
BRANCH   6  17
ATOM     17  C   UNL     1       0.871  12.047  20.372  0.00  0.00    +0.000 C 
ATOM     18  N   UNL     1       1.685  12.555  21.033  0.00  0.00    +0.000 NA
ENDBRANCH   6  17
ENDBRANCH   1   7
BRANCH   1  19
ATOM     19  C   UNL     1       1.814   8.592  19.213  0.00  0.00    +0.000 A 
ATOM     20  C   UNL     1       1.346   8.257  20.490  0.00  0.00    +0.000 A 
ATOM     21  C   UNL     1       1.495   6.976  21.004  0.00  0.00    +0.000 A 
ATOM     22  C   UNL     1       2.056   5.984  20.213  0.00  0.00    +0.000 A 
ATOM     23  C   UNL     1       2.529   6.289  18.933  0.00  0.00    +0.000 A 
ATOM     24  C   UNL     1       2.428   7.598  18.428  0.00  0.00    +0.000 A 
BRANCH  23  25
ATOM     25  N   UNL     1       3.048   5.216  18.171  0.00  0.00    +0.000 N 
ATOM     26  H   UNL     1       2.788   5.111  17.194  0.00  0.00    +0.000 HD
BRANCH  25  27
ATOM     27  S   UNL     1       4.556   4.539  18.536  0.00  0.00    +0.000 S 
ATOM     28  O   UNL     1       5.202   5.461  19.439  0.00  0.00    +0.000 OA
ATOM     29  O   UNL     1       4.354   3.149  18.897  0.00  0.00    +0.000 OA
BRANCH  27  30
ATOM     30  C   UNL     1       5.449   4.586  16.989  0.00  0.00    +0.000 A 
ATOM     31  C   UNL     1       4.846   4.136  15.811  0.00  0.00    +0.000 A 
ATOM     32  C   UNL     1       5.530   4.259  14.594  0.00  0.00    +0.000 A 
ATOM     33  C   UNL     1       6.799   4.838  14.562  0.00  0.00    +0.000 A 
ATOM     34 CL   UNL     1       7.629   5.006  13.065  0.00  0.00    +0.000 Cl
ATOM     35  C   UNL     1       7.397   5.296  15.737  0.00  0.00    +0.000 A 
ATOM     36  C   UNL     1       6.717   5.178  16.952  0.00  0.00    +0.000 A 
ENDBRANCH  27  30
ENDBRANCH  25  27
ENDBRANCH  23  25
ENDBRANCH   1  19
TORSDOF 8
ENDMDL
MODEL 3
REMARK VINA RESULT:      -7.9      2.398      3.264
REMARK  Name = 
REMARK  12 active torsions:
REMARK  status: ('A' for Active; 'I' for Inactive)
REMARK    1  A    between atoms: C_1  and  C_2
REMARK    2  A    between atoms: C_4  and  C_5
REMARK    3  A    between atoms: N_7  and  C_8
REMARK    4  A    between atoms: C_8  and  C_9
REMARK    5  A    between atoms: C_8  and  C_10
REMARK    6  A    between atoms: C_8  and  C_11
REMARK    7  A    between atoms: C_12  and  C_13
REMARK    8  A    between atoms: C_15  and  O_16
REMARK    9  A    between atoms: O_16  and  C_17
REMARK   10  A    between atoms: C_21  and  N_22
REMARK   11  A    between atoms: N_22  and  S_23
REMARK   12  A    between atoms: S_23  and  C_26
REMARK                            x       y       z     vdW  Elec       q    Type
REMARK                         _______ _______ _______ _____ _____    ______ ____
ROOT
ATOM      1  O   UNL     1       0.517   9.913  20.760  0.00  0.00    +0.000 OA
ENDROOT
BRANCH   1   7
ATOM      2  C   UNL     1      -2.756  10.587  17.425  0.00  0.00    +0.000 C 
ATOM      3  C   UNL     1      -1.883  11.229  18.457  0.00  0.00    +0.000 A 
ATOM      4  C   UNL     1      -1.705  12.594  18.536  0.00  0.00    +0.000 A 
ATOM      5  C   UNL     1      -0.730  13.106  19.409  0.00  0.00    +0.000 A 
ATOM      6  C   UNL     1       0.103  12.222  20.116  0.00  0.00    +0.000 A 
ATOM      7  C   UNL     1      -0.210  10.866  20.042  0.00  0.00    +0.000 A 
ATOM      8  N   UNL     1      -1.220  10.391  19.269  0.00  0.00    +0.000 NA
BRANCH   5   9
ATOM      9  C   UNL     1      -0.634  14.596  19.445  0.00  0.00    +0.000 C 
ATOM     10  O   UNL     1      -1.461  15.210  20.109  0.00  0.00    +0.000 OA
ATOM     11  N   UNL     1       0.421  15.194  18.787  0.00  0.00    +0.000 N 
ATOM     12  H   UNL     1       1.154  14.621  18.391  0.00  0.00    +0.000 HD
BRANCH  11  13
ATOM     13  C   UNL     1       0.655  16.655  18.744  0.00  0.00    +0.000 C 
ATOM     14  C   UNL     1       0.796  17.235  20.161  0.00  0.00    +0.000 C 
ATOM     15  C   UNL     1       1.958  16.917  17.960  0.00  0.00    +0.000 C 
ATOM     16  C   UNL     1      -0.487  17.378  18.011  0.00  0.00    +0.000 C 
ENDBRANCH  11  13
ENDBRANCH   5   9
BRANCH   6  17
ATOM     17  C   UNL     1       1.294  12.676  20.759  0.00  0.00    +0.000 C 
ATOM     18  N   UNL     1       2.235  13.106  21.294  0.00  0.00    +0.000 NA
ENDBRANCH   6  17
ENDBRANCH   1   7
BRANCH   1  19
ATOM     19  C   UNL     1       1.185   8.932  20.029  0.00  0.00    +0.000 A 
ATOM     20  C   UNL     1       1.596   9.152  18.707  0.00  0.00    +0.000 A 
ATOM     21  C   UNL     1       2.319   8.199  18.003  0.00  0.00    +0.000 A 
ATOM     22  C   UNL     1       2.706   7.029  18.640  0.00  0.00    +0.000 A 
ATOM     23  C   UNL     1       2.314   6.783  19.959  0.00  0.00    +0.000 A 
ATOM     24  C   UNL     1       1.536   7.724  20.660  0.00  0.00    +0.000 A 
BRANCH  23  25
ATOM     25  N   UNL     1       2.783   5.589  20.555  0.00  0.00    +0.000 N 
ATOM     26  H   UNL     1       2.797   5.493  21.566  0.00  0.00    +0.000 HD
BRANCH  25  27
ATOM     27  S   UNL     1       2.658   4.106  19.747  0.00  0.00    +0.000 S 
ATOM     28  O   UNL     1       2.988   3.091  20.719  0.00  0.00    +0.000 OA
ATOM     29  O   UNL     1       1.396   4.081  19.033  0.00  0.00    +0.000 OA
BRANCH  27  30
ATOM     30  C   UNL     1       3.976   4.146  18.542  0.00  0.00    +0.000 A 
ATOM     31  C   UNL     1       3.707   3.904  17.192  0.00  0.00    +0.000 A 
ATOM     32  C   UNL     1       4.738   4.023  16.249  0.00  0.00    +0.000 A 
ATOM     33  C   UNL     1       6.020   4.391  16.660  0.00  0.00    +0.000 A 
ATOM     34 CL   UNL     1       7.278   4.556  15.500  0.00  0.00    +0.000 Cl
ATOM     35  C   UNL     1       6.286   4.642  18.007  0.00  0.00    +0.000 A 
ATOM     36  C   UNL     1       5.261   4.528  18.949  0.00  0.00    +0.000 A 
ENDBRANCH  27  30
ENDBRANCH  25  27
ENDBRANCH  23  25
ENDBRANCH   1  19
TORSDOF 8
ENDMDL
MODEL 4
REMARK VINA RESULT:      -7.7      2.096      3.818
REMARK  Name = 
REMARK  12 active torsions:
REMARK  status: ('A' for Active; 'I' for Inactive)
REMARK    1  A    between atoms: C_1  and  C_2
REMARK    2  A    between atoms: C_4  and  C_5
REMARK    3  A    between atoms: N_7  and  C_8
REMARK    4  A    between atoms: C_8  and  C_9
REMARK    5  A    between atoms: C_8  and  C_10
REMARK    6  A    between atoms: C_8  and  C_11
REMARK    7  A    between atoms: C_12  and  C_13
REMARK    8  A    between atoms: C_15  and  O_16
REMARK    9  A    between atoms: O_16  and  C_17
REMARK   10  A    between atoms: C_21  and  N_22
REMARK   11  A    between atoms: N_22  and  S_23
REMARK   12  A    between atoms: S_23  and  C_26
REMARK                            x       y       z     vdW  Elec       q    Type
REMARK                         _______ _______ _______ _____ _____    ______ ____
ROOT
ATOM      1  O   UNL     1       1.766   6.086  20.777  0.00  0.00    +0.000 OA
ENDROOT
BRANCH   1   7
ATOM      2  C   UNL     1       3.681   7.638  16.749  0.00  0.00    +0.000 C 
ATOM      3  C   UNL     1       2.709   7.919  17.853  0.00  0.00    +0.000 A 
ATOM      4  C   UNL     1       2.124   9.154  18.032  0.00  0.00    +0.000 A 
ATOM      5  C   UNL     1       1.370   9.390  19.195  0.00  0.00    +0.000 A 
ATOM      6  C   UNL     1       1.298   8.400  20.190  0.00  0.00    +0.000 A 
ATOM      7  C   UNL     1       1.844   7.156  19.881  0.00  0.00    +0.000 A 
ATOM      8  N   UNL     1       2.486   6.910  18.710  0.00  0.00    +0.000 NA
BRANCH   5   9
ATOM      9  C   UNL     1       0.753  10.747  19.283  0.00  0.00    +0.000 C 
ATOM     10  O   UNL     1       1.490  11.702  19.506  0.00  0.00    +0.000 OA
ATOM     11  N   UNL     1      -0.601  10.861  19.041  0.00  0.00    +0.000 N 
ATOM     12  H   UNL     1      -1.120  10.059  18.710  0.00  0.00    +0.000 HD
BRANCH  11  13
ATOM     13  C   UNL     1      -1.349  12.137  19.081  0.00  0.00    +0.000 C 
ATOM     14  C   UNL     1      -0.691  13.193  18.176  0.00  0.00    +0.000 C 
ATOM     15  C   UNL     1      -2.787  11.875  18.586  0.00  0.00    +0.000 C 
ATOM     16  C   UNL     1      -1.439  12.683  20.515  0.00  0.00    +0.000 C 
ENDBRANCH  11  13
ENDBRANCH   5   9
BRANCH   6  17
ATOM     17  C   UNL     1       0.821   8.697  21.502  0.00  0.00    +0.000 C 
ATOM     18  N   UNL     1       0.420   8.874  22.581  0.00  0.00    +0.000 NA
ENDBRANCH   6  17
ENDBRANCH   1   7
BRANCH   1  19
ATOM     19  C   UNL     1       2.306   4.867  20.369  0.00  0.00    +0.000 A 
ATOM     20  C   UNL     1       1.500   3.741  20.157  0.00  0.00    +0.000 A 
ATOM     21  C   UNL     1       2.031   2.547  19.687  0.00  0.00    +0.000 A 
ATOM     22  C   UNL     1       3.375   2.483  19.352  0.00  0.00    +0.000 A 
ATOM     23  C   UNL     1       4.204   3.592  19.551  0.00  0.00    +0.000 A 
ATOM     24  C   UNL     1       3.680   4.788  20.076  0.00  0.00    +0.000 A 
BRANCH  23  25
ATOM     25  N   UNL     1       5.553   3.464  19.146  0.00  0.00    +0.000 N 
ATOM     26  H   UNL     1       5.909   2.566  18.831  0.00  0.00    +0.000 HD
BRANCH  25  27
ATOM     27  S   UNL     1       6.394   4.780  18.494  0.00  0.00    +0.000 S 
ATOM     28  O   UNL     1       5.636   5.956  18.848  0.00  0.00    +0.000 OA
ATOM     29  O   UNL     1       7.793   4.650  18.855  0.00  0.00    +0.000 OA
BRANCH  27  30
ATOM     30  C   UNL     1       6.256   4.562  16.726  0.00  0.00    +0.000 A 
ATOM     31  C   UNL     1       7.315   4.915  15.885  0.00  0.00    +0.000 A 
ATOM     32  C   UNL     1       7.221   4.659  14.510  0.00  0.00    +0.000 A 
ATOM     33  C   UNL     1       6.080   4.045  13.991  0.00  0.00    +0.000 A 
ATOM     34 CL   UNL     1       5.975   3.713  12.307  0.00  0.00    +0.000 Cl
ATOM     35  C   UNL     1       5.027   3.684  14.833  0.00  0.00    +0.000 A 
ATOM     36  C   UNL     1       5.118   3.935  16.204  0.00  0.00    +0.000 A 
ENDBRANCH  27  30
ENDBRANCH  25  27
ENDBRANCH  23  25
ENDBRANCH   1  19
TORSDOF 8
ENDMDL
MODEL 5
REMARK VINA RESULT:      -7.7      2.087      2.662
REMARK  Name = 
REMARK  12 active torsions:
REMARK  status: ('A' for Active; 'I' for Inactive)
REMARK    1  A    between atoms: C_1  and  C_2
REMARK    2  A    between atoms: C_4  and  C_5
REMARK    3  A    between atoms: N_7  and  C_8
REMARK    4  A    between atoms: C_8  and  C_9
REMARK    5  A    between atoms: C_8  and  C_10
REMARK    6  A    between atoms: C_8  and  C_11
REMARK    7  A    between atoms: C_12  and  C_13
REMARK    8  A    between atoms: C_15  and  O_16
REMARK    9  A    between atoms: O_16  and  C_17
REMARK   10  A    between atoms: C_21  and  N_22
REMARK   11  A    between atoms: N_22  and  S_23
REMARK   12  A    between atoms: S_23  and  C_26
REMARK                            x       y       z     vdW  Elec       q    Type
REMARK                         _______ _______ _______ _____ _____    ______ ____
ROOT
ATOM      1  O   UNL     1      -0.060  11.068  18.865  0.00  0.00    +0.000 OA
ENDROOT
BRANCH   1   7
ATOM      2  C   UNL     1      -2.897   9.672  15.358  0.00  0.00    +0.000 C 
ATOM      3  C   UNL     1      -2.815  10.290  16.718  0.00  0.00    +0.000 A 
ATOM      4  C   UNL     1      -3.890  10.908  17.320  0.00  0.00    +0.000 A 
ATOM      5  C   UNL     1      -3.685  11.625  18.512  0.00  0.00    +0.000 A 
ATOM      6  C   UNL     1      -2.383  11.773  19.020  0.00  0.00    +0.000 A 
ATOM      7  C   UNL     1      -1.377  11.040  18.395  0.00  0.00    +0.000 A 
ATOM      8  N   UNL     1      -1.605  10.271  17.300  0.00  0.00    +0.000 NA
BRANCH   5   9
ATOM      9  C   UNL     1      -4.915  12.233  19.103  0.00  0.00    +0.000 C 
ATOM     10  O   UNL     1      -5.778  12.647  18.336  0.00  0.00    +0.000 OA
ATOM     11  N   UNL     1      -5.043  12.233  20.477  0.00  0.00    +0.000 N 
ATOM     12  H   UNL     1      -4.368  11.737  21.043  0.00  0.00    +0.000 HD
BRANCH  11  13
ATOM     13  C   UNL     1      -6.206  12.787  21.204  0.00  0.00    +0.000 C 
ATOM     14  C   UNL     1      -7.411  11.834  21.132  0.00  0.00    +0.000 C 
ATOM     15  C   UNL     1      -5.808  12.985  22.682  0.00  0.00    +0.000 C 
ATOM     16  C   UNL     1      -6.611  14.159  20.640  0.00  0.00    +0.000 C 
ENDBRANCH  11  13
ENDBRANCH   5   9
BRANCH   6  17
ATOM     17  C   UNL     1      -2.084  12.736  20.030  0.00  0.00    +0.000 C 
ATOM     18  N   UNL     1      -1.796  13.477  20.881  0.00  0.00    +0.000 NA
ENDBRANCH   6  17
ENDBRANCH   1   7
BRANCH   1  19
ATOM     19  C   UNL     1       0.370   9.987  19.632  0.00  0.00    +0.000 A 
ATOM     20  C   UNL     1      -0.323   9.578  20.779  0.00  0.00    +0.000 A 
ATOM     21  C   UNL     1       0.069   8.460  21.504  0.00  0.00    +0.000 A 
ATOM     22  C   UNL     1       1.128   7.688  21.048  0.00  0.00    +0.000 A 
ATOM     23  C   UNL     1       1.837   8.071  19.905  0.00  0.00    +0.000 A 
ATOM     24  C   UNL     1       1.475   9.232  19.197  0.00  0.00    +0.000 A 
BRANCH  23  25
ATOM     25  N   UNL     1       2.875   7.210  19.478  0.00  0.00    +0.000 N 
ATOM     26  H   UNL     1       3.787   7.249  19.925  0.00  0.00    +0.000 HD
BRANCH  25  27
ATOM     27  S   UNL     1       2.529   5.698  18.800  0.00  0.00    +0.000 S 
ATOM     28  O   UNL     1       2.697   4.735  19.862  0.00  0.00    +0.000 OA
ATOM     29  O   UNL     1       1.280   5.802  18.070  0.00  0.00    +0.000 OA
BRANCH  27  30
ATOM     30  C   UNL     1       3.842   5.432  17.618  0.00  0.00    +0.000 A 
ATOM     31  C   UNL     1       4.181   4.136  17.219  0.00  0.00    +0.000 A 
ATOM     32  C   UNL     1       5.156   3.951  16.229  0.00  0.00    +0.000 A 
ATOM     33  C   UNL     1       5.772   5.057  15.640  0.00  0.00    +0.000 A 
ATOM     34 CL   UNL     1       6.952   4.828  14.411  0.00  0.00    +0.000 Cl
ATOM     35  C   UNL     1       5.425   6.351  16.032  0.00  0.00    +0.000 A 
ATOM     36  C   UNL     1       4.453   6.540  17.017  0.00  0.00    +0.000 A 
ENDBRANCH  27  30
ENDBRANCH  25  27
ENDBRANCH  23  25
ENDBRANCH   1  19
TORSDOF 8
ENDMDL
MODEL 6
REMARK VINA RESULT:      -7.7      0.840      1.263
REMARK  Name = 
REMARK  12 active torsions:
REMARK  status: ('A' for Active; 'I' for Inactive)
REMARK    1  A    between atoms: C_1  and  C_2
REMARK    2  A    between atoms: C_4  and  C_5
REMARK    3  A    between atoms: N_7  and  C_8
REMARK    4  A    between atoms: C_8  and  C_9
REMARK    5  A    between atoms: C_8  and  C_10
REMARK    6  A    between atoms: C_8  and  C_11
REMARK    7  A    between atoms: C_12  and  C_13
REMARK    8  A    between atoms: C_15  and  O_16
REMARK    9  A    between atoms: O_16  and  C_17
REMARK   10  A    between atoms: C_21  and  N_22
REMARK   11  A    between atoms: N_22  and  S_23
REMARK   12  A    between atoms: S_23  and  C_26
REMARK                            x       y       z     vdW  Elec       q    Type
REMARK                         _______ _______ _______ _____ _____    ______ ____
ROOT
ATOM      1  O   UNL     1       1.559   9.786  18.475  0.00  0.00    +0.000 OA
ENDROOT
BRANCH   1   7
ATOM      2  C   UNL     1      -2.620   9.882  16.280  0.00  0.00    +0.000 C 
ATOM      3  C   UNL     1      -1.849  10.272  17.503  0.00  0.00    +0.000 A 
ATOM      4  C   UNL     1      -2.341  11.153  18.442  0.00  0.00    +0.000 A 
ATOM      5  C   UNL     1      -1.487  11.610  19.461  0.00  0.00    +0.000 A 
ATOM      6  C   UNL     1      -0.132  11.234  19.454  0.00  0.00    +0.000 A 
ATOM      7  C   UNL     1       0.250  10.274  18.521  0.00  0.00    +0.000 A 
ATOM      8  N   UNL     1      -0.610   9.765  17.602  0.00  0.00    +0.000 NA
BRANCH   5   9
ATOM      9  C   UNL     1      -2.119  12.537  20.447  0.00  0.00    +0.000 C 
ATOM     10  O   UNL     1      -1.550  12.714  21.518  0.00  0.00    +0.000 OA
ATOM     11  N   UNL     1      -3.272  13.195  20.071  0.00  0.00    +0.000 N 
ATOM     12  H   UNL     1      -3.603  13.123  19.118  0.00  0.00    +0.000 HD
BRANCH  11  13
ATOM     13  C   UNL     1      -4.005  14.149  20.933  0.00  0.00    +0.000 C 
ATOM     14  C   UNL     1      -4.311  13.531  22.308  0.00  0.00    +0.000 C 
ATOM     15  C   UNL     1      -3.126  15.403  21.129  0.00  0.00    +0.000 C 
ATOM     16  C   UNL     1      -5.319  14.597  20.274  0.00  0.00    +0.000 C 
ENDBRANCH  11  13
ENDBRANCH   5   9
BRANCH   6  17
ATOM     17  C   UNL     1       0.830  11.909  20.264  0.00  0.00    +0.000 C 
ATOM     18  N   UNL     1       1.584  12.435  20.979  0.00  0.00    +0.000 NA
ENDBRANCH   6  17
ENDBRANCH   1   7
BRANCH   1  19
ATOM     19  C   UNL     1       1.808   8.560  19.090  0.00  0.00    +0.000 A 
ATOM     20  C   UNL     1       1.392   8.298  20.402  0.00  0.00    +0.000 A 
ATOM     21  C   UNL     1       1.582   7.054  20.989  0.00  0.00    +0.000 A 
ATOM     22  C   UNL     1       2.134   6.024  20.241  0.00  0.00    +0.000 A 
ATOM     23  C   UNL     1       2.557   6.256  18.929  0.00  0.00    +0.000 A 
ATOM     24  C   UNL     1       2.413   7.529  18.347  0.00  0.00    +0.000 A 
BRANCH  23  25
ATOM     25  N   UNL     1       3.070   5.147  18.216  0.00  0.00    +0.000 N 
ATOM     26  H   UNL     1       2.779   4.976  17.258  0.00  0.00    +0.000 HD
BRANCH  25  27
ATOM     27  S   UNL     1       4.601   4.518  18.570  0.00  0.00    +0.000 S 
ATOM     28  O   UNL     1       5.234   5.472  19.449  0.00  0.00    +0.000 OA
ATOM     29  O   UNL     1       4.444   3.129  18.957  0.00  0.00    +0.000 OA
BRANCH  27  30
ATOM     30  C   UNL     1       5.470   4.564  17.010  0.00  0.00    +0.000 A 
ATOM     31  C   UNL     1       4.811   4.226  15.824  0.00  0.00    +0.000 A 
ATOM     32  C   UNL     1       5.484   4.349  14.600  0.00  0.00    +0.000 A 
ATOM     33  C   UNL     1       6.799   4.818  14.571  0.00  0.00    +0.000 A 
ATOM     34 CL   UNL     1       7.616   4.988  13.067  0.00  0.00    +0.000 Cl
ATOM     35  C   UNL     1       7.452   5.165  15.754  0.00  0.00    +0.000 A 
ATOM     36  C   UNL     1       6.785   5.045  16.976  0.00  0.00    +0.000 A 
ENDBRANCH  27  30
ENDBRANCH  25  27
ENDBRANCH  23  25
ENDBRANCH   1  19
TORSDOF 8
ENDMDL
MODEL 7
REMARK VINA RESULT:      -7.7      2.382      2.992
REMARK  Name = 
REMARK  12 active torsions:
REMARK  status: ('A' for Active; 'I' for Inactive)
REMARK    1  A    between atoms: C_1  and  C_2
REMARK    2  A    between atoms: C_4  and  C_5
REMARK    3  A    between atoms: N_7  and  C_8
REMARK    4  A    between atoms: C_8  and  C_9
REMARK    5  A    between atoms: C_8  and  C_10
REMARK    6  A    between atoms: C_8  and  C_11
REMARK    7  A    between atoms: C_12  and  C_13
REMARK    8  A    between atoms: C_15  and  O_16
REMARK    9  A    between atoms: O_16  and  C_17
REMARK   10  A    between atoms: C_21  and  N_22
REMARK   11  A    between atoms: N_22  and  S_23
REMARK   12  A    between atoms: S_23  and  C_26
REMARK                            x       y       z     vdW  Elec       q    Type
REMARK                         _______ _______ _______ _____ _____    ______ ____
ROOT
ATOM      1  O   UNL     1       0.548   9.984  20.564  0.00  0.00    +0.000 OA
ENDROOT
BRANCH   1   7
ATOM      2  C   UNL     1      -2.413  10.755  16.968  0.00  0.00    +0.000 C 
ATOM      3  C   UNL     1      -1.590  11.373  18.055  0.00  0.00    +0.000 A 
ATOM      4  C   UNL     1      -1.347  12.728  18.124  0.00  0.00    +0.000 A 
ATOM      5  C   UNL     1      -0.416  13.208  19.062  0.00  0.00    +0.000 A 
ATOM      6  C   UNL     1       0.310  12.297  19.849  0.00  0.00    +0.000 A 
ATOM      7  C   UNL     1      -0.068  10.958  19.774  0.00  0.00    +0.000 A 
ATOM      8  N   UNL     1      -1.039  10.520  18.932  0.00  0.00    +0.000 NA
BRANCH   5   9
ATOM      9  C   UNL     1      -0.244  14.691  19.080  0.00  0.00    +0.000 C 
ATOM     10  O   UNL     1       0.819  15.152  18.679  0.00  0.00    +0.000 OA
ATOM     11  N   UNL     1      -1.314  15.464  19.482  0.00  0.00    +0.000 N 
ATOM     12  H   UNL     1      -2.211  15.028  19.652  0.00  0.00    +0.000 HD
BRANCH  11  13
ATOM     13  C   UNL     1      -1.298  16.942  19.541  0.00  0.00    +0.000 C 
ATOM     14  C   UNL     1      -0.934  17.547  18.175  0.00  0.00    +0.000 C 
ATOM     15  C   UNL     1      -2.704  17.429  19.949  0.00  0.00    +0.000 C 
ATOM     16  C   UNL     1      -0.302  17.444  20.600  0.00  0.00    +0.000 C 
ENDBRANCH  11  13
ENDBRANCH   5   9
BRANCH   6  17
ATOM     17  C   UNL     1       1.469  12.702  20.577  0.00  0.00    +0.000 C 
ATOM     18  N   UNL     1       2.411  13.093  21.138  0.00  0.00    +0.000 NA
ENDBRANCH   6  17
ENDBRANCH   1   7
BRANCH   1  19
ATOM     19  C   UNL     1       1.220   8.955  19.906  0.00  0.00    +0.000 A 
ATOM     20  C   UNL     1       1.708   9.113  18.602  0.00  0.00    +0.000 A 
ATOM     21  C   UNL     1       2.434   8.111  17.973  0.00  0.00    +0.000 A 
ATOM     22  C   UNL     1       2.746   6.953  18.671  0.00  0.00    +0.000 A 
ATOM     23  C   UNL     1       2.274   6.769  19.975  0.00  0.00    +0.000 A 
ATOM     24  C   UNL     1       1.493   7.761  20.598  0.00  0.00    +0.000 A 
BRANCH  23  25
ATOM     25  N   UNL     1       2.669   5.583  20.637  0.00  0.00    +0.000 N 
ATOM     26  H   UNL     1       2.539   5.491  21.640  0.00  0.00    +0.000 HD
BRANCH  25  27
ATOM     27  S   UNL     1       2.681   4.097  19.827  0.00  0.00    +0.000 S 
ATOM     28  O   UNL     1       3.125   3.118  20.791  0.00  0.00    +0.000 OA
ATOM     29  O   UNL     1       1.416   3.947  19.132  0.00  0.00    +0.000 OA
BRANCH  27  30
ATOM     30  C   UNL     1       3.969   4.270  18.602  0.00  0.00    +0.000 A 
ATOM     31  C   UNL     1       5.273   4.595  18.988  0.00  0.00    +0.000 A 
ATOM     32  C   UNL     1       6.288   4.644  18.023  0.00  0.00    +0.000 A 
ATOM     33  C   UNL     1       5.997   4.358  16.689  0.00  0.00    +0.000 A 
ATOM     34 CL   UNL     1       7.248   4.398  15.509  0.00  0.00    +0.000 Cl
ATOM     35  C   UNL     1       4.697   4.023  16.305  0.00  0.00    +0.000 A 
ATOM     36  C   UNL     1       3.683   3.971  17.264  0.00  0.00    +0.000 A 
ENDBRANCH  27  30
ENDBRANCH  25  27
ENDBRANCH  23  25
ENDBRANCH   1  19
TORSDOF 8
ENDMDL
MODEL 8
REMARK VINA RESULT:      -7.6      1.824      2.428
REMARK  Name = 
REMARK  12 active torsions:
REMARK  status: ('A' for Active; 'I' for Inactive)
REMARK    1  A    between atoms: C_1  and  C_2
REMARK    2  A    between atoms: C_4  and  C_5
REMARK    3  A    between atoms: N_7  and  C_8
REMARK    4  A    between atoms: C_8  and  C_9
REMARK    5  A    between atoms: C_8  and  C_10
REMARK    6  A    between atoms: C_8  and  C_11
REMARK    7  A    between atoms: C_12  and  C_13
REMARK    8  A    between atoms: C_15  and  O_16
REMARK    9  A    between atoms: O_16  and  C_17
REMARK   10  A    between atoms: C_21  and  N_22
REMARK   11  A    between atoms: N_22  and  S_23
REMARK   12  A    between atoms: S_23  and  C_26
REMARK                            x       y       z     vdW  Elec       q    Type
REMARK                         _______ _______ _______ _____ _____    ______ ____
ROOT
ATOM      1  O   UNL     1       0.526  10.438  20.719  0.00  0.00    +0.000 OA
ENDROOT
BRANCH   1   7
ATOM      2  C   UNL     1      -2.413  10.646  17.030  0.00  0.00    +0.000 C 
ATOM      3  C   UNL     1      -2.181  11.033  18.456  0.00  0.00    +0.000 A 
ATOM      4  C   UNL     1      -2.967  11.955  19.115  0.00  0.00    +0.000 A 
ATOM      5  C   UNL     1      -2.574  12.402  20.388  0.00  0.00    +0.000 A 
ATOM      6  C   UNL     1      -1.349  11.974  20.928  0.00  0.00    +0.000 A 
ATOM      7  C   UNL     1      -0.668  10.977  20.232  0.00  0.00    +0.000 A 
ATOM      8  N   UNL     1      -1.109  10.481  19.048  0.00  0.00    +0.000 NA
BRANCH   5   9
ATOM      9  C   UNL     1      -3.506  13.376  21.031  0.00  0.00    +0.000 C 
ATOM     10  O   UNL     1      -3.364  14.566  20.773  0.00  0.00    +0.000 OA
ATOM     11  N   UNL     1      -4.518  12.877  21.825  0.00  0.00    +0.000 N 
ATOM     12  H   UNL     1      -4.673  11.878  21.871  0.00  0.00    +0.000 HD
BRANCH  11  13
ATOM     13  C   UNL     1      -5.522  13.714  22.518  0.00  0.00    +0.000 C 
ATOM     14  C   UNL     1      -6.420  14.450  21.509  0.00  0.00    +0.000 C 
ATOM     15  C   UNL     1      -6.399  12.797  23.397  0.00  0.00    +0.000 C 
ATOM     16  C   UNL     1      -4.847  14.741  23.440  0.00  0.00    +0.000 C 
ENDBRANCH  11  13
ENDBRANCH   5   9
BRANCH   6  17
ATOM     17  C   UNL     1      -0.762  12.629  22.052  0.00  0.00    +0.000 C 
ATOM     18  N   UNL     1      -0.317  13.220  22.951  0.00  0.00    +0.000 NA
ENDBRANCH   6  17
ENDBRANCH   1   7
BRANCH   1  19
ATOM     19  C   UNL     1       1.101   9.394  19.995  0.00  0.00    +0.000 A 
ATOM     20  C   UNL     1       1.431   9.535  18.640  0.00  0.00    +0.000 A 
ATOM     21  C   UNL     1       2.064   8.517  17.939  0.00  0.00    +0.000 A 
ATOM     22  C   UNL     1       2.441   7.361  18.605  0.00  0.00    +0.000 A 
ATOM     23  C   UNL     1       2.127   7.194  19.958  0.00  0.00    +0.000 A 
ATOM     24  C   UNL     1       1.440   8.202  20.660  0.00  0.00    +0.000 A 
BRANCH  23  25
ATOM     25  N   UNL     1       2.583   6.008  20.579  0.00  0.00    +0.000 N 
ATOM     26  H   UNL     1       2.555   5.918  21.591  0.00  0.00    +0.000 HD
BRANCH  25  27
ATOM     27  S   UNL     1       2.508   4.520  19.775  0.00  0.00    +0.000 S 
ATOM     28  O   UNL     1       2.816   3.515  20.764  0.00  0.00    +0.000 OA
ATOM     29  O   UNL     1       1.272   4.475  19.017  0.00  0.00    +0.000 OA
BRANCH  27  30
ATOM     30  C   UNL     1       3.868   4.572  18.618  0.00  0.00    +0.000 A 
ATOM     31  C   UNL     1       5.148   4.931  19.049  0.00  0.00    +0.000 A 
ATOM     32  C   UNL     1       6.219   4.885  18.146  0.00  0.00    +0.000 A 
ATOM     33  C   UNL     1       6.005   4.471  16.830  0.00  0.00    +0.000 A 
ATOM     34 CL   UNL     1       7.324   4.395  15.729  0.00  0.00    +0.000 Cl
ATOM     35  C   UNL     1       4.728   4.103  16.403  0.00  0.00    +0.000 A 
ATOM     36  C   UNL     1       3.659   4.146  17.301  0.00  0.00    +0.000 A 
ENDBRANCH  27  30
ENDBRANCH  25  27
ENDBRANCH  23  25
ENDBRANCH   1  19
TORSDOF 8
ENDMDL
MODEL 9
REMARK VINA RESULT:      -7.6      2.089      3.797
REMARK  Name = 
REMARK  12 active torsions:
REMARK  status: ('A' for Active; 'I' for Inactive)
REMARK    1  A    between atoms: C_1  and  C_2
REMARK    2  A    between atoms: C_4  and  C_5
REMARK    3  A    between atoms: N_7  and  C_8
REMARK    4  A    between atoms: C_8  and  C_9
REMARK    5  A    between atoms: C_8  and  C_10
REMARK    6  A    between atoms: C_8  and  C_11
REMARK    7  A    between atoms: C_12  and  C_13
REMARK    8  A    between atoms: C_15  and  O_16
REMARK    9  A    between atoms: O_16  and  C_17
REMARK   10  A    between atoms: C_21  and  N_22
REMARK   11  A    between atoms: N_22  and  S_23
REMARK   12  A    between atoms: S_23  and  C_26
REMARK                            x       y       z     vdW  Elec       q    Type
REMARK                         _______ _______ _______ _____ _____    ______ ____
ROOT
ATOM      1  O   UNL     1       1.829   6.099  20.910  0.00  0.00    +0.000 OA
ENDROOT
BRANCH   1   7
ATOM      2  C   UNL     1       3.569   7.660  16.808  0.00  0.00    +0.000 C 
ATOM      3  C   UNL     1       2.620   7.922  17.936  0.00  0.00    +0.000 A 
ATOM      4  C   UNL     1       1.998   9.139  18.117  0.00  0.00    +0.000 A 
ATOM      5  C   UNL     1       1.271   9.365  19.298  0.00  0.00    +0.000 A 
ATOM      6  C   UNL     1       1.262   8.386  20.307  0.00  0.00    +0.000 A 
ATOM      7  C   UNL     1       1.842   7.158  19.998  0.00  0.00    +0.000 A 
ATOM      8  N   UNL     1       2.459   6.919  18.813  0.00  0.00    +0.000 NA
BRANCH   5   9
ATOM      9  C   UNL     1       0.609  10.700  19.387  0.00  0.00    +0.000 C 
ATOM     10  O   UNL     1       1.269  11.643  19.810  0.00  0.00    +0.000 OA
ATOM     11  N   UNL     1      -0.686  10.815  18.924  0.00  0.00    +0.000 N 
ATOM     12  H   UNL     1      -1.118  10.036  18.445  0.00  0.00    +0.000 HD
BRANCH  11  13
ATOM     13  C   UNL     1      -1.466  12.072  18.937  0.00  0.00    +0.000 C 
ATOM     14  C   UNL     1      -1.638  12.603  20.370  0.00  0.00    +0.000 C 
ATOM     15  C   UNL     1      -0.710  13.124  18.097  0.00  0.00    +0.000 C 
ATOM     16  C   UNL     1      -2.851  11.872  18.300  0.00  0.00    +0.000 C 
ENDBRANCH  11  13
ENDBRANCH   5   9
BRANCH   6  17
ATOM     17  C   UNL     1       0.814   8.685  21.629  0.00  0.00    +0.000 C 
ATOM     18  N   UNL     1       0.415   8.983  22.682  0.00  0.00    +0.000 NA
ENDBRANCH   6  17
ENDBRANCH   1   7
BRANCH   1  19
ATOM     19  C   UNL     1       2.343   4.876  20.481  0.00  0.00    +0.000 A 
ATOM     20  C   UNL     1       1.518   3.759  20.290  0.00  0.00    +0.000 A 
ATOM     21  C   UNL     1       2.021   2.562  19.798  0.00  0.00    +0.000 A 
ATOM     22  C   UNL     1       3.354   2.485  19.422  0.00  0.00    +0.000 A 
ATOM     23  C   UNL     1       4.200   3.584  19.599  0.00  0.00    +0.000 A 
ATOM     24  C   UNL     1       3.706   4.784  20.145  0.00  0.00    +0.000 A 
BRANCH  23  25
ATOM     25  N   UNL     1       5.534   3.444  19.151  0.00  0.00    +0.000 N 
ATOM     26  H   UNL     1       5.875   2.541  18.834  0.00  0.00    +0.000 HD
BRANCH  25  27
ATOM     27  S   UNL     1       6.362   4.748  18.459  0.00  0.00    +0.000 S 
ATOM     28  O   UNL     1       5.548   5.915  18.704  0.00  0.00    +0.000 OA
ATOM     29  O   UNL     1       7.745   4.691  18.892  0.00  0.00    +0.000 OA
BRANCH  27  30
ATOM     30  C   UNL     1       6.316   4.420  16.703  0.00  0.00    +0.000 A 
ATOM     31  C   UNL     1       5.211   3.782  16.132  0.00  0.00    +0.000 A 
ATOM     32  C   UNL     1       5.155   3.609  14.742  0.00  0.00    +0.000 A 
ATOM     33  C   UNL     1       6.194   4.082  13.938  0.00  0.00    +0.000 A 
ATOM     34 CL   UNL     1       6.114   3.886  12.231  0.00  0.00    +0.000 Cl
ATOM     35  C   UNL     1       7.292   4.727  14.508  0.00  0.00    +0.000 A 
ATOM     36  C   UNL     1       7.350   4.904  15.892  0.00  0.00    +0.000 A 
ENDBRANCH  27  30
ENDBRANCH  25  27
ENDBRANCH  23  25
ENDBRANCH   1  19
TORSDOF 8
ENDMDL
