MODEL 1
REMARK VINA RESULT:      -9.1      0.000      0.000
REMARK  Name = 
REMARK  9 active torsions:
REMARK  status: ('A' for Active; 'I' for Inactive)
REMARK    1  A    between atoms: C_1  and  C_2
REMARK    2  A    between atoms: C_5  and  N_6
REMARK    3  A    between atoms: C_7  and  C_9
REMARK    4  A    between atoms: C_13  and  C_14
REMARK    5  A    between atoms: C_14  and  C_15
REMARK    6  A    between atoms: C_14  and  C_16
REMARK    7  A    between atoms: C_14  and  C_17
REMARK    8  A    between atoms: C_21  and  C_22
REMARK    9  A    between atoms: C_29  and  N_30
REMARK                            x       y       z     vdW  Elec       q    Type
REMARK                         _______ _______ _______ _____ _____    ______ ____
ROOT
ATOM      1  C   UNL     1      -0.620  14.151  18.980  0.00  0.00    +0.000 C 
ATOM      2  C   UNL     1       0.009  12.788  18.820  0.00  0.00    +0.000 A 
ATOM      3  C   UNL     1       1.379  12.745  18.505  0.00  0.00    +0.000 A 
ATOM      4  C   UNL     1       2.026  11.533  18.264  0.00  0.00    +0.000 A 
ATOM      5  C   UNL     1       1.331  10.335  18.360  0.00  0.00    +0.000 A 
ATOM      6  C   UNL     1      -0.021  10.368  18.693  0.00  0.00    +0.000 A 
ATOM      7  C   UNL     1      -0.723  11.576  18.905  0.00  0.00    +0.000 A 
ENDROOT
BRANCH   7   8
ATOM      8  C   UNL     1      -2.199  11.507  19.022  0.00  0.00    +0.000 A 
ATOM      9  C   UNL     1      -2.930  10.954  17.972  0.00  0.00    +0.000 A 
ATOM     10  C   UNL     1      -4.218  11.434  17.899  0.00  0.00    +0.000 A 
ATOM     11  N   UNL     1      -5.209  11.287  16.952  0.00  0.00    +0.000 N 
ATOM     12  C   UNL     1      -5.845  12.503  16.985  0.00  0.00    +0.000 A 
ATOM     13  N   UNL     1      -5.851  12.948  18.222  0.00  0.00    +0.000 NA
ATOM     14  C   UNL     1      -4.761  12.323  18.815  0.00  0.00    +0.000 A 
ATOM     15  C   UNL     1      -4.112  12.474  20.072  0.00  0.00    +0.000 A 
ATOM     16  N   UNL     1      -2.784  12.107  20.090  0.00  0.00    +0.000 NA
ATOM     17  H   UNL     1      -5.770  10.448  16.945  0.00  0.00    +0.000 HD
BRANCH  15  18
ATOM     18  N   UNL     1      -4.694  12.964  21.221  0.00  0.00    +0.000 N 
ATOM     19  C   UNL     1      -6.036  12.540  21.626  0.00  0.00    +0.000 C 
ATOM     20  C   UNL     1      -6.847  13.761  22.106  0.00  0.00    +0.000 C 
ATOM     21  O   UNL     1      -6.151  14.515  23.115  0.00  0.00    +0.000 OA
ATOM     22  C   UNL     1      -4.888  14.974  22.608  0.00  0.00    +0.000 C 
ATOM     23  C   UNL     1      -3.987  13.802  22.188  0.00  0.00    +0.000 C 
ENDBRANCH  15  18
ENDBRANCH   7   8
BRANCH   5  24
ATOM     24  N   UNL     1       1.891   9.071  18.107  0.00  0.00    +0.000 N 
ATOM     25  C   UNL     1       2.116   8.100  19.055  0.00  0.00    +0.000 C 
ATOM     26  O   UNL     1       1.850   8.158  20.249  0.00  0.00    +0.000 OA
ATOM     27  H   UNL     1       2.012   8.814  17.136  0.00  0.00    +0.000 HD
BRANCH  25  28
ATOM     28  C   UNL     1       2.735   6.843  18.568  0.00  0.00    +0.000 A 
ATOM     29  C   UNL     1       3.695   6.801  17.559  0.00  0.00    +0.000 A 
ATOM     30  C   UNL     1       4.251   5.569  17.274  0.00  0.00    +0.000 A 
ATOM     31  N   UNL     1       3.925   4.424  17.915  0.00  0.00    +0.000 NA
ATOM     32  C   UNL     1       2.990   4.471  18.896  0.00  0.00    +0.000 A 
ATOM     33  C   UNL     1       2.370   5.670  19.232  0.00  0.00    +0.000 A 
BRANCH  32  34
ATOM     34  C   UNL     1       2.654   3.183  19.660  0.00  0.00    +0.000 C 
ATOM     35  C   UNL     1       1.789   3.475  20.899  0.00  0.00    +0.000 C 
ATOM     36  C   UNL     1       1.849   2.233  18.736  0.00  0.00    +0.000 C 
BRANCH  34  37
ATOM     37  C   UNL     1       3.889   2.500  20.085  0.00  0.00    +0.000 C 
ATOM     38  N   UNL     1       4.870   1.973  20.425  0.00  0.00    +0.000 NA
ENDBRANCH  34  37
ENDBRANCH  32  34
ENDBRANCH  25  28
ENDBRANCH   5  24
TORSDOF 6
ENDMDL
MODEL 2
REMARK VINA RESULT:      -8.9      3.793     11.599
REMARK  Name = 
REMARK  9 active torsions:
REMARK  status: ('A' for Active; 'I' for Inactive)
REMARK    1  A    between atoms: C_1  and  C_2
REMARK    2  A    between atoms: C_5  and  N_6
REMARK    3  A    between atoms: C_7  and  C_9
REMARK    4  A    between atoms: C_13  and  C_14
REMARK    5  A    between atoms: C_14  and  C_15
REMARK    6  A    between atoms: C_14  and  C_16
REMARK    7  A    between atoms: C_14  and  C_17
REMARK    8  A    between atoms: C_21  and  C_22
REMARK    9  A    between atoms: C_29  and  N_30
REMARK                            x       y       z     vdW  Elec       q    Type
REMARK                         _______ _______ _______ _____ _____    ______ ____
ROOT
ATOM      1  C   UNL     1       3.700   1.944  18.323  0.00  0.00    +0.000 C 
ATOM      2  C   UNL     1       3.157   3.146  19.056  0.00  0.00    +0.000 A 
ATOM      3  C   UNL     1       1.833   3.071  19.524  0.00  0.00    +0.000 A 
ATOM      4  C   UNL     1       1.223   4.161  20.145  0.00  0.00    +0.000 A 
ATOM      5  C   UNL     1       1.928   5.342  20.340  0.00  0.00    +0.000 A 
ATOM      6  C   UNL     1       3.247   5.418  19.898  0.00  0.00    +0.000 A 
ATOM      7  C   UNL     1       3.887   4.350  19.229  0.00  0.00    +0.000 A 
ENDROOT
BRANCH   7   8
ATOM      8  C   UNL     1       5.202   4.618  18.601  0.00  0.00    +0.000 A 
ATOM      9  C   UNL     1       6.160   5.328  19.324  0.00  0.00    +0.000 A 
ATOM     10  C   UNL     1       7.052   6.003  18.523  0.00  0.00    +0.000 A 
ATOM     11  N   UNL     1       8.033   6.929  18.805  0.00  0.00    +0.000 N 
ATOM     12  C   UNL     1       7.993   7.757  17.711  0.00  0.00    +0.000 A 
ATOM     13  N   UNL     1       7.723   7.041  16.643  0.00  0.00    +0.000 NA
ATOM     14  C   UNL     1       7.049   5.932  17.138  0.00  0.00    +0.000 A 
ATOM     15  C   UNL     1       6.349   4.857  16.521  0.00  0.00    +0.000 A 
ATOM     16  N   UNL     1       5.369   4.278  17.297  0.00  0.00    +0.000 NA
ATOM     17  H   UNL     1       8.931   6.616  19.141  0.00  0.00    +0.000 HD
BRANCH  15  18
ATOM     18  N   UNL     1       6.563   4.390  15.242  0.00  0.00    +0.000 N 
ATOM     19  C   UNL     1       7.756   4.779  14.487  0.00  0.00    +0.000 C 
ATOM     20  C   UNL     1       7.368   5.113  13.032  0.00  0.00    +0.000 C 
ATOM     21  O   UNL     1       6.613   4.056  12.414  0.00  0.00    +0.000 OA
ATOM     22  C   UNL     1       5.414   3.800  13.161  0.00  0.00    +0.000 C 
ATOM     23  C   UNL     1       5.725   3.375  14.604  0.00  0.00    +0.000 C 
ENDBRANCH  15  18
ENDBRANCH   7   8
BRANCH   5  24
ATOM     24  N   UNL     1       1.388   6.499  20.927  0.00  0.00    +0.000 N 
ATOM     25  C   UNL     1       1.455   7.765  20.391  0.00  0.00    +0.000 C 
ATOM     26  O   UNL     1       1.960   8.089  19.323  0.00  0.00    +0.000 OA
ATOM     27  H   UNL     1       0.796   6.364  21.736  0.00  0.00    +0.000 HD
BRANCH  25  28
ATOM     28  C   UNL     1       0.831   8.846  21.191  0.00  0.00    +0.000 A 
ATOM     29  C   UNL     1       0.301   8.650  22.465  0.00  0.00    +0.000 A 
ATOM     30  C   UNL     1      -0.163   9.768  23.130  0.00  0.00    +0.000 A 
ATOM     31  N   UNL     1      -0.123  11.022  22.624  0.00  0.00    +0.000 NA
ATOM     32  C   UNL     1       0.394  11.206  21.384  0.00  0.00    +0.000 A 
ATOM     33  C   UNL     1       0.866  10.129  20.642  0.00  0.00    +0.000 A 
BRANCH  32  34
ATOM     34  C   UNL     1       0.485  12.633  20.826  0.00  0.00    +0.000 C 
ATOM     35  C   UNL     1      -0.023  13.668  21.844  0.00  0.00    +0.000 C 
ATOM     36  C   UNL     1       1.967  12.968  20.513  0.00  0.00    +0.000 C 
BRANCH  34  37
ATOM     37  C   UNL     1      -0.303  12.751  19.586  0.00  0.00    +0.000 C 
ATOM     38  N   UNL     1      -0.932  12.833  18.609  0.00  0.00    +0.000 NA
ENDBRANCH  34  37
ENDBRANCH  32  34
ENDBRANCH  25  28
ENDBRANCH   5  24
TORSDOF 6
ENDMDL
MODEL 3
REMARK VINA RESULT:      -8.9      3.946     11.604
REMARK  Name = 
REMARK  9 active torsions:
REMARK  status: ('A' for Active; 'I' for Inactive)
REMARK    1  A    between atoms: C_1  and  C_2
REMARK    2  A    between atoms: C_5  and  N_6
REMARK    3  A    between atoms: C_7  and  C_9
REMARK    4  A    between atoms: C_13  and  C_14
REMARK    5  A    between atoms: C_14  and  C_15
REMARK    6  A    between atoms: C_14  and  C_16
REMARK    7  A    between atoms: C_14  and  C_17
REMARK    8  A    between atoms: C_21  and  C_22
REMARK    9  A    between atoms: C_29  and  N_30
REMARK                            x       y       z     vdW  Elec       q    Type
REMARK                         _______ _______ _______ _____ _____    ______ ____
ROOT
ATOM      1  C   UNL     1       3.776   2.018  18.720  0.00  0.00    +0.000 C 
ATOM      2  C   UNL     1       3.224   3.272  19.351  0.00  0.00    +0.000 A 
ATOM      3  C   UNL     1       1.905   3.221  19.838  0.00  0.00    +0.000 A 
ATOM      4  C   UNL     1       1.286   4.353  20.367  0.00  0.00    +0.000 A 
ATOM      5  C   UNL     1       1.976   5.556  20.450  0.00  0.00    +0.000 A 
ATOM      6  C   UNL     1       3.290   5.610  19.990  0.00  0.00    +0.000 A 
ATOM      7  C   UNL     1       3.938   4.496  19.410  0.00  0.00    +0.000 A 
ENDROOT
BRANCH   7   8
ATOM      8  C   UNL     1       5.244   4.726  18.746  0.00  0.00    +0.000 A 
ATOM      9  C   UNL     1       6.233   5.425  19.435  0.00  0.00    +0.000 A 
ATOM     10  C   UNL     1       7.121   6.068  18.602  0.00  0.00    +0.000 A 
ATOM     11  N   UNL     1       8.128   6.977  18.845  0.00  0.00    +0.000 N 
ATOM     12  C   UNL     1       8.079   7.788  17.739  0.00  0.00    +0.000 A 
ATOM     13  N   UNL     1       7.768   7.061  16.690  0.00  0.00    +0.000 NA
ATOM     14  C   UNL     1       7.083   5.975  17.219  0.00  0.00    +0.000 A 
ATOM     15  C   UNL     1       6.345   4.907  16.636  0.00  0.00    +0.000 A 
ATOM     16  N   UNL     1       5.372   4.361  17.444  0.00  0.00    +0.000 NA
ATOM     17  H   UNL     1       9.027   6.650  19.166  0.00  0.00    +0.000 HD
BRANCH  15  18
ATOM     18  N   UNL     1       6.519   4.415  15.361  0.00  0.00    +0.000 N 
ATOM     19  C   UNL     1       7.682   4.796  14.557  0.00  0.00    +0.000 C 
ATOM     20  C   UNL     1       7.242   5.097  13.110  0.00  0.00    +0.000 C 
ATOM     21  O   UNL     1       6.474   4.023  12.539  0.00  0.00    +0.000 OA
ATOM     22  C   UNL     1       5.303   3.775  13.332  0.00  0.00    +0.000 C 
ATOM     23  C   UNL     1       5.666   3.382  14.773  0.00  0.00    +0.000 C 
ENDBRANCH  15  18
ENDBRANCH   7   8
BRANCH   5  24
ATOM     24  N   UNL     1       1.426   6.753  20.940  0.00  0.00    +0.000 N 
ATOM     25  C   UNL     1       1.423   7.956  20.270  0.00  0.00    +0.000 C 
ATOM     26  O   UNL     1       1.865   8.178  19.150  0.00  0.00    +0.000 OA
ATOM     27  H   UNL     1       0.878   6.688  21.787  0.00  0.00    +0.000 HD
BRANCH  25  28
ATOM     28  C   UNL     1       0.802   9.097  20.984  0.00  0.00    +0.000 A 
ATOM     29  C   UNL     1       0.206   8.986  22.238  0.00  0.00    +0.000 A 
ATOM     30  C   UNL     1      -0.248  10.152  22.823  0.00  0.00    +0.000 A 
ATOM     31  N   UNL     1      -0.140  11.376  22.256  0.00  0.00    +0.000 NA
ATOM     32  C   UNL     1       0.440  11.478  21.035  0.00  0.00    +0.000 A 
ATOM     33  C   UNL     1       0.908  10.348  20.372  0.00  0.00    +0.000 A 
BRANCH  32  34
ATOM     34  C   UNL     1       0.609  12.869  20.410  0.00  0.00    +0.000 C 
ATOM     35  C   UNL     1       1.647  12.853  19.275  0.00  0.00    +0.000 C 
ATOM     36  C   UNL     1      -0.743  13.329  19.806  0.00  0.00    +0.000 C 
BRANCH  34  37
ATOM     37  C   UNL     1       1.030  13.844  21.433  0.00  0.00    +0.000 C 
ATOM     38  N   UNL     1       1.370  14.621  22.231  0.00  0.00    +0.000 NA
ENDBRANCH  34  37
ENDBRANCH  32  34
ENDBRANCH  25  28
ENDBRANCH   5  24
TORSDOF 6
ENDMDL
MODEL 4
REMARK VINA RESULT:      -8.8      1.216      2.251
REMARK  Name = 
REMARK  9 active torsions:
REMARK  status: ('A' for Active; 'I' for Inactive)
REMARK    1  A    between atoms: C_1  and  C_2
REMARK    2  A    between atoms: C_5  and  N_6
REMARK    3  A    between atoms: C_7  and  C_9
REMARK    4  A    between atoms: C_13  and  C_14
REMARK    5  A    between atoms: C_14  and  C_15
REMARK    6  A    between atoms: C_14  and  C_16
REMARK    7  A    between atoms: C_14  and  C_17
REMARK    8  A    between atoms: C_21  and  C_22
REMARK    9  A    between atoms: C_29  and  N_30
REMARK                            x       y       z     vdW  Elec       q    Type
REMARK                         _______ _______ _______ _____ _____    ______ ____
ROOT
ATOM      1  C   UNL     1      -0.283  13.784  18.966  0.00  0.00    +0.000 C 
ATOM      2  C   UNL     1       0.230  12.378  18.772  0.00  0.00    +0.000 A 
ATOM      3  C   UNL     1       1.579  12.231  18.402  0.00  0.00    +0.000 A 
ATOM      4  C   UNL     1       2.119  10.974  18.127  0.00  0.00    +0.000 A 
ATOM      5  C   UNL     1       1.335   9.833  18.242  0.00  0.00    +0.000 A 
ATOM      6  C   UNL     1       0.004   9.969  18.629  0.00  0.00    +0.000 A 
ATOM      7  C   UNL     1      -0.591  11.226  18.877  0.00  0.00    +0.000 A 
ENDROOT
BRANCH   7   8
ATOM      8  C   UNL     1      -2.062  11.272  19.053  0.00  0.00    +0.000 A 
ATOM      9  C   UNL     1      -2.873  10.716  18.066  0.00  0.00    +0.000 A 
ATOM     10  C   UNL     1      -4.126  11.284  18.012  0.00  0.00    +0.000 A 
ATOM     11  N   UNL     1      -5.164  11.158  17.114  0.00  0.00    +0.000 N 
ATOM     12  C   UNL     1      -5.709  12.417  17.099  0.00  0.00    +0.000 A 
ATOM     13  N   UNL     1      -5.633  12.929  18.307  0.00  0.00    +0.000 NA
ATOM     14  C   UNL     1      -4.567  12.260  18.894  0.00  0.00    +0.000 A 
ATOM     15  C   UNL     1      -3.857  12.434  20.115  0.00  0.00    +0.000 A 
ATOM     16  N   UNL     1      -2.559  11.972  20.106  0.00  0.00    +0.000 NA
ATOM     17  H   UNL     1      -5.782  10.364  17.176  0.00  0.00    +0.000 HD
BRANCH  15  18
ATOM     18  N   UNL     1      -4.355  13.028  21.254  0.00  0.00    +0.000 N 
ATOM     19  C   UNL     1      -5.683  12.683  21.766  0.00  0.00    +0.000 C 
ATOM     20  C   UNL     1      -6.426  13.965  22.196  0.00  0.00    +0.000 C 
ATOM     21  O   UNL     1      -5.649  14.766  23.103  0.00  0.00    +0.000 OA
ATOM     22  C   UNL     1      -4.404  15.141  22.493  0.00  0.00    +0.000 C 
ATOM     23  C   UNL     1      -3.566  13.910  22.113  0.00  0.00    +0.000 C 
ENDBRANCH  15  18
ENDBRANCH   7   8
BRANCH   5  24
ATOM     24  N   UNL     1       1.784   8.532  17.957  0.00  0.00    +0.000 N 
ATOM     25  C   UNL     1       2.155   7.598  18.898  0.00  0.00    +0.000 C 
ATOM     26  O   UNL     1       2.133   7.729  20.116  0.00  0.00    +0.000 OA
ATOM     27  H   UNL     1       1.700   8.222  16.998  0.00  0.00    +0.000 HD
BRANCH  25  28
ATOM     28  C   UNL     1       2.614   6.290  18.373  0.00  0.00    +0.000 A 
ATOM     29  C   UNL     1       1.831   5.138  18.391  0.00  0.00    +0.000 A 
ATOM     30  C   UNL     1       2.355   4.015  17.781  0.00  0.00    +0.000 A 
ATOM     31  N   UNL     1       3.562   3.976  17.172  0.00  0.00    +0.000 NA
ATOM     32  C   UNL     1       4.319   5.100  17.158  0.00  0.00    +0.000 A 
ATOM     33  C   UNL     1       3.871   6.269  17.765  0.00  0.00    +0.000 A 
BRANCH  32  34
ATOM     34  C   UNL     1       5.667   5.075  16.425  0.00  0.00    +0.000 C 
ATOM     35  C   UNL     1       5.677   4.020  15.305  0.00  0.00    +0.000 C 
ATOM     36  C   UNL     1       5.924   6.458  15.772  0.00  0.00    +0.000 C 
BRANCH  34  37
ATOM     37  C   UNL     1       6.760   4.783  17.370  0.00  0.00    +0.000 C 
ATOM     38  N   UNL     1       7.633   4.558  18.108  0.00  0.00    +0.000 NA
ENDBRANCH  34  37
ENDBRANCH  32  34
ENDBRANCH  25  28
ENDBRANCH   5  24
TORSDOF 6
ENDMDL
MODEL 5
REMARK VINA RESULT:      -8.8      3.956     11.484
REMARK  Name = 
REMARK  9 active torsions:
REMARK  status: ('A' for Active; 'I' for Inactive)
REMARK    1  A    between atoms: C_1  and  C_2
REMARK    2  A    between atoms: C_5  and  N_6
REMARK    3  A    between atoms: C_7  and  C_9
REMARK    4  A    between atoms: C_13  and  C_14
REMARK    5  A    between atoms: C_14  and  C_15
REMARK    6  A    between atoms: C_14  and  C_16
REMARK    7  A    between atoms: C_14  and  C_17
REMARK    8  A    between atoms: C_21  and  C_22
REMARK    9  A    between atoms: C_29  and  N_30
REMARK                            x       y       z     vdW  Elec       q    Type
REMARK                         _______ _______ _______ _____ _____    ______ ____
ROOT
ATOM      1  C   UNL     1       3.681   2.005  18.383  0.00  0.00    +0.000 C 
ATOM      2  C   UNL     1       3.134   3.207  19.113  0.00  0.00    +0.000 A 
ATOM      3  C   UNL     1       1.830   3.107  19.630  0.00  0.00    +0.000 A 
ATOM      4  C   UNL     1       1.215   4.194  20.253  0.00  0.00    +0.000 A 
ATOM      5  C   UNL     1       1.896   5.395  20.401  0.00  0.00    +0.000 A 
ATOM      6  C   UNL     1       3.196   5.495  19.911  0.00  0.00    +0.000 A 
ATOM      7  C   UNL     1       3.839   4.431  19.238  0.00  0.00    +0.000 A 
ENDROOT
BRANCH   7   8
ATOM      8  C   UNL     1       5.123   4.720  18.558  0.00  0.00    +0.000 A 
ATOM      9  C   UNL     1       6.199   5.174  19.320  0.00  0.00    +0.000 A 
ATOM     10  C   UNL     1       7.093   5.931  18.597  0.00  0.00    +0.000 A 
ATOM     11  N   UNL     1       8.181   6.689  18.972  0.00  0.00    +0.000 N 
ATOM     12  C   UNL     1       8.142   7.736  18.084  0.00  0.00    +0.000 A 
ATOM     13  N   UNL     1       7.722   7.294  16.921  0.00  0.00    +0.000 NA
ATOM     14  C   UNL     1       6.978   6.163  17.234  0.00  0.00    +0.000 A 
ATOM     15  C   UNL     1       6.129   5.310  16.475  0.00  0.00    +0.000 A 
ATOM     16  N   UNL     1       5.157   4.659  17.202  0.00  0.00    +0.000 NA
ATOM     17  H   UNL     1       9.065   6.238  19.149  0.00  0.00    +0.000 HD
BRANCH  15  18
ATOM     18  N   UNL     1       6.199   5.116  15.113  0.00  0.00    +0.000 N 
ATOM     19  C   UNL     1       5.170   4.350  14.407  0.00  0.00    +0.000 C 
ATOM     20  C   UNL     1       5.832   3.403  13.385  0.00  0.00    +0.000 C 
ATOM     21  O   UNL     1       6.739   4.095  12.508  0.00  0.00    +0.000 OA
ATOM     22  C   UNL     1       7.770   4.741  13.271  0.00  0.00    +0.000 C 
ATOM     23  C   UNL     1       7.189   5.768  14.255  0.00  0.00    +0.000 C 
ENDBRANCH  15  18
ENDBRANCH   7   8
BRANCH   5  24
ATOM     24  N   UNL     1       1.348   6.550  20.986  0.00  0.00    +0.000 N 
ATOM     25  C   UNL     1       1.422   7.818  20.457  0.00  0.00    +0.000 C 
ATOM     26  O   UNL     1       1.942   8.147  19.398  0.00  0.00    +0.000 OA
ATOM     27  H   UNL     1       0.745   6.410  21.786  0.00  0.00    +0.000 HD
BRANCH  25  28
ATOM     28  C   UNL     1       0.788   8.895  21.255  0.00  0.00    +0.000 A 
ATOM     29  C   UNL     1       0.339   8.720  22.562  0.00  0.00    +0.000 A 
ATOM     30  C   UNL     1      -0.146   9.837  23.214  0.00  0.00    +0.000 A 
ATOM     31  N   UNL     1      -0.200  11.072  22.663  0.00  0.00    +0.000 NA
ATOM     32  C   UNL     1       0.238  11.236  21.391  0.00  0.00    +0.000 A 
ATOM     33  C   UNL     1       0.725  10.157  20.660  0.00  0.00    +0.000 A 
BRANCH  32  34
ATOM     34  C   UNL     1       0.224  12.643  20.780  0.00  0.00    +0.000 C 
ATOM     35  C   UNL     1      -0.803  12.751  19.640  0.00  0.00    +0.000 C 
ATOM     36  C   UNL     1      -0.171  13.673  21.870  0.00  0.00    +0.000 C 
BRANCH  34  37
ATOM     37  C   UNL     1       1.559  12.990  20.258  0.00  0.00    +0.000 C 
ATOM     38  N   UNL     1       2.608  13.265  19.833  0.00  0.00    +0.000 NA
ENDBRANCH  34  37
ENDBRANCH  32  34
ENDBRANCH  25  28
ENDBRANCH   5  24
TORSDOF 6
ENDMDL
MODEL 6
REMARK VINA RESULT:      -8.7      1.565      2.417
REMARK  Name = 
REMARK  9 active torsions:
REMARK  status: ('A' for Active; 'I' for Inactive)
REMARK    1  A    between atoms: C_1  and  C_2
REMARK    2  A    between atoms: C_5  and  N_6
REMARK    3  A    between atoms: C_7  and  C_9
REMARK    4  A    between atoms: C_13  and  C_14
REMARK    5  A    between atoms: C_14  and  C_15
REMARK    6  A    between atoms: C_14  and  C_16
REMARK    7  A    between atoms: C_14  and  C_17
REMARK    8  A    between atoms: C_21  and  C_22
REMARK    9  A    between atoms: C_29  and  N_30
REMARK                            x       y       z     vdW  Elec       q    Type
REMARK                         _______ _______ _______ _____ _____    ______ ____
ROOT
ATOM      1  C   UNL     1      -1.330  14.473  19.398  0.00  0.00    +0.000 C 
ATOM      2  C   UNL     1      -0.661  13.128  19.542  0.00  0.00    +0.000 A 
ATOM      3  C   UNL     1       0.744  13.098  19.481  0.00  0.00    +0.000 A 
ATOM      4  C   UNL     1       1.443  11.892  19.528  0.00  0.00    +0.000 A 
ATOM      5  C   UNL     1       0.760  10.690  19.666  0.00  0.00    +0.000 A 
ATOM      6  C   UNL     1      -0.630  10.713  19.748  0.00  0.00    +0.000 A 
ATOM      7  C   UNL     1      -1.377  11.910  19.664  0.00  0.00    +0.000 A 
ENDROOT
BRANCH   7   8
ATOM      8  C   UNL     1      -2.849  11.797  19.529  0.00  0.00    +0.000 A 
ATOM      9  C   UNL     1      -3.379  11.350  18.320  0.00  0.00    +0.000 A 
ATOM     10  C   UNL     1      -4.656  11.808  18.087  0.00  0.00    +0.000 A 
ATOM     11  N   UNL     1      -5.475  11.747  16.980  0.00  0.00    +0.000 N 
ATOM     12  C   UNL     1      -6.154  12.939  17.038  0.00  0.00    +0.000 A 
ATOM     13  N   UNL     1      -6.377  13.243  18.297  0.00  0.00    +0.000 NA
ATOM     14  C   UNL     1      -5.374  12.578  18.991  0.00  0.00    +0.000 A 
ATOM     15  C   UNL     1      -4.942  12.602  20.346  0.00  0.00    +0.000 A 
ATOM     16  N   UNL     1      -3.621  12.263  20.544  0.00  0.00    +0.000 NA
ATOM     17  H   UNL     1      -5.995  10.904  16.792  0.00  0.00    +0.000 HD
BRANCH  15  18
ATOM     18  N   UNL     1      -5.720  12.949  21.429  0.00  0.00    +0.000 N 
ATOM     19  C   UNL     1      -5.136  13.615  22.595  0.00  0.00    +0.000 C 
ATOM     20  C   UNL     1      -5.696  12.990  23.889  0.00  0.00    +0.000 C 
ATOM     21  O   UNL     1      -7.135  12.961  23.902  0.00  0.00    +0.000 OA
ATOM     22  C   UNL     1      -7.626  12.210  22.781  0.00  0.00    +0.000 C 
ATOM     23  C   UNL     1      -7.178  12.827  21.446  0.00  0.00    +0.000 C 
ENDBRANCH  15  18
ENDBRANCH   7   8
BRANCH   5  24
ATOM     24  N   UNL     1       1.377   9.427  19.692  0.00  0.00    +0.000 N 
ATOM     25  C   UNL     1       1.899   8.777  18.598  0.00  0.00    +0.000 C 
ATOM     26  O   UNL     1       1.940   9.189  17.445  0.00  0.00    +0.000 OA
ATOM     27  H   UNL     1       1.564   9.033  20.605  0.00  0.00    +0.000 HD
BRANCH  25  28
ATOM     28  C   UNL     1       2.489   7.441  18.853  0.00  0.00    +0.000 A 
ATOM     29  C   UNL     1       2.073   6.603  19.885  0.00  0.00    +0.000 A 
ATOM     30  C   UNL     1       2.649   5.348  19.944  0.00  0.00    +0.000 A 
ATOM     31  N   UNL     1       3.572   4.895  19.065  0.00  0.00    +0.000 NA
ATOM     32  C   UNL     1       3.973   5.716  18.063  0.00  0.00    +0.000 A 
ATOM     33  C   UNL     1       3.454   7.001  17.944  0.00  0.00    +0.000 A 
BRANCH  32  34
ATOM     34  C   UNL     1       4.983   5.189  17.035  0.00  0.00    +0.000 C 
ATOM     35  C   UNL     1       4.464   3.919  16.338  0.00  0.00    +0.000 C 
ATOM     36  C   UNL     1       5.214   6.265  15.943  0.00  0.00    +0.000 C 
BRANCH  34  37
ATOM     37  C   UNL     1       6.270   4.888  17.687  0.00  0.00    +0.000 C 
ATOM     38  N   UNL     1       7.293   4.651  18.191  0.00  0.00    +0.000 NA
ENDBRANCH  34  37
ENDBRANCH  32  34
ENDBRANCH  25  28
ENDBRANCH   5  24
TORSDOF 6
ENDMDL
MODEL 7
REMARK VINA RESULT:      -8.6      1.282      2.574
REMARK  Name = 
REMARK  9 active torsions:
REMARK  status: ('A' for Active; 'I' for Inactive)
REMARK    1  A    between atoms: C_1  and  C_2
REMARK    2  A    between atoms: C_5  and  N_6
REMARK    3  A    between atoms: C_7  and  C_9
REMARK    4  A    between atoms: C_13  and  C_14
REMARK    5  A    between atoms: C_14  and  C_15
REMARK    6  A    between atoms: C_14  and  C_16
REMARK    7  A    between atoms: C_14  and  C_17
REMARK    8  A    between atoms: C_21  and  C_22
REMARK    9  A    between atoms: C_29  and  N_30
REMARK                            x       y       z     vdW  Elec       q    Type
REMARK                         _______ _______ _______ _____ _____    ______ ____
ROOT
ATOM      1  C   UNL     1      -0.214  13.851  18.869  0.00  0.00    +0.000 C 
ATOM      2  C   UNL     1       0.319  12.451  18.688  0.00  0.00    +0.000 A 
ATOM      3  C   UNL     1       1.664  12.320  18.297  0.00  0.00    +0.000 A 
ATOM      4  C   UNL     1       2.221  11.069  18.032  0.00  0.00    +0.000 A 
ATOM      5  C   UNL     1       1.459   9.917  18.179  0.00  0.00    +0.000 A 
ATOM      6  C   UNL     1       0.133  10.036  18.587  0.00  0.00    +0.000 A 
ATOM      7  C   UNL     1      -0.480  11.287  18.825  0.00  0.00    +0.000 A 
ENDROOT
BRANCH   7   8
ATOM      8  C   UNL     1      -1.948  11.310  19.026  0.00  0.00    +0.000 A 
ATOM      9  C   UNL     1      -2.765  10.694  18.079  0.00  0.00    +0.000 A 
ATOM     10  C   UNL     1      -4.030  11.233  18.023  0.00  0.00    +0.000 A 
ATOM     11  N   UNL     1      -5.080  11.044  17.150  0.00  0.00    +0.000 N 
ATOM     12  C   UNL     1      -5.652  12.290  17.088  0.00  0.00    +0.000 A 
ATOM     13  N   UNL     1      -5.566  12.858  18.270  0.00  0.00    +0.000 NA
ATOM     14  C   UNL     1      -4.476  12.239  18.868  0.00  0.00    +0.000 A 
ATOM     15  C   UNL     1      -3.749  12.483  20.066  0.00  0.00    +0.000 A 
ATOM     16  N   UNL     1      -2.442  12.048  20.054  0.00  0.00    +0.000 NA
ATOM     17  H   UNL     1      -5.680  10.241  17.260  0.00  0.00    +0.000 HD
BRANCH  15  18
ATOM     18  N   UNL     1      -4.240  13.118  21.186  0.00  0.00    +0.000 N 
ATOM     19  C   UNL     1      -3.369  13.940  22.029  0.00  0.00    +0.000 C 
ATOM     20  C   UNL     1      -3.655  13.649  23.516  0.00  0.00    +0.000 C 
ATOM     21  O   UNL     1      -5.052  13.773  23.837  0.00  0.00    +0.000 OA
ATOM     22  C   UNL     1      -5.827  12.868  23.035  0.00  0.00    +0.000 C 
ATOM     23  C   UNL     1      -5.660  13.154  21.535  0.00  0.00    +0.000 C 
ENDBRANCH  15  18
ENDBRANCH   7   8
BRANCH   5  24
ATOM     24  N   UNL     1       1.925   8.619  17.907  0.00  0.00    +0.000 N 
ATOM     25  C   UNL     1       2.214   7.666  18.858  0.00  0.00    +0.000 C 
ATOM     26  O   UNL     1       2.093   7.774  20.072  0.00  0.00    +0.000 OA
ATOM     27  H   UNL     1       1.919   8.328  16.939  0.00  0.00    +0.000 HD
BRANCH  25  28
ATOM     28  C   UNL     1       2.711   6.366  18.347  0.00  0.00    +0.000 A 
ATOM     29  C   UNL     1       2.009   5.170  18.480  0.00  0.00    +0.000 A 
ATOM     30  C   UNL     1       2.550   4.054  17.872  0.00  0.00    +0.000 A 
ATOM     31  N   UNL     1       3.700   4.061  17.161  0.00  0.00    +0.000 NA
ATOM     32  C   UNL     1       4.379   5.228  17.034  0.00  0.00    +0.000 A 
ATOM     33  C   UNL     1       3.910   6.393  17.631  0.00  0.00    +0.000 A 
BRANCH  32  34
ATOM     34  C   UNL     1       5.658   5.251  16.187  0.00  0.00    +0.000 C 
ATOM     35  C   UNL     1       6.093   3.831  15.787  0.00  0.00    +0.000 C 
ATOM     36  C   UNL     1       5.396   6.048  14.882  0.00  0.00    +0.000 C 
BRANCH  34  37
ATOM     37  C   UNL     1       6.754   5.899  16.929  0.00  0.00    +0.000 C 
ATOM     38  N   UNL     1       7.624   6.419  17.504  0.00  0.00    +0.000 NA
ENDBRANCH  34  37
ENDBRANCH  32  34
ENDBRANCH  25  28
ENDBRANCH   5  24
TORSDOF 6
ENDMDL
MODEL 8
REMARK VINA RESULT:      -8.6      0.902      1.198
REMARK  Name = 
REMARK  9 active torsions:
REMARK  status: ('A' for Active; 'I' for Inactive)
REMARK    1  A    between atoms: C_1  and  C_2
REMARK    2  A    between atoms: C_5  and  N_6
REMARK    3  A    between atoms: C_7  and  C_9
REMARK    4  A    between atoms: C_13  and  C_14
REMARK    5  A    between atoms: C_14  and  C_15
REMARK    6  A    between atoms: C_14  and  C_16
REMARK    7  A    between atoms: C_14  and  C_17
REMARK    8  A    between atoms: C_21  and  C_22
REMARK    9  A    between atoms: C_29  and  N_30
REMARK                            x       y       z     vdW  Elec       q    Type
REMARK                         _______ _______ _______ _____ _____    ______ ____
ROOT
ATOM      1  C   UNL     1      -0.083  14.005  18.815  0.00  0.00    +0.000 C 
ATOM      2  C   UNL     1       0.516  12.629  18.658  0.00  0.00    +0.000 A 
ATOM      3  C   UNL     1       1.859  12.555  18.246  0.00  0.00    +0.000 A 
ATOM      4  C   UNL     1       2.473  11.327  18.002  0.00  0.00    +0.000 A 
ATOM      5  C   UNL     1       1.773  10.143  18.191  0.00  0.00    +0.000 A 
ATOM      6  C   UNL     1       0.449  10.206  18.619  0.00  0.00    +0.000 A 
ATOM      7  C   UNL     1      -0.221  11.431  18.838  0.00  0.00    +0.000 A 
ENDROOT
BRANCH   7   8
ATOM      8  C   UNL     1      -1.685  11.386  19.065  0.00  0.00    +0.000 A 
ATOM      9  C   UNL     1      -2.481  10.667  18.174  0.00  0.00    +0.000 A 
ATOM     10  C   UNL     1      -3.774  11.132  18.108  0.00  0.00    +0.000 A 
ATOM     11  N   UNL     1      -4.825  10.831  17.269  0.00  0.00    +0.000 N 
ATOM     12  C   UNL     1      -5.467  12.037  17.140  0.00  0.00    +0.000 A 
ATOM     13  N   UNL     1      -5.395  12.683  18.282  0.00  0.00    +0.000 NA
ATOM     14  C   UNL     1      -4.263  12.164  18.897  0.00  0.00    +0.000 A 
ATOM     15  C   UNL     1      -3.533  12.522  20.064  0.00  0.00    +0.000 A 
ATOM     16  N   UNL     1      -2.203  12.159  20.054  0.00  0.00    +0.000 NA
ATOM     17  H   UNL     1      -5.379  10.005  17.440  0.00  0.00    +0.000 HD
BRANCH  15  18
ATOM     18  N   UNL     1      -4.041  13.199  21.151  0.00  0.00    +0.000 N 
ATOM     19  C   UNL     1      -3.758  12.753  22.517  0.00  0.00    +0.000 C 
ATOM     20  C   UNL     1      -5.044  12.820  23.365  0.00  0.00    +0.000 C 
ATOM     21  O   UNL     1      -5.674  14.111  23.300  0.00  0.00    +0.000 OA
ATOM     22  C   UNL     1      -6.005  14.433  21.940  0.00  0.00    +0.000 C 
ATOM     23  C   UNL     1      -4.755  14.471  21.046  0.00  0.00    +0.000 C 
ENDBRANCH  15  18
ENDBRANCH   7   8
BRANCH   5  24
ATOM     24  N   UNL     1       2.298   8.863  17.942  0.00  0.00    +0.000 N 
ATOM     25  C   UNL     1       2.332   7.830  18.852  0.00  0.00    +0.000 C 
ATOM     26  O   UNL     1       1.896   7.840  19.996  0.00  0.00    +0.000 OA
ATOM     27  H   UNL     1       2.548   8.652  16.985  0.00  0.00    +0.000 HD
BRANCH  25  28
ATOM     28  C   UNL     1       2.950   6.567  18.381  0.00  0.00    +0.000 A 
ATOM     29  C   UNL     1       3.881   6.507  17.347  0.00  0.00    +0.000 A 
ATOM     30  C   UNL     1       4.442   5.273  17.079  0.00  0.00    +0.000 A 
ATOM     31  N   UNL     1       4.147   4.143  17.760  0.00  0.00    +0.000 NA
ATOM     32  C   UNL     1       3.240   4.208  18.766  0.00  0.00    +0.000 A 
ATOM     33  C   UNL     1       2.616   5.409  19.087  0.00  0.00    +0.000 A 
BRANCH  32  34
ATOM     34  C   UNL     1       2.939   2.938  19.573  0.00  0.00    +0.000 C 
ATOM     35  C   UNL     1       1.841   2.093  18.903  0.00  0.00    +0.000 C 
ATOM     36  C   UNL     1       4.219   2.066  19.658  0.00  0.00    +0.000 C 
BRANCH  34  37
ATOM     37  C   UNL     1       2.509   3.287  20.939  0.00  0.00    +0.000 C 
ATOM     38  N   UNL     1       2.174   3.551  22.023  0.00  0.00    +0.000 NA
ENDBRANCH  34  37
ENDBRANCH  32  34
ENDBRANCH  25  28
ENDBRANCH   5  24
TORSDOF 6
ENDMDL
MODEL 9
REMARK VINA RESULT:      -8.5      3.976      6.308
REMARK  Name = 
REMARK  9 active torsions:
REMARK  status: ('A' for Active; 'I' for Inactive)
REMARK    1  A    between atoms: C_1  and  C_2
REMARK    2  A    between atoms: C_5  and  N_6
REMARK    3  A    between atoms: C_7  and  C_9
REMARK    4  A    between atoms: C_13  and  C_14
REMARK    5  A    between atoms: C_14  and  C_15
REMARK    6  A    between atoms: C_14  and  C_16
REMARK    7  A    between atoms: C_14  and  C_17
REMARK    8  A    between atoms: C_21  and  C_22
REMARK    9  A    between atoms: C_29  and  N_30
REMARK                            x       y       z     vdW  Elec       q    Type
REMARK                         _______ _______ _______ _____ _____    ______ ____
ROOT
ATOM      1  C   UNL     1      -0.677  13.726  19.170  0.00  0.00    +0.000 C 
ATOM      2  C   UNL     1       0.065  12.471  18.779  0.00  0.00    +0.000 A 
ATOM      3  C   UNL     1      -0.692  11.294  18.636  0.00  0.00    +0.000 A 
ATOM      4  C   UNL     1      -0.081  10.073  18.351  0.00  0.00    +0.000 A 
ATOM      5  C   UNL     1       1.295  10.001  18.175  0.00  0.00    +0.000 A 
ATOM      6  C   UNL     1       2.049  11.166  18.294  0.00  0.00    +0.000 A 
ATOM      7  C   UNL     1       1.473  12.414  18.621  0.00  0.00    +0.000 A 
ENDROOT
BRANCH   7   8
ATOM      8  C   UNL     1       2.389  13.532  18.950  0.00  0.00    +0.000 A 
ATOM      9  C   UNL     1       3.011  14.219  17.908  0.00  0.00    +0.000 A 
ATOM     10  C   UNL     1       4.206  14.794  18.277  0.00  0.00    +0.000 A 
ATOM     11  N   UNL     1       5.201  15.411  17.549  0.00  0.00    +0.000 N 
ATOM     12  C   UNL     1       6.340  15.047  18.222  0.00  0.00    +0.000 A 
ATOM     13  N   UNL     1       6.078  14.994  19.508  0.00  0.00    +0.000 NA
ATOM     14  C   UNL     1       4.710  14.759  19.568  0.00  0.00    +0.000 A 
ATOM     15  C   UNL     1       3.819  14.443  20.631  0.00  0.00    +0.000 A 
ATOM     16  N   UNL     1       2.687  13.752  20.256  0.00  0.00    +0.000 NA
ATOM     17  H   UNL     1       5.090  16.375  17.272  0.00  0.00    +0.000 HD
BRANCH  15  18
ATOM     18  N   UNL     1       4.013  14.752  21.959  0.00  0.00    +0.000 N 
ATOM     19  C   UNL     1       3.143  15.707  22.647  0.00  0.00    +0.000 C 
ATOM     20  C   UNL     1       3.992  16.650  23.524  0.00  0.00    +0.000 C 
ATOM     21  O   UNL     1       4.869  15.930  24.408  0.00  0.00    +0.000 OA
ATOM     22  C   UNL     1       5.753  15.088  23.652  0.00  0.00    +0.000 C 
ATOM     23  C   UNL     1       4.977  14.059  22.814  0.00  0.00    +0.000 C 
ENDBRANCH  15  18
ENDBRANCH   7   8
BRANCH   5  24
ATOM     24  N   UNL     1       1.999   8.812  17.916  0.00  0.00    +0.000 N 
ATOM     25  C   UNL     1       2.257   7.827  18.841  0.00  0.00    +0.000 C 
ATOM     26  O   UNL     1       1.903   7.804  20.014  0.00  0.00    +0.000 OA
ATOM     27  H   UNL     1       2.214   8.614  16.948  0.00  0.00    +0.000 HD
BRANCH  25  28
ATOM     28  C   UNL     1       3.035   6.663  18.354  0.00  0.00    +0.000 A 
ATOM     29  C   UNL     1       4.159   6.778  17.538  0.00  0.00    +0.000 A 
ATOM     30  C   UNL     1       4.838   5.612  17.239  0.00  0.00    +0.000 A 
ATOM     31  N   UNL     1       4.482   4.389  17.694  0.00  0.00    +0.000 NA
ATOM     32  C   UNL     1       3.388   4.284  18.487  0.00  0.00    +0.000 A 
ATOM     33  C   UNL     1       2.639   5.407  18.820  0.00  0.00    +0.000 A 
BRANCH  32  34
ATOM     34  C   UNL     1       3.009   2.906  19.045  0.00  0.00    +0.000 C 
ATOM     35  C   UNL     1       1.781   2.992  19.968  0.00  0.00    +0.000 C 
ATOM     36  C   UNL     1       2.652   1.956  17.872  0.00  0.00    +0.000 C 
BRANCH  34  37
ATOM     37  C   UNL     1       4.137   2.329  19.799  0.00  0.00    +0.000 C 
ATOM     38  N   UNL     1       5.034   1.886  20.395  0.00  0.00    +0.000 NA
ENDBRANCH  34  37
ENDBRANCH  32  34
ENDBRANCH  25  28
ENDBRANCH   5  24
TORSDOF 6
ENDMDL
