MODEL 1
REMARK VINA RESULT:      -8.8      0.000      0.000
REMARK  Name = 
REMARK  8 active torsions:
REMARK  status: ('A' for Active; 'I' for Inactive)
REMARK    1  A    between atoms: N_1  and  C_2
REMARK    2  A    between atoms: C_2  and  C_4
REMARK    3  A    between atoms: C_9  and  C_10
REMARK    4  A    between atoms: N_12  and  C_13
REMARK    5  A    between atoms: C_13  and  C_14
REMARK    6  A    between atoms: C_14  and  C_15
REMARK    7  A    between atoms: C_20  and  C_21
REMARK    8  A    between atoms: C_21  and  O_22
REMARK                            x       y       z     vdW  Elec       q    Type
REMARK                         _______ _______ _______ _____ _____    ______ ____
ROOT
ATOM      1  C   UNL     1       4.831   4.709  16.954  0.00  0.00    +0.000 A 
ATOM      2  C   UNL     1       4.734   3.640  17.817  0.00  0.00    +0.000 A 
ATOM      3  N   UNL     1       3.916   4.017  18.853  0.00  0.00    +0.000 N 
ATOM      4  C   UNL     1       3.497   5.323  18.684  0.00  0.00    +0.000 A 
ATOM      5  C   UNL     1       2.692   6.157  19.481  0.00  0.00    +0.000 A 
ATOM      6  C   UNL     1       2.438   7.473  19.046  0.00  0.00    +0.000 A 
ATOM      7  C   UNL     1       2.970   7.920  17.833  0.00  0.00    +0.000 A 
ATOM      8  C   UNL     1       3.773   7.086  17.048  0.00  0.00    +0.000 A 
ATOM      9  C   UNL     1       4.050   5.773  17.479  0.00  0.00    +0.000 A 
ENDROOT
BRANCH   1  15
ATOM     10  C   UNL     1       6.092   4.011  13.460  0.00  0.00    +0.000 A 
ATOM     11  C   UNL     1       7.226   4.739  13.454  0.00  0.00    +0.000 A 
ATOM     12  N   UNL     1       7.605   5.465  14.554  0.00  0.00    +0.000 N 
ATOM     13  C   UNL     1       6.897   5.522  15.731  0.00  0.00    +0.000 A 
ATOM     14  O   UNL     1       7.301   6.184  16.682  0.00  0.00    +0.000 OA
ATOM     15  C   UNL     1       5.623   4.721  15.767  0.00  0.00    +0.000 A 
ATOM     16  C   UNL     1       5.286   4.011  14.675  0.00  0.00    +0.000 A 
ATOM     17  H   UNL     1       8.465   6.001  14.537  0.00  0.00    +0.000 HD
BRANCH  10  18
ATOM     18  C   UNL     1       5.706   3.201  12.257  0.00  0.00    +0.000 C 
ATOM     19  S   UNL     1       4.264   3.252  11.408  0.00  0.00    +0.000 S 
BRANCH  18  20
ATOM     20  N   UNL     1       6.651   2.307  11.832  0.00  0.00    +0.000 N 
ATOM     21  H   UNL     1       6.437   1.318  11.883  0.00  0.00    +0.000 HD
ATOM     22  H   UNL     1       7.587   2.562  11.546  0.00  0.00    +0.000 HD
ENDBRANCH  18  20
ENDBRANCH  10  18
ENDBRANCH   1  15
BRANCH   3  23
ATOM     23  C   UNL     1       3.595   3.150  19.975  0.00  0.00    +0.000 C 
BRANCH  23  24
ATOM     24  C   UNL     1       2.268   2.418  19.832  0.00  0.00    +0.000 C 
BRANCH  24  25
ATOM     25  C   UNL     1       1.302   2.727  20.957  0.00  0.00    +0.000 C 
ATOM     26  F   UNL     1       2.001   2.998  22.089  0.00  0.00    +0.000 F 
ATOM     27  F   UNL     1       0.617   3.858  20.651  0.00  0.00    +0.000 F 
ENDBRANCH  24  25
ENDBRANCH  23  24
ENDBRANCH   3  23
BRANCH   6  28
ATOM     28  C   UNL     1       1.627   8.408  19.907  0.00  0.00    +0.000 C 
BRANCH  28  29
ATOM     29  O   UNL     1       1.734   8.049  21.276  0.00  0.00    +0.000 OA
ATOM     30  H   UNL     1       1.029   7.401  21.449  0.00  0.00    +0.000 HD
ENDBRANCH  28  29
ENDBRANCH   6  28
TORSDOF 8
ENDMDL
MODEL 2
REMARK VINA RESULT:      -8.6      0.984      1.166
REMARK  Name = 
REMARK  8 active torsions:
REMARK  status: ('A' for Active; 'I' for Inactive)
REMARK    1  A    between atoms: N_1  and  C_2
REMARK    2  A    between atoms: C_2  and  C_4
REMARK    3  A    between atoms: C_9  and  C_10
REMARK    4  A    between atoms: N_12  and  C_13
REMARK    5  A    between atoms: C_13  and  C_14
REMARK    6  A    between atoms: C_14  and  C_15
REMARK    7  A    between atoms: C_20  and  C_21
REMARK    8  A    between atoms: C_21  and  O_22
REMARK                            x       y       z     vdW  Elec       q    Type
REMARK                         _______ _______ _______ _____ _____    ______ ____
ROOT
ATOM      1  C   UNL     1       4.787   4.686  17.086  0.00  0.00    +0.000 A 
ATOM      2  C   UNL     1       4.633   3.606  17.926  0.00  0.00    +0.000 A 
ATOM      3  N   UNL     1       3.788   3.986  18.940  0.00  0.00    +0.000 N 
ATOM      4  C   UNL     1       3.408   5.305  18.778  0.00  0.00    +0.000 A 
ATOM      5  C   UNL     1       2.595   6.146  19.560  0.00  0.00    +0.000 A 
ATOM      6  C   UNL     1       2.389   7.475  19.139  0.00  0.00    +0.000 A 
ATOM      7  C   UNL     1       2.975   7.929  17.953  0.00  0.00    +0.000 A 
ATOM      8  C   UNL     1       3.785   7.087  17.184  0.00  0.00    +0.000 A 
ATOM      9  C   UNL     1       4.013   5.760  17.601  0.00  0.00    +0.000 A 
ENDROOT
BRANCH   1  15
ATOM     10  C   UNL     1       6.140   4.039  13.617  0.00  0.00    +0.000 A 
ATOM     11  C   UNL     1       7.306   4.712  13.674  0.00  0.00    +0.000 A 
ATOM     12  N   UNL     1       7.678   5.384  14.810  0.00  0.00    +0.000 N 
ATOM     13  C   UNL     1       6.931   5.437  15.963  0.00  0.00    +0.000 A 
ATOM     14  O   UNL     1       7.331   6.050  16.948  0.00  0.00    +0.000 OA
ATOM     15  C   UNL     1       5.621   4.698  15.928  0.00  0.00    +0.000 A 
ATOM     16  C   UNL     1       5.290   4.039  14.802  0.00  0.00    +0.000 A 
ATOM     17  H   UNL     1       8.562   5.878  14.840  0.00  0.00    +0.000 HD
BRANCH  10  18
ATOM     18  C   UNL     1       5.759   3.286  12.374  0.00  0.00    +0.000 C 
ATOM     19  S   UNL     1       4.312   3.358  11.537  0.00  0.00    +0.000 S 
BRANCH  18  20
ATOM     20  N   UNL     1       6.717   2.432  11.899  0.00  0.00    +0.000 N 
ATOM     21  H   UNL     1       6.935   2.454  10.910  0.00  0.00    +0.000 HD
ATOM     22  H   UNL     1       7.168   1.717  12.455  0.00  0.00    +0.000 HD
ENDBRANCH  18  20
ENDBRANCH  10  18
ENDBRANCH   1  15
BRANCH   3  23
ATOM     23  C   UNL     1       3.406   3.109  20.034  0.00  0.00    +0.000 C 
BRANCH  23  24
ATOM     24  C   UNL     1       1.901   2.945  20.199  0.00  0.00    +0.000 C 
BRANCH  24  25
ATOM     25  C   UNL     1       1.239   2.335  18.981  0.00  0.00    +0.000 C 
ATOM     26  F   UNL     1       0.874   3.323  18.124  0.00  0.00    +0.000 F 
ATOM     27  F   UNL     1       2.148   1.573  18.321  0.00  0.00    +0.000 F 
ENDBRANCH  24  25
ENDBRANCH  23  24
ENDBRANCH   3  23
BRANCH   6  28
ATOM     28  C   UNL     1       1.571   8.416  19.987  0.00  0.00    +0.000 C 
BRANCH  28  29
ATOM     29  O   UNL     1       1.733   8.118  21.366  0.00  0.00    +0.000 OA
ATOM     30  H   UNL     1       1.330   8.855  21.857  0.00  0.00    +0.000 HD
ENDBRANCH  28  29
ENDBRANCH   6  28
TORSDOF 8
ENDMDL
MODEL 3
REMARK VINA RESULT:      -8.3      2.196      3.798
REMARK  Name = 
REMARK  8 active torsions:
REMARK  status: ('A' for Active; 'I' for Inactive)
REMARK    1  A    between atoms: N_1  and  C_2
REMARK    2  A    between atoms: C_2  and  C_4
REMARK    3  A    between atoms: C_9  and  C_10
REMARK    4  A    between atoms: N_12  and  C_13
REMARK    5  A    between atoms: C_13  and  C_14
REMARK    6  A    between atoms: C_14  and  C_15
REMARK    7  A    between atoms: C_20  and  C_21
REMARK    8  A    between atoms: C_21  and  O_22
REMARK                            x       y       z     vdW  Elec       q    Type
REMARK                         _______ _______ _______ _____ _____    ______ ____
ROOT
ATOM      1  C   UNL     1       4.654   5.350  16.623  0.00  0.00    +0.000 A 
ATOM      2  C   UNL     1       4.191   6.596  16.984  0.00  0.00    +0.000 A 
ATOM      3  N   UNL     1       3.304   6.425  18.019  0.00  0.00    +0.000 N 
ATOM      4  C   UNL     1       3.171   5.083  18.320  0.00  0.00    +0.000 A 
ATOM      5  C   UNL     1       2.369   4.410  19.260  0.00  0.00    +0.000 A 
ATOM      6  C   UNL     1       2.442   3.005  19.334  0.00  0.00    +0.000 A 
ATOM      7  C   UNL     1       3.315   2.307  18.494  0.00  0.00    +0.000 A 
ATOM      8  C   UNL     1       4.106   2.983  17.559  0.00  0.00    +0.000 A 
ATOM      9  C   UNL     1       4.031   4.387  17.462  0.00  0.00    +0.000 A 
ENDROOT
BRANCH   1  15
ATOM     10  C   UNL     1       6.181   4.090  13.404  0.00  0.00    +0.000 A 
ATOM     11  C   UNL     1       7.419   4.614  13.493  0.00  0.00    +0.000 A 
ATOM     12  N   UNL     1       7.787   5.378  14.571  0.00  0.00    +0.000 N 
ATOM     13  C   UNL     1       6.964   5.675  15.632  0.00  0.00    +0.000 A 
ATOM     14  O   UNL     1       7.362   6.357  16.571  0.00  0.00    +0.000 OA
ATOM     15  C   UNL     1       5.572   5.106  15.559  0.00  0.00    +0.000 A 
ATOM     16  C   UNL     1       5.247   4.351  14.494  0.00  0.00    +0.000 A 
ATOM     17  H   UNL     1       8.725   5.758  14.627  0.00  0.00    +0.000 HD
BRANCH  10  18
ATOM     18  C   UNL     1       5.803   3.233  12.230  0.00  0.00    +0.000 C 
ATOM     19  S   UNL     1       4.350   3.217  11.401  0.00  0.00    +0.000 S 
BRANCH  18  20
ATOM     20  N   UNL     1       6.770   2.356  11.818  0.00  0.00    +0.000 N 
ATOM     21  H   UNL     1       7.191   1.744  12.508  0.00  0.00    +0.000 HD
ATOM     22  H   UNL     1       7.155   2.332  10.884  0.00  0.00    +0.000 HD
ENDBRANCH  18  20
ENDBRANCH  10  18
ENDBRANCH   1  15
BRANCH   3  23
ATOM     23  C   UNL     1       2.592   7.522  18.652  0.00  0.00    +0.000 C 
BRANCH  23  24
ATOM     24  C   UNL     1       2.311   8.695  17.722  0.00  0.00    +0.000 C 
BRANCH  24  25
ATOM     25  C   UNL     1       1.343   9.697  18.316  0.00  0.00    +0.000 C 
ATOM     26  F   UNL     1       0.141   9.587  17.692  0.00  0.00    +0.000 F 
ATOM     27  F   UNL     1       1.128   9.383  19.619  0.00  0.00    +0.000 F 
ENDBRANCH  24  25
ENDBRANCH  23  24
ENDBRANCH   3  23
BRANCH   6  28
ATOM     28  C   UNL     1       1.552   2.254  20.292  0.00  0.00    +0.000 C 
BRANCH  28  29
ATOM     29  O   UNL     1       0.687   3.147  20.978  0.00  0.00    +0.000 OA
ATOM     30  H   UNL     1       0.264   2.631  21.687  0.00  0.00    +0.000 HD
ENDBRANCH  28  29
ENDBRANCH   6  28
TORSDOF 8
ENDMDL
MODEL 4
REMARK VINA RESULT:      -8.1      1.090      1.187
REMARK  Name = 
REMARK  8 active torsions:
REMARK  status: ('A' for Active; 'I' for Inactive)
REMARK    1  A    between atoms: N_1  and  C_2
REMARK    2  A    between atoms: C_2  and  C_4
REMARK    3  A    between atoms: C_9  and  C_10
REMARK    4  A    between atoms: N_12  and  C_13
REMARK    5  A    between atoms: C_13  and  C_14
REMARK    6  A    between atoms: C_14  and  C_15
REMARK    7  A    between atoms: C_20  and  C_21
REMARK    8  A    between atoms: C_21  and  O_22
REMARK                            x       y       z     vdW  Elec       q    Type
REMARK                         _______ _______ _______ _____ _____    ______ ____
ROOT
ATOM      1  C   UNL     1       4.766   4.765  17.097  0.00  0.00    +0.000 A 
ATOM      2  C   UNL     1       4.581   3.686  17.934  0.00  0.00    +0.000 A 
ATOM      3  N   UNL     1       3.720   4.077  18.930  0.00  0.00    +0.000 N 
ATOM      4  C   UNL     1       3.361   5.400  18.762  0.00  0.00    +0.000 A 
ATOM      5  C   UNL     1       2.544   6.252  19.528  0.00  0.00    +0.000 A 
ATOM      6  C   UNL     1       2.364   7.583  19.105  0.00  0.00    +0.000 A 
ATOM      7  C   UNL     1       2.979   8.030  17.932  0.00  0.00    +0.000 A 
ATOM      8  C   UNL     1       3.793   7.179  17.178  0.00  0.00    +0.000 A 
ATOM      9  C   UNL     1       3.996   5.849  17.599  0.00  0.00    +0.000 A 
ENDROOT
BRANCH   1  15
ATOM     10  C   UNL     1       6.185   4.092  13.660  0.00  0.00    +0.000 A 
ATOM     11  C   UNL     1       7.353   4.760  13.737  0.00  0.00    +0.000 A 
ATOM     12  N   UNL     1       7.705   5.438  14.876  0.00  0.00    +0.000 N 
ATOM     13  C   UNL     1       6.935   5.501  16.014  0.00  0.00    +0.000 A 
ATOM     14  O   UNL     1       7.317   6.117  17.003  0.00  0.00    +0.000 OA
ATOM     15  C   UNL     1       5.623   4.767  15.957  0.00  0.00    +0.000 A 
ATOM     16  C   UNL     1       5.312   4.102  14.828  0.00  0.00    +0.000 A 
ATOM     17  H   UNL     1       8.590   5.929  14.921  0.00  0.00    +0.000 HD
BRANCH  10  18
ATOM     18  C   UNL     1       5.827   3.334  12.415  0.00  0.00    +0.000 C 
ATOM     19  S   UNL     1       6.790   2.274  11.548  0.00  0.00    +0.000 S 
BRANCH  18  20
ATOM     20  N   UNL     1       4.565   3.566  11.938  0.00  0.00    +0.000 N 
ATOM     21  H   UNL     1       3.783   3.129  12.413  0.00  0.00    +0.000 HD
ATOM     22  H   UNL     1       4.362   4.079  11.091  0.00  0.00    +0.000 HD
ENDBRANCH  18  20
ENDBRANCH  10  18
ENDBRANCH   1  15
BRANCH   3  23
ATOM     23  C   UNL     1       3.306   3.204  20.016  0.00  0.00    +0.000 C 
BRANCH  23  24
ATOM     24  C   UNL     1       2.336   2.109  19.593  0.00  0.00    +0.000 C 
BRANCH  24  25
ATOM     25  C   UNL     1       0.914   2.609  19.440  0.00  0.00    +0.000 C 
ATOM     26  F   UNL     1       0.732   3.697  20.234  0.00  0.00    +0.000 F 
ATOM     27  F   UNL     1       0.731   3.033  18.163  0.00  0.00    +0.000 F 
ENDBRANCH  24  25
ENDBRANCH  23  24
ENDBRANCH   3  23
BRANCH   6  28
ATOM     28  C   UNL     1       1.541   8.534  19.937  0.00  0.00    +0.000 C 
BRANCH  28  29
ATOM     29  O   UNL     1       1.219   9.701  19.195  0.00  0.00    +0.000 OA
ATOM     30  H   UNL     1       0.293   9.915  19.406  0.00  0.00    +0.000 HD
ENDBRANCH  28  29
ENDBRANCH   6  28
TORSDOF 8
ENDMDL
MODEL 5
REMARK VINA RESULT:      -7.8      2.609      3.967
REMARK  Name = 
REMARK  8 active torsions:
REMARK  status: ('A' for Active; 'I' for Inactive)
REMARK    1  A    between atoms: N_1  and  C_2
REMARK    2  A    between atoms: C_2  and  C_4
REMARK    3  A    between atoms: C_9  and  C_10
REMARK    4  A    between atoms: N_12  and  C_13
REMARK    5  A    between atoms: C_13  and  C_14
REMARK    6  A    between atoms: C_14  and  C_15
REMARK    7  A    between atoms: C_20  and  C_21
REMARK    8  A    between atoms: C_21  and  O_22
REMARK                            x       y       z     vdW  Elec       q    Type
REMARK                         _______ _______ _______ _____ _____    ______ ____
ROOT
ATOM      1  C   UNL     1       4.644   5.416  16.725  0.00  0.00    +0.000 A 
ATOM      2  C   UNL     1       4.184   6.678  17.030  0.00  0.00    +0.000 A 
ATOM      3  N   UNL     1       3.340   6.562  18.108  0.00  0.00    +0.000 N 
ATOM      4  C   UNL     1       3.232   5.240  18.493  0.00  0.00    +0.000 A 
ATOM      5  C   UNL     1       2.473   4.619  19.502  0.00  0.00    +0.000 A 
ATOM      6  C   UNL     1       2.562   3.221  19.657  0.00  0.00    +0.000 A 
ATOM      7  C   UNL     1       3.407   2.481  18.825  0.00  0.00    +0.000 A 
ATOM      8  C   UNL     1       4.155   3.105  17.820  0.00  0.00    +0.000 A 
ATOM      9  C   UNL     1       4.063   4.501  17.643  0.00  0.00    +0.000 A 
ENDROOT
BRANCH   1  15
ATOM     10  C   UNL     1       6.021   4.054  13.480  0.00  0.00    +0.000 A 
ATOM     11  C   UNL     1       7.288   4.508  13.536  0.00  0.00    +0.000 A 
ATOM     12  N   UNL     1       7.723   5.257  14.599  0.00  0.00    +0.000 N 
ATOM     13  C   UNL     1       6.943   5.605  15.677  0.00  0.00    +0.000 A 
ATOM     14  O   UNL     1       7.402   6.269  16.602  0.00  0.00    +0.000 OA
ATOM     15  C   UNL     1       5.521   5.115  15.641  0.00  0.00    +0.000 A 
ATOM     16  C   UNL     1       5.129   4.373  14.589  0.00  0.00    +0.000 A 
ATOM     17  H   UNL     1       8.682   5.584  14.631  0.00  0.00    +0.000 HD
BRANCH  10  18
ATOM     18  C   UNL     1       5.567   3.214  12.321  0.00  0.00    +0.000 C 
ATOM     19  S   UNL     1       6.405   1.979  11.562  0.00  0.00    +0.000 S 
BRANCH  18  20
ATOM     20  N   UNL     1       4.328   3.525  11.830  0.00  0.00    +0.000 N 
ATOM     21  H   UNL     1       3.552   2.915  12.060  0.00  0.00    +0.000 HD
ATOM     22  H   UNL     1       4.146   4.279  11.181  0.00  0.00    +0.000 HD
ENDBRANCH  18  20
ENDBRANCH  10  18
ENDBRANCH   1  15
BRANCH   3  23
ATOM     23  C   UNL     1       2.644   7.691  18.702  0.00  0.00    +0.000 C 
BRANCH  23  24
ATOM     24  C   UNL     1       1.904   8.562  17.696  0.00  0.00    +0.000 C 
BRANCH  24  25
ATOM     25  C   UNL     1       1.120   9.680  18.351  0.00  0.00    +0.000 C 
ATOM     26  F   UNL     1       1.793  10.850  18.201  0.00  0.00    +0.000 F 
ATOM     27  F   UNL     1      -0.061   9.831  17.697  0.00  0.00    +0.000 F 
ENDBRANCH  24  25
ENDBRANCH  23  24
ENDBRANCH   3  23
BRANCH   6  28
ATOM     28  C   UNL     1       1.717   2.523  20.692  0.00  0.00    +0.000 C 
BRANCH  28  29
ATOM     29  O   UNL     1       2.285   2.670  21.985  0.00  0.00    +0.000 OA
ATOM     30  H   UNL     1       1.549   2.878  22.588  0.00  0.00    +0.000 HD
ENDBRANCH  28  29
ENDBRANCH   6  28
TORSDOF 8
ENDMDL
MODEL 6
REMARK VINA RESULT:      -7.7      1.335      1.481
REMARK  Name = 
REMARK  8 active torsions:
REMARK  status: ('A' for Active; 'I' for Inactive)
REMARK    1  A    between atoms: N_1  and  C_2
REMARK    2  A    between atoms: C_2  and  C_4
REMARK    3  A    between atoms: C_9  and  C_10
REMARK    4  A    between atoms: N_12  and  C_13
REMARK    5  A    between atoms: C_13  and  C_14
REMARK    6  A    between atoms: C_14  and  C_15
REMARK    7  A    between atoms: C_20  and  C_21
REMARK    8  A    between atoms: C_21  and  O_22
REMARK                            x       y       z     vdW  Elec       q    Type
REMARK                         _______ _______ _______ _____ _____    ______ ____
ROOT
ATOM      1  C   UNL     1       4.446   4.609  16.877  0.00  0.00    +0.000 A 
ATOM      2  C   UNL     1       4.044   3.467  17.533  0.00  0.00    +0.000 A 
ATOM      3  N   UNL     1       3.162   3.842  18.517  0.00  0.00    +0.000 N 
ATOM      4  C   UNL     1       3.004   5.215  18.522  0.00  0.00    +0.000 A 
ATOM      5  C   UNL     1       2.249   6.066  19.349  0.00  0.00    +0.000 A 
ATOM      6  C   UNL     1       2.291   7.455  19.113  0.00  0.00    +0.000 A 
ATOM      7  C   UNL     1       3.060   7.960  18.061  0.00  0.00    +0.000 A 
ATOM      8  C   UNL     1       3.811   7.107  17.246  0.00  0.00    +0.000 A 
ATOM      9  C   UNL     1       3.792   5.717  17.480  0.00  0.00    +0.000 A 
ENDROOT
BRANCH   1  15
ATOM     10  C   UNL     1       6.130   4.021  13.546  0.00  0.00    +0.000 A 
ATOM     11  C   UNL     1       7.288   4.685  13.731  0.00  0.00    +0.000 A 
ATOM     12  N   UNL     1       7.550   5.332  14.911  0.00  0.00    +0.000 N 
ATOM     13  C   UNL     1       6.693   5.368  15.986  0.00  0.00    +0.000 A 
ATOM     14  O   UNL     1       6.997   5.958  17.018  0.00  0.00    +0.000 OA
ATOM     15  C   UNL     1       5.389   4.638  15.808  0.00  0.00    +0.000 A 
ATOM     16  C   UNL     1       5.168   4.004  14.642  0.00  0.00    +0.000 A 
ATOM     17  H   UNL     1       8.429   5.820  15.038  0.00  0.00    +0.000 HD
BRANCH  10  18
ATOM     18  C   UNL     1       5.871   3.296  12.257  0.00  0.00    +0.000 C 
ATOM     19  S   UNL     1       4.433   3.206  11.405  0.00  0.00    +0.000 S 
BRANCH  18  20
ATOM     20  N   UNL     1       6.945   2.618  11.747  0.00  0.00    +0.000 N 
ATOM     21  H   UNL     1       7.529   2.089  12.385  0.00  0.00    +0.000 HD
ATOM     22  H   UNL     1       7.248   2.675  10.784  0.00  0.00    +0.000 HD
ENDBRANCH  18  20
ENDBRANCH  10  18
ENDBRANCH   1  15
BRANCH   3  23
ATOM     23  C   UNL     1       2.540   2.902  19.434  0.00  0.00    +0.000 C 
BRANCH  23  24
ATOM     24  C   UNL     1       3.367   2.611  20.679  0.00  0.00    +0.000 C 
BRANCH  24  25
ATOM     25  C   UNL     1       4.689   1.943  20.362  0.00  0.00    +0.000 C 
ATOM     26  F   UNL     1       5.193   1.383  21.493  0.00  0.00    +0.000 F 
ATOM     27  F   UNL     1       4.471   0.922  19.495  0.00  0.00    +0.000 F 
ENDBRANCH  24  25
ENDBRANCH  23  24
ENDBRANCH   3  23
BRANCH   6  28
ATOM     28  C   UNL     1       1.538   8.396  20.020  0.00  0.00    +0.000 C 
BRANCH  28  29
ATOM     29  O   UNL     1       1.798   8.095  21.383  0.00  0.00    +0.000 OA
ATOM     30  H   UNL     1       1.783   8.943  21.861  0.00  0.00    +0.000 HD
ENDBRANCH  28  29
ENDBRANCH   6  28
TORSDOF 8
ENDMDL
MODEL 7
REMARK VINA RESULT:      -7.4      1.468      1.651
REMARK  Name = 
REMARK  8 active torsions:
REMARK  status: ('A' for Active; 'I' for Inactive)
REMARK    1  A    between atoms: N_1  and  C_2
REMARK    2  A    between atoms: C_2  and  C_4
REMARK    3  A    between atoms: C_9  and  C_10
REMARK    4  A    between atoms: N_12  and  C_13
REMARK    5  A    between atoms: C_13  and  C_14
REMARK    6  A    between atoms: C_14  and  C_15
REMARK    7  A    between atoms: C_20  and  C_21
REMARK    8  A    between atoms: C_21  and  O_22
REMARK                            x       y       z     vdW  Elec       q    Type
REMARK                         _______ _______ _______ _____ _____    ______ ____
ROOT
ATOM      1  C   UNL     1       4.830   4.944  16.944  0.00  0.00    +0.000 A 
ATOM      2  C   UNL     1       4.698   3.921  17.856  0.00  0.00    +0.000 A 
ATOM      3  N   UNL     1       3.840   4.349  18.839  0.00  0.00    +0.000 N 
ATOM      4  C   UNL     1       3.430   5.644  18.586  0.00  0.00    +0.000 A 
ATOM      5  C   UNL     1       2.594   6.518  19.306  0.00  0.00    +0.000 A 
ATOM      6  C   UNL     1       2.359   7.809  18.794  0.00  0.00    +0.000 A 
ATOM      7  C   UNL     1       2.939   8.194  17.581  0.00  0.00    +0.000 A 
ATOM      8  C   UNL     1       3.772   7.322  16.874  0.00  0.00    +0.000 A 
ATOM      9  C   UNL     1       4.029   6.032  17.382  0.00  0.00    +0.000 A 
ENDROOT
BRANCH   1  15
ATOM     10  C   UNL     1       6.199   4.113  13.520  0.00  0.00    +0.000 A 
ATOM     11  C   UNL     1       7.362   4.793  13.544  0.00  0.00    +0.000 A 
ATOM     12  N   UNL     1       7.726   5.529  14.643  0.00  0.00    +0.000 N 
ATOM     13  C   UNL     1       6.975   5.643  15.789  0.00  0.00    +0.000 A 
ATOM     14  O   UNL     1       7.368   6.311  16.740  0.00  0.00    +0.000 OA
ATOM     15  C   UNL     1       5.668   4.896  15.790  0.00  0.00    +0.000 A 
ATOM     16  C   UNL     1       5.345   4.174  14.701  0.00  0.00    +0.000 A 
ATOM     17  H   UNL     1       8.608   6.029  14.649  0.00  0.00    +0.000 HD
BRANCH  10  18
ATOM     18  C   UNL     1       5.827   3.290  12.320  0.00  0.00    +0.000 C 
ATOM     19  S   UNL     1       4.368   3.276  11.502  0.00  0.00    +0.000 S 
BRANCH  18  20
ATOM     20  N   UNL     1       6.806   2.445  11.872  0.00  0.00    +0.000 N 
ATOM     21  H   UNL     1       6.543   1.506  11.596  0.00  0.00    +0.000 HD
ATOM     22  H   UNL     1       7.793   2.666  11.873  0.00  0.00    +0.000 HD
ENDBRANCH  18  20
ENDBRANCH  10  18
ENDBRANCH   1  15
BRANCH   3  23
ATOM     23  C   UNL     1       3.474   3.541  19.990  0.00  0.00    +0.000 C 
BRANCH  23  24
ATOM     24  C   UNL     1       2.679   2.290  19.640  0.00  0.00    +0.000 C 
BRANCH  24  25
ATOM     25  C   UNL     1       3.562   1.103  19.315  0.00  0.00    +0.000 C 
ATOM     26  F   UNL     1       3.727   1.019  17.970  0.00  0.00    +0.000 F 
ATOM     27  F   UNL     1       4.796   1.316  19.839  0.00  0.00    +0.000 F 
ENDBRANCH  24  25
ENDBRANCH  23  24
ENDBRANCH   3  23
BRANCH   6  28
ATOM     28  C   UNL     1       1.515   8.787  19.573  0.00  0.00    +0.000 C 
BRANCH  28  29
ATOM     29  O   UNL     1       1.243   9.945  18.798  0.00  0.00    +0.000 OA
ATOM     30  H   UNL     1       0.669  10.512  19.341  0.00  0.00    +0.000 HD
ENDBRANCH  28  29
ENDBRANCH   6  28
TORSDOF 8
ENDMDL
MODEL 8
REMARK VINA RESULT:      -7.4      1.855      2.459
REMARK  Name = 
REMARK  8 active torsions:
REMARK  status: ('A' for Active; 'I' for Inactive)
REMARK    1  A    between atoms: N_1  and  C_2
REMARK    2  A    between atoms: C_2  and  C_4
REMARK    3  A    between atoms: C_9  and  C_10
REMARK    4  A    between atoms: N_12  and  C_13
REMARK    5  A    between atoms: C_13  and  C_14
REMARK    6  A    between atoms: C_14  and  C_15
REMARK    7  A    between atoms: C_20  and  C_21
REMARK    8  A    between atoms: C_21  and  O_22
REMARK                            x       y       z     vdW  Elec       q    Type
REMARK                         _______ _______ _______ _____ _____    ______ ____
ROOT
ATOM      1  C   UNL     1       4.213   5.673  18.449  0.00  0.00    +0.000 A 
ATOM      2  C   UNL     1       3.650   4.900  19.440  0.00  0.00    +0.000 A 
ATOM      3  N   UNL     1       2.547   5.570  19.912  0.00  0.00    +0.000 N 
ATOM      4  C   UNL     1       2.401   6.776  19.254  0.00  0.00    +0.000 A 
ATOM      5  C   UNL     1       1.464   7.815  19.404  0.00  0.00    +0.000 A 
ATOM      6  C   UNL     1       1.573   8.952  18.579  0.00  0.00    +0.000 A 
ATOM      7  C   UNL     1       2.590   9.024  17.622  0.00  0.00    +0.000 A 
ATOM      8  C   UNL     1       3.520   7.989  17.482  0.00  0.00    +0.000 A 
ATOM      9  C   UNL     1       3.433   6.852  18.312  0.00  0.00    +0.000 A 
ENDROOT
BRANCH   1  15
ATOM     10  C   UNL     1       6.618   4.833  15.657  0.00  0.00    +0.000 A 
ATOM     11  C   UNL     1       7.750   4.624  16.357  0.00  0.00    +0.000 A 
ATOM     12  N   UNL     1       7.769   4.751  17.723  0.00  0.00    +0.000 N 
ATOM     13  C   UNL     1       6.679   5.089  18.489  0.00  0.00    +0.000 A 
ATOM     14  O   UNL     1       6.765   5.175  19.710  0.00  0.00    +0.000 OA
ATOM     15  C   UNL     1       5.400   5.332  17.734  0.00  0.00    +0.000 A 
ATOM     16  C   UNL     1       5.412   5.188  16.396  0.00  0.00    +0.000 A 
ATOM     17  H   UNL     1       8.627   4.582  18.236  0.00  0.00    +0.000 HD
BRANCH  10  18
ATOM     18  C   UNL     1       6.608   4.663  14.165  0.00  0.00    +0.000 C 
ATOM     19  S   UNL     1       5.615   3.670  13.255  0.00  0.00    +0.000 S 
BRANCH  18  20
ATOM     20  N   UNL     1       7.541   5.404  13.492  0.00  0.00    +0.000 N 
ATOM     21  H   UNL     1       7.378   6.397  13.378  0.00  0.00    +0.000 HD
ATOM     22  H   UNL     1       8.349   5.012  13.025  0.00  0.00    +0.000 HD
ENDBRANCH  18  20
ENDBRANCH  10  18
ENDBRANCH   1  15
BRANCH   3  23
ATOM     23  C   UNL     1       1.705   5.067  20.984  0.00  0.00    +0.000 C 
BRANCH  23  24
ATOM     24  C   UNL     1       0.878   3.847  20.602  0.00  0.00    +0.000 C 
BRANCH  24  25
ATOM     25  C   UNL     1       1.495   2.547  21.076  0.00  0.00    +0.000 C 
ATOM     26  F   UNL     1       2.159   1.961  20.047  0.00  0.00    +0.000 F 
ATOM     27  F   UNL     1       2.426   2.822  22.025  0.00  0.00    +0.000 F 
ENDBRANCH  24  25
ENDBRANCH  23  24
ENDBRANCH   3  23
BRANCH   6  28
ATOM     28  C   UNL     1       0.619  10.106  18.757  0.00  0.00    +0.000 C 
BRANCH  28  29
ATOM     29  O   UNL     1       1.163  11.297  18.209  0.00  0.00    +0.000 OA
ATOM     30  H   UNL     1       0.742  12.037  18.681  0.00  0.00    +0.000 HD
ENDBRANCH  28  29
ENDBRANCH   6  28
TORSDOF 8
ENDMDL
MODEL 9
REMARK VINA RESULT:      -7.4      4.446      7.629
REMARK  Name = 
REMARK  8 active torsions:
REMARK  status: ('A' for Active; 'I' for Inactive)
REMARK    1  A    between atoms: N_1  and  C_2
REMARK    2  A    between atoms: C_2  and  C_4
REMARK    3  A    between atoms: C_9  and  C_10
REMARK    4  A    between atoms: N_12  and  C_13
REMARK    5  A    between atoms: C_13  and  C_14
REMARK    6  A    between atoms: C_14  and  C_15
REMARK    7  A    between atoms: C_20  and  C_21
REMARK    8  A    between atoms: C_21  and  O_22
REMARK                            x       y       z     vdW  Elec       q    Type
REMARK                         _______ _______ _______ _____ _____    ______ ____
ROOT
ATOM      1  C   UNL     1       2.230   7.789  18.672  0.00  0.00    +0.000 A 
ATOM      2  C   UNL     1       3.217   8.001  17.734  0.00  0.00    +0.000 A 
ATOM      3  N   UNL     1       3.983   6.862  17.674  0.00  0.00    +0.000 N 
ATOM      4  C   UNL     1       3.518   5.924  18.575  0.00  0.00    +0.000 A 
ATOM      5  C   UNL     1       3.981   4.637  18.907  0.00  0.00    +0.000 A 
ATOM      6  C   UNL     1       3.293   3.900  19.892  0.00  0.00    +0.000 A 
ATOM      7  C   UNL     1       2.162   4.446  20.506  0.00  0.00    +0.000 A 
ATOM      8  C   UNL     1       1.711   5.727  20.174  0.00  0.00    +0.000 A 
ATOM      9  C   UNL     1       2.399   6.482  19.203  0.00  0.00    +0.000 A 
ENDROOT
BRANCH   1  15
ATOM     10  C   UNL     1      -0.571  10.322  18.519  0.00  0.00    +0.000 A 
ATOM     11  C   UNL     1      -0.649  10.686  19.814  0.00  0.00    +0.000 A 
ATOM     12  N   UNL     1       0.181  10.131  20.754  0.00  0.00    +0.000 N 
ATOM     13  C   UNL     1       1.141   9.186  20.484  0.00  0.00    +0.000 A 
ATOM     14  O   UNL     1       1.858   8.739  21.375  0.00  0.00    +0.000 OA
ATOM     15  C   UNL     1       1.250   8.756  19.046  0.00  0.00    +0.000 A 
ATOM     16  C   UNL     1       0.429   9.328  18.146  0.00  0.00    +0.000 A 
ATOM     17  H   UNL     1       0.116  10.422  21.723  0.00  0.00    +0.000 HD
BRANCH  10  18
ATOM     18  C   UNL     1      -1.469  10.958  17.497  0.00  0.00    +0.000 C 
ATOM     19  S   UNL     1      -2.508  10.195  16.430  0.00  0.00    +0.000 S 
BRANCH  18  20
ATOM     20  N   UNL     1      -1.399  12.324  17.436  0.00  0.00    +0.000 N 
ATOM     21  H   UNL     1      -1.569  12.854  18.282  0.00  0.00    +0.000 HD
ATOM     22  H   UNL     1      -1.271  12.848  16.581  0.00  0.00    +0.000 HD
ENDBRANCH  18  20
ENDBRANCH  10  18
ENDBRANCH   1  15
BRANCH   3  23
ATOM     23  C   UNL     1       5.138   6.721  16.804  0.00  0.00    +0.000 C 
BRANCH  23  24
ATOM     24  C   UNL     1       6.422   7.303  17.381  0.00  0.00    +0.000 C 
BRANCH  24  25
ATOM     25  C   UNL     1       7.231   6.285  18.158  0.00  0.00    +0.000 C 
ATOM     26  F   UNL     1       7.693   5.333  17.307  0.00  0.00    +0.000 F 
ATOM     27  F   UNL     1       8.326   6.897  18.678  0.00  0.00    +0.000 F 
ENDBRANCH  24  25
ENDBRANCH  23  24
ENDBRANCH   3  23
BRANCH   6  28
ATOM     28  C   UNL     1       3.801   2.543  20.309  0.00  0.00    +0.000 C 
BRANCH  28  29
ATOM     29  O   UNL     1       5.094   2.305  19.774  0.00  0.00    +0.000 OA
ATOM     30  H   UNL     1       5.662   3.029  20.091  0.00  0.00    +0.000 HD
ENDBRANCH  28  29
ENDBRANCH   6  28
TORSDOF 8
ENDMDL
