MODEL 1
REMARK VINA RESULT:      -4.9      0.000      0.000
REMARK  Name = 
REMARK  4 active torsions:
REMARK  status: ('A' for Active; 'I' for Inactive)
REMARK    1  A    between atoms: N_1  and  C_2
REMARK    2  A    between atoms: C_2  and  C_3
REMARK    3  A    between atoms: C_3  and  O_4
REMARK    4  A    between atoms: O_4  and  C_5
REMARK                            x       y       z     vdW  Elec       q    Type
REMARK                         _______ _______ _______ _____ _____    ______ ____
ROOT
ATOM      1  C   UNL     1       4.181   3.614  18.557  0.00  0.00    +0.000 A 
ATOM      2  C   UNL     1       3.457   3.450  17.379  0.00  0.00    +0.000 A 
ATOM      3  N   UNL     1       2.154   3.079  17.324  0.00  0.00    +0.000 NA
ATOM      4  C   UNL     1       1.539   2.878  18.513  0.00  0.00    +0.000 A 
ATOM      5  C   UNL     1       2.169   3.034  19.738  0.00  0.00    +0.000 A 
ATOM      6 CL   UNL     1       1.311   2.785  21.205  0.00  0.00    +0.000 Cl
ATOM      7  C   UNL     1       3.511   3.409  19.761  0.00  0.00    +0.000 A 
ENDROOT
BRANCH   1   8
ATOM      8  O   UNL     1       5.480   4.011  18.424  0.00  0.00    +0.000 OA
BRANCH   8   9
ATOM      9  C   UNL     1       5.743   4.949  17.374  0.00  0.00    +0.000 C 
BRANCH   9  10
ATOM     10  C   UNL     1       7.069   4.569  16.705  0.00  0.00    +0.000 C 
BRANCH  10  11
ATOM     11  N   UNL     1       8.068   4.133  17.680  0.00  0.00    +0.000 NA
ATOM     12  H   UNL     1       8.841   3.683  17.189  0.00  0.00    +0.000 HD
ATOM     13  H   UNL     1       7.667   3.417  18.287  0.00  0.00    +0.000 HD
ENDBRANCH  10  11
ENDBRANCH   9  10
ENDBRANCH   8   9
ENDBRANCH   1   8
TORSDOF 4
ENDMDL
MODEL 2
REMARK VINA RESULT:      -4.8      2.586      2.774
REMARK  Name = 
REMARK  4 active torsions:
REMARK  status: ('A' for Active; 'I' for Inactive)
REMARK    1  A    between atoms: N_1  and  C_2
REMARK    2  A    between atoms: C_2  and  C_3
REMARK    3  A    between atoms: C_3  and  O_4
REMARK    4  A    between atoms: O_4  and  C_5
REMARK                            x       y       z     vdW  Elec       q    Type
REMARK                         _______ _______ _______ _____ _____    ______ ____
ROOT
ATOM      1  C   UNL     1       4.866   4.565  18.726  0.00  0.00    +0.000 A 
ATOM      2  C   UNL     1       3.964   3.505  18.714  0.00  0.00    +0.000 A 
ATOM      3  N   UNL     1       2.630   3.634  18.509  0.00  0.00    +0.000 NA
ATOM      4  C   UNL     1       2.178   4.890  18.287  0.00  0.00    +0.000 A 
ATOM      5  C   UNL     1       3.000   6.007  18.260  0.00  0.00    +0.000 A 
ATOM      6 CL   UNL     1       2.352   7.567  17.945  0.00  0.00    +0.000 Cl
ATOM      7  C   UNL     1       4.365   5.843  18.483  0.00  0.00    +0.000 A 
ENDROOT
BRANCH   1   8
ATOM      8  O   UNL     1       6.178   4.248  18.930  0.00  0.00    +0.000 OA
BRANCH   8   9
ATOM      9  C   UNL     1       7.125   4.957  18.122  0.00  0.00    +0.000 C 
BRANCH   9  10
ATOM     10  C   UNL     1       7.896   5.931  19.020  0.00  0.00    +0.000 C 
BRANCH  10  11
ATOM     11  N   UNL     1       8.012   5.435  20.391  0.00  0.00    +0.000 NA
ATOM     12  H   UNL     1       8.931   5.683  20.759  0.00  0.00    +0.000 HD
ATOM     13  H   UNL     1       7.975   4.416  20.392  0.00  0.00    +0.000 HD
ENDBRANCH  10  11
ENDBRANCH   9  10
ENDBRANCH   8   9
ENDBRANCH   1   8
TORSDOF 4
ENDMDL
MODEL 3
REMARK VINA RESULT:      -4.8      2.177      2.325
REMARK  Name = 
REMARK  4 active torsions:
REMARK  status: ('A' for Active; 'I' for Inactive)
REMARK    1  A    between atoms: N_1  and  C_2
REMARK    2  A    between atoms: C_2  and  C_3
REMARK    3  A    between atoms: C_3  and  O_4
REMARK    4  A    between atoms: O_4  and  C_5
REMARK                            x       y       z     vdW  Elec       q    Type
REMARK                         _______ _______ _______ _____ _____    ______ ____
ROOT
ATOM      1  C   UNL     1       4.695   3.681  19.109  0.00  0.00    +0.000 A 
ATOM      2  C   UNL     1       4.446   2.344  19.409  0.00  0.00    +0.000 A 
ATOM      3  N   UNL     1       3.278   1.705  19.157  0.00  0.00    +0.000 NA
ATOM      4  C   UNL     1       2.312   2.439  18.557  0.00  0.00    +0.000 A 
ATOM      5  C   UNL     1       2.470   3.770  18.203  0.00  0.00    +0.000 A 
ATOM      6 CL   UNL     1       1.204   4.627  17.421  0.00  0.00    +0.000 Cl
ATOM      7  C   UNL     1       3.680   4.401  18.483  0.00  0.00    +0.000 A 
ENDROOT
BRANCH   1   8
ATOM      8  O   UNL     1       5.937   4.155  19.417  0.00  0.00    +0.000 OA
BRANCH   8   9
ATOM      9  C   UNL     1       6.233   5.478  18.956  0.00  0.00    +0.000 C 
BRANCH   9  10
ATOM     10  C   UNL     1       7.726   5.746  19.174  0.00  0.00    +0.000 C 
BRANCH  10  11
ATOM     11  N   UNL     1       8.152   5.397  20.529  0.00  0.00    +0.000 NA
ATOM     12  H   UNL     1       9.072   5.800  20.705  0.00  0.00    +0.000 HD
ATOM     13  H   UNL     1       8.270   4.387  20.603  0.00  0.00    +0.000 HD
ENDBRANCH  10  11
ENDBRANCH   9  10
ENDBRANCH   8   9
ENDBRANCH   1   8
TORSDOF 4
ENDMDL
MODEL 4
REMARK VINA RESULT:      -4.7      3.253      4.283
REMARK  Name = 
REMARK  4 active torsions:
REMARK  status: ('A' for Active; 'I' for Inactive)
REMARK    1  A    between atoms: N_1  and  C_2
REMARK    2  A    between atoms: C_2  and  C_3
REMARK    3  A    between atoms: C_3  and  O_4
REMARK    4  A    between atoms: O_4  and  C_5
REMARK                            x       y       z     vdW  Elec       q    Type
REMARK                         _______ _______ _______ _____ _____    ______ ____
ROOT
ATOM      1  C   UNL     1       6.722   5.221  16.347  0.00  0.00    +0.000 A 
ATOM      2  C   UNL     1       7.370   4.709  17.469  0.00  0.00    +0.000 A 
ATOM      3  N   UNL     1       6.782   4.521  18.676  0.00  0.00    +0.000 NA
ATOM      4  C   UNL     1       5.471   4.846  18.759  0.00  0.00    +0.000 A 
ATOM      5  C   UNL     1       4.735   5.344  17.694  0.00  0.00    +0.000 A 
ATOM      6 CL   UNL     1       3.066   5.709  17.874  0.00  0.00    +0.000 Cl
ATOM      7  C   UNL     1       5.370   5.534  16.469  0.00  0.00    +0.000 A 
ENDROOT
BRANCH   1   8
ATOM      8  O   UNL     1       7.467   5.326  15.208  0.00  0.00    +0.000 OA
BRANCH   8   9
ATOM      9  C   UNL     1       6.911   4.710  14.040  0.00  0.00    +0.000 C 
BRANCH   9  10
ATOM     10  C   UNL     1       7.741   5.139  12.824  0.00  0.00    +0.000 C 
BRANCH  10  11
ATOM     11  N   UNL     1       8.855   6.009  13.202  0.00  0.00    +0.000 NA
ATOM     12  H   UNL     1       8.665   6.416  14.117  0.00  0.00    +0.000 HD
ATOM     13  H   UNL     1       8.914   6.793  12.553  0.00  0.00    +0.000 HD
ENDBRANCH  10  11
ENDBRANCH   9  10
ENDBRANCH   8   9
ENDBRANCH   1   8
TORSDOF 4
ENDMDL
MODEL 5
REMARK VINA RESULT:      -4.7      2.966      4.990
REMARK  Name = 
REMARK  4 active torsions:
REMARK  status: ('A' for Active; 'I' for Inactive)
REMARK    1  A    between atoms: N_1  and  C_2
REMARK    2  A    between atoms: C_2  and  C_3
REMARK    3  A    between atoms: C_3  and  O_4
REMARK    4  A    between atoms: O_4  and  C_5
REMARK                            x       y       z     vdW  Elec       q    Type
REMARK                         _______ _______ _______ _____ _____    ______ ____
ROOT
ATOM      1  C   UNL     1       3.840   3.157  17.918  0.00  0.00    +0.000 A 
ATOM      2  C   UNL     1       4.616   3.276  19.068  0.00  0.00    +0.000 A 
ATOM      3  N   UNL     1       5.549   4.240  19.269  0.00  0.00    +0.000 NA
ATOM      4  C   UNL     1       5.701   5.142  18.272  0.00  0.00    +0.000 A 
ATOM      5  C   UNL     1       4.963   5.118  17.098  0.00  0.00    +0.000 A 
ATOM      6 CL   UNL     1       5.197   6.315  15.889  0.00  0.00    +0.000 Cl
ATOM      7  C   UNL     1       4.018   4.110  16.918  0.00  0.00    +0.000 A 
ENDROOT
BRANCH   1   8
ATOM      8  O   UNL     1       2.936   2.135  17.895  0.00  0.00    +0.000 OA
BRANCH   8   9
ATOM      9  C   UNL     1       2.216   1.909  19.113  0.00  0.00    +0.000 C 
BRANCH   9  10
ATOM     10  C   UNL     1       0.872   2.639  19.025  0.00  0.00    +0.000 C 
BRANCH  10  11
ATOM     11  N   UNL     1       0.567   3.374  20.252  0.00  0.00    +0.000 NA
ATOM     12  H   UNL     1       0.479   4.367  20.034  0.00  0.00    +0.000 HD
ATOM     13  H   UNL     1       1.349   3.298  20.901  0.00  0.00    +0.000 HD
ENDBRANCH  10  11
ENDBRANCH   9  10
ENDBRANCH   8   9
ENDBRANCH   1   8
TORSDOF 4
ENDMDL
MODEL 6
REMARK VINA RESULT:      -4.7      3.051      4.972
REMARK  Name = 
REMARK  4 active torsions:
REMARK  status: ('A' for Active; 'I' for Inactive)
REMARK    1  A    between atoms: N_1  and  C_2
REMARK    2  A    between atoms: C_2  and  C_3
REMARK    3  A    between atoms: C_3  and  O_4
REMARK    4  A    between atoms: O_4  and  C_5
REMARK                            x       y       z     vdW  Elec       q    Type
REMARK                         _______ _______ _______ _____ _____    ______ ____
ROOT
ATOM      1  C   UNL     1       4.857   4.224  17.693  0.00  0.00    +0.000 A 
ATOM      2  C   UNL     1       6.092   4.556  18.244  0.00  0.00    +0.000 A 
ATOM      3  N   UNL     1       7.238   4.695  17.532  0.00  0.00    +0.000 NA
ATOM      4  C   UNL     1       7.139   4.507  16.195  0.00  0.00    +0.000 A 
ATOM      5  C   UNL     1       5.951   4.193  15.552  0.00  0.00    +0.000 A 
ATOM      6 CL   UNL     1       5.901   3.996  13.846  0.00  0.00    +0.000 Cl
ATOM      7  C   UNL     1       4.792   4.049  16.312  0.00  0.00    +0.000 A 
ENDROOT
BRANCH   1   8
ATOM      8  O   UNL     1       3.805   4.144  18.558  0.00  0.00    +0.000 OA
BRANCH   8   9
ATOM      9  C   UNL     1       3.793   3.004  19.424  0.00  0.00    +0.000 C 
BRANCH   9  10
ATOM     10  C   UNL     1       3.098   1.848  18.696  0.00  0.00    +0.000 C 
BRANCH  10  11
ATOM     11  N   UNL     1       4.034   0.779  18.350  0.00  0.00    +0.000 NA
ATOM     12  H   UNL     1       4.199   0.200  19.173  0.00  0.00    +0.000 HD
ATOM     13  H   UNL     1       4.938   1.180  18.103  0.00  0.00    +0.000 HD
ENDBRANCH  10  11
ENDBRANCH   9  10
ENDBRANCH   8   9
ENDBRANCH   1   8
TORSDOF 4
ENDMDL
MODEL 7
REMARK VINA RESULT:      -4.7      2.107      2.246
REMARK  Name = 
REMARK  4 active torsions:
REMARK  status: ('A' for Active; 'I' for Inactive)
REMARK    1  A    between atoms: N_1  and  C_2
REMARK    2  A    between atoms: C_2  and  C_3
REMARK    3  A    between atoms: C_3  and  O_4
REMARK    4  A    between atoms: O_4  and  C_5
REMARK                            x       y       z     vdW  Elec       q    Type
REMARK                         _______ _______ _______ _____ _____    ______ ____
ROOT
ATOM      1  C   UNL     1       4.492   4.323  19.148  0.00  0.00    +0.000 A 
ATOM      2  C   UNL     1       3.918   5.501  19.619  0.00  0.00    +0.000 A 
ATOM      3  N   UNL     1       2.591   5.674  19.839  0.00  0.00    +0.000 NA
ATOM      4  C   UNL     1       1.799   4.606  19.590  0.00  0.00    +0.000 A 
ATOM      5  C   UNL     1       2.278   3.386  19.137  0.00  0.00    +0.000 A 
ATOM      6 CL   UNL     1       1.210   2.068  18.868  0.00  0.00    +0.000 Cl
ATOM      7  C   UNL     1       3.646   3.242  18.912  0.00  0.00    +0.000 A 
ENDROOT
BRANCH   1   8
ATOM      8  O   UNL     1       5.849   4.321  19.002  0.00  0.00    +0.000 OA
BRANCH   8   9
ATOM      9  C   UNL     1       6.444   5.582  18.670  0.00  0.00    +0.000 C 
BRANCH   9  10
ATOM     10  C   UNL     1       7.915   5.551  19.097  0.00  0.00    +0.000 C 
BRANCH  10  11
ATOM     11  N   UNL     1       8.062   5.415  20.546  0.00  0.00    +0.000 NA
ATOM     12  H   UNL     1       7.911   4.441  20.807  0.00  0.00    +0.000 HD
ATOM     13  H   UNL     1       7.331   5.948  21.017  0.00  0.00    +0.000 HD
ENDBRANCH  10  11
ENDBRANCH   9  10
ENDBRANCH   8   9
ENDBRANCH   1   8
TORSDOF 4
ENDMDL
MODEL 8
REMARK VINA RESULT:      -4.7      1.769      1.769
REMARK  Name = 
REMARK  4 active torsions:
REMARK  status: ('A' for Active; 'I' for Inactive)
REMARK    1  A    between atoms: N_1  and  C_2
REMARK    2  A    between atoms: C_2  and  C_3
REMARK    3  A    between atoms: C_3  and  O_4
REMARK    4  A    between atoms: O_4  and  C_5
REMARK                            x       y       z     vdW  Elec       q    Type
REMARK                         _______ _______ _______ _____ _____    ______ ____
ROOT
ATOM      1  C   UNL     1       2.752   5.070  18.979  0.00  0.00    +0.000 A 
ATOM      2  C   UNL     1       2.118   4.560  17.849  0.00  0.00    +0.000 A 
ATOM      3  N   UNL     1       1.276   3.497  17.856  0.00  0.00    +0.000 NA
ATOM      4  C   UNL     1       1.043   2.926  19.060  0.00  0.00    +0.000 A 
ATOM      5  C   UNL     1       1.611   3.373  20.243  0.00  0.00    +0.000 A 
ATOM      6 CL   UNL     1       1.245   2.610  21.737  0.00  0.00    +0.000 Cl
ATOM      7  C   UNL     1       2.479   4.462  20.202  0.00  0.00    +0.000 A 
ENDROOT
BRANCH   1   8
ATOM      8  O   UNL     1       3.554   6.159  18.789  0.00  0.00    +0.000 OA
BRANCH   8   9
ATOM      9  C   UNL     1       4.753   5.928  18.041  0.00  0.00    +0.000 C 
BRANCH   9  10
ATOM     10  C   UNL     1       5.802   5.321  18.979  0.00  0.00    +0.000 C 
BRANCH  10  11
ATOM     11  N   UNL     1       6.353   4.074  18.448  0.00  0.00    +0.000 NA
ATOM     12  H   UNL     1       5.667   3.329  18.564  0.00  0.00    +0.000 HD
ATOM     13  H   UNL     1       7.165   3.796  18.999  0.00  0.00    +0.000 HD
ENDBRANCH  10  11
ENDBRANCH   9  10
ENDBRANCH   8   9
ENDBRANCH   1   8
TORSDOF 4
ENDMDL
MODEL 9
REMARK VINA RESULT:      -4.7      3.070      4.987
REMARK  Name = 
REMARK  4 active torsions:
REMARK  status: ('A' for Active; 'I' for Inactive)
REMARK    1  A    between atoms: N_1  and  C_2
REMARK    2  A    between atoms: C_2  and  C_3
REMARK    3  A    between atoms: C_3  and  O_4
REMARK    4  A    between atoms: O_4  and  C_5
REMARK                            x       y       z     vdW  Elec       q    Type
REMARK                         _______ _______ _______ _____ _____    ______ ____
ROOT
ATOM      1  C   UNL     1       3.454   3.804  18.529  0.00  0.00    +0.000 A 
ATOM      2  C   UNL     1       4.564   3.545  19.329  0.00  0.00    +0.000 A 
ATOM      3  N   UNL     1       5.790   4.092  19.141  0.00  0.00    +0.000 NA
ATOM      4  C   UNL     1       5.907   4.957  18.106  0.00  0.00    +0.000 A 
ATOM      5  C   UNL     1       4.857   5.292  17.266  0.00  0.00    +0.000 A 
ATOM      6 CL   UNL     1       5.079   6.419  15.988  0.00  0.00    +0.000 Cl
ATOM      7  C   UNL     1       3.611   4.707  17.480  0.00  0.00    +0.000 A 
ENDROOT
BRANCH   1   8
ATOM      8  O   UNL     1       2.292   3.178  18.877  0.00  0.00    +0.000 OA
BRANCH   8   9
ATOM      9  C   UNL     1       1.472   3.866  19.829  0.00  0.00    +0.000 C 
BRANCH   9  10
ATOM     10  C   UNL     1       1.207   2.926  21.010  0.00  0.00    +0.000 C 
BRANCH  10  11
ATOM     11  N   UNL     1       2.204   3.083  22.068  0.00  0.00    +0.000 NA
ATOM     12  H   UNL     1       2.362   2.180  22.515  0.00  0.00    +0.000 HD
ATOM     13  H   UNL     1       1.838   3.696  22.797  0.00  0.00    +0.000 HD
ENDBRANCH  10  11
ENDBRANCH   9  10
ENDBRANCH   8   9
ENDBRANCH   1   8
TORSDOF 4
ENDMDL
