MODEL 1
REMARK VINA RESULT:      -7.5      0.000      0.000
REMARK  Name = 
REMARK  5 active torsions:
REMARK  status: ('A' for Active; 'I' for Inactive)
REMARK    1  A    between atoms: C_1  and  C_2
REMARK    2  A    between atoms: C_4  and  C_5
REMARK    3  A    between atoms: C_11  and  C_12
REMARK    4  A    between atoms: C_11  and  C_13
REMARK    5  A    between atoms: C_17  and  C_18
REMARK                            x       y       z     vdW  Elec       q    Type
REMARK                         _______ _______ _______ _____ _____    ______ ____
ROOT
ATOM      1  C   UNL     1       3.274   6.016  18.098  0.00  0.00    +0.000 C 
ATOM      2  O   UNL     1       2.419   6.849  17.786  0.00  0.00    +0.000 OA
ATOM      3  N   UNL     1       3.031   5.050  19.081  0.00  0.00    +0.000 N 
ATOM      4  C   UNL     1       1.663   4.888  19.570  0.00  0.00    +0.000 C 
ATOM      5  C   UNL     1       1.242   3.421  19.507  0.00  0.00    +0.000 C 
ATOM      6  C   UNL     1       2.256   2.521  20.219  0.00  0.00    +0.000 C 
ATOM      7  C   UNL     1       3.701   2.756  19.721  0.00  0.00    +0.000 C 
ATOM      8  C   UNL     1       3.852   2.217  18.279  0.00  0.00    +0.000 C 
ATOM      9  C   UNL     1       4.046   4.248  19.785  0.00  0.00    +0.000 C 
ENDROOT
BRANCH   1  13
ATOM     10  C   UNL     1       6.390   4.131  14.715  0.00  0.00    +0.000 C 
ATOM     11  C   UNL     1       6.028   5.121  15.780  0.00  0.00    +0.000 A 
ATOM     12  C   UNL     1       4.778   5.127  16.355  0.00  0.00    +0.000 A 
ATOM     13  C   UNL     1       4.573   6.061  17.351  0.00  0.00    +0.000 A 
ATOM     14  N   UNL     1       5.522   6.925  17.775  0.00  0.00    +0.000 NA
ATOM     15  C   UNL     1       6.711   6.840  17.153  0.00  0.00    +0.000 A 
ATOM     16  C   UNL     1       7.814   7.746  17.601  0.00  0.00    +0.000 C 
ATOM     17  N   UNL     1       6.997   5.978  16.162  0.00  0.00    +0.000 NA
ENDBRANCH   1  13
BRANCH   7  18
ATOM     18  C   UNL     1       4.651   1.919  20.560  0.00  0.00    +0.000 C 
ATOM     19  N   UNL     1       5.440   1.222  21.256  0.00  0.00    +0.000 NA
ENDBRANCH   7  18
TORSDOF 2
ENDMDL
MODEL 2
REMARK VINA RESULT:      -7.1      0.662      1.919
REMARK  Name = 
REMARK  5 active torsions:
REMARK  status: ('A' for Active; 'I' for Inactive)
REMARK    1  A    between atoms: C_1  and  C_2
REMARK    2  A    between atoms: C_4  and  C_5
REMARK    3  A    between atoms: C_11  and  C_12
REMARK    4  A    between atoms: C_11  and  C_13
REMARK    5  A    between atoms: C_17  and  C_18
REMARK                            x       y       z     vdW  Elec       q    Type
REMARK                         _______ _______ _______ _____ _____    ______ ____
ROOT
ATOM      1  C   UNL     1       3.295   5.779  18.104  0.00  0.00    +0.000 C 
ATOM      2  O   UNL     1       2.448   6.591  17.722  0.00  0.00    +0.000 OA
ATOM      3  N   UNL     1       3.014   4.844  19.107  0.00  0.00    +0.000 N 
ATOM      4  C   UNL     1       1.626   4.684  19.537  0.00  0.00    +0.000 C 
ATOM      5  C   UNL     1       1.223   3.211  19.505  0.00  0.00    +0.000 C 
ATOM      6  C   UNL     1       2.211   2.348  20.296  0.00  0.00    +0.000 C 
ATOM      7  C   UNL     1       3.675   2.582  19.858  0.00  0.00    +0.000 C 
ATOM      8  C   UNL     1       3.900   1.994  18.445  0.00  0.00    +0.000 C 
ATOM      9  C   UNL     1       4.003   4.079  19.886  0.00  0.00    +0.000 C 
ENDROOT
BRANCH   1  13
ATOM     10  C   UNL     1       7.766   7.843  17.425  0.00  0.00    +0.000 C 
ATOM     11  C   UNL     1       6.706   6.835  17.099  0.00  0.00    +0.000 A 
ATOM     12  C   UNL     1       5.546   6.754  17.834  0.00  0.00    +0.000 A 
ATOM     13  C   UNL     1       4.627   5.812  17.418  0.00  0.00    +0.000 A 
ATOM     14  N   UNL     1       4.812   5.008  16.346  0.00  0.00    +0.000 NA
ATOM     15  C   UNL     1       5.976   5.164  15.692  0.00  0.00    +0.000 A 
ATOM     16  C   UNL     1       6.225   4.328  14.476  0.00  0.00    +0.000 C 
ATOM     17  N   UNL     1       6.936   6.040  16.034  0.00  0.00    +0.000 NA
ENDBRANCH   1  13
BRANCH   7  18
ATOM     18  C   UNL     1       4.593   1.785  20.770  0.00  0.00    +0.000 C 
ATOM     19  N   UNL     1       5.356   1.123  21.526  0.00  0.00    +0.000 NA
ENDBRANCH   7  18
TORSDOF 2
ENDMDL
MODEL 3
REMARK VINA RESULT:      -6.6      2.210      5.640
REMARK  Name = 
REMARK  5 active torsions:
REMARK  status: ('A' for Active; 'I' for Inactive)
REMARK    1  A    between atoms: C_1  and  C_2
REMARK    2  A    between atoms: C_4  and  C_5
REMARK    3  A    between atoms: C_11  and  C_12
REMARK    4  A    between atoms: C_11  and  C_13
REMARK    5  A    between atoms: C_17  and  C_18
REMARK                            x       y       z     vdW  Elec       q    Type
REMARK                         _______ _______ _______ _____ _____    ______ ____
ROOT
ATOM      1  C   UNL     1       3.328   3.573  17.350  0.00  0.00    +0.000 C 
ATOM      2  O   UNL     1       2.660   2.816  16.642  0.00  0.00    +0.000 OA
ATOM      3  N   UNL     1       4.622   3.965  16.987  0.00  0.00    +0.000 N 
ATOM      4  C   UNL     1       5.086   3.655  15.636  0.00  0.00    +0.000 C 
ATOM      5  C   UNL     1       5.644   4.906  14.961  0.00  0.00    +0.000 C 
ATOM      6  C   UNL     1       6.708   5.580  15.833  0.00  0.00    +0.000 C 
ATOM      7  C   UNL     1       6.206   5.843  17.272  0.00  0.00    +0.000 C 
ATOM      8  C   UNL     1       5.142   6.965  17.258  0.00  0.00    +0.000 C 
ATOM      9  C   UNL     1       5.636   4.555  17.877  0.00  0.00    +0.000 C 
ENDROOT
BRANCH   1  13
ATOM     10  C   UNL     1       1.894   7.347  20.250  0.00  0.00    +0.000 C 
ATOM     11  C   UNL     1       2.055   5.887  19.955  0.00  0.00    +0.000 A 
ATOM     12  C   UNL     1       2.539   5.451  18.744  0.00  0.00    +0.000 A 
ATOM     13  C   UNL     1       2.679   4.086  18.601  0.00  0.00    +0.000 A 
ATOM     14  N   UNL     1       2.382   3.196  19.575  0.00  0.00    +0.000 NA
ATOM     15  C   UNL     1       1.917   3.719  20.723  0.00  0.00    +0.000 A 
ATOM     16  C   UNL     1       1.604   2.789  21.852  0.00  0.00    +0.000 C 
ATOM     17  N   UNL     1       1.731   5.031  20.946  0.00  0.00    +0.000 NA
ENDBRANCH   1  13
BRANCH   7  18
ATOM     18  C   UNL     1       7.356   6.396  18.099  0.00  0.00    +0.000 C 
ATOM     19  N   UNL     1       8.308   6.855  18.786  0.00  0.00    +0.000 NA
ENDBRANCH   7  18
TORSDOF 2
ENDMDL
MODEL 4
REMARK VINA RESULT:      -6.5      2.153      5.633
REMARK  Name = 
REMARK  5 active torsions:
REMARK  status: ('A' for Active; 'I' for Inactive)
REMARK    1  A    between atoms: C_1  and  C_2
REMARK    2  A    between atoms: C_4  and  C_5
REMARK    3  A    between atoms: C_11  and  C_12
REMARK    4  A    between atoms: C_11  and  C_13
REMARK    5  A    between atoms: C_17  and  C_18
REMARK                            x       y       z     vdW  Elec       q    Type
REMARK                         _______ _______ _______ _____ _____    ______ ____
ROOT
ATOM      1  C   UNL     1       4.013   3.354  17.682  0.00  0.00    +0.000 C 
ATOM      2  O   UNL     1       3.480   2.399  17.111  0.00  0.00    +0.000 OA
ATOM      3  N   UNL     1       5.198   3.926  17.203  0.00  0.00    +0.000 N 
ATOM      4  C   UNL     1       5.674   3.528  15.880  0.00  0.00    +0.000 C 
ATOM      5  C   UNL     1       5.965   4.758  15.024  0.00  0.00    +0.000 C 
ATOM      6  C   UNL     1       6.907   5.728  15.746  0.00  0.00    +0.000 C 
ATOM      7  C   UNL     1       6.405   6.084  17.165  0.00  0.00    +0.000 C 
ATOM      8  C   UNL     1       5.148   6.979  17.066  0.00  0.00    +0.000 C 
ATOM      9  C   UNL     1       6.106   4.806  17.957  0.00  0.00    +0.000 C 
ENDROOT
BRANCH   1  13
ATOM     10  C   UNL     1       1.454   2.663  21.887  0.00  0.00    +0.000 C 
ATOM     11  C   UNL     1       2.078   3.537  20.842  0.00  0.00    +0.000 A 
ATOM     12  C   UNL     1       2.820   3.002  19.813  0.00  0.00    +0.000 A 
ATOM     13  C   UNL     1       3.314   3.901  18.890  0.00  0.00    +0.000 A 
ATOM     14  N   UNL     1       3.092   5.234  18.948  0.00  0.00    +0.000 NA
ATOM     15  C   UNL     1       2.355   5.659  19.989  0.00  0.00    +0.000 A 
ATOM     16  C   UNL     1       2.045   7.119  20.091  0.00  0.00    +0.000 C 
ATOM     17  N   UNL     1       1.848   4.862  20.945  0.00  0.00    +0.000 NA
ENDBRANCH   1  13
BRANCH   7  18
ATOM     18  C   UNL     1       7.452   6.944  17.853  0.00  0.00    +0.000 C 
ATOM     19  N   UNL     1       8.320   7.659  18.425  0.00  0.00    +0.000 NA
ENDBRANCH   7  18
TORSDOF 2
ENDMDL
MODEL 5
REMARK VINA RESULT:      -6.3      2.312      3.382
REMARK  Name = 
REMARK  5 active torsions:
REMARK  status: ('A' for Active; 'I' for Inactive)
REMARK    1  A    between atoms: C_1  and  C_2
REMARK    2  A    between atoms: C_4  and  C_5
REMARK    3  A    between atoms: C_11  and  C_12
REMARK    4  A    between atoms: C_11  and  C_13
REMARK    5  A    between atoms: C_17  and  C_18
REMARK                            x       y       z     vdW  Elec       q    Type
REMARK                         _______ _______ _______ _____ _____    ______ ____
ROOT
ATOM      1  C   UNL     1       3.627   3.192  17.448  0.00  0.00    +0.000 C 
ATOM      2  O   UNL     1       3.561   1.987  17.191  0.00  0.00    +0.000 OA
ATOM      3  N   UNL     1       2.591   3.856  18.114  0.00  0.00    +0.000 N 
ATOM      4  C   UNL     1       1.526   3.055  18.715  0.00  0.00    +0.000 C 
ATOM      5  C   UNL     1       1.313   3.454  20.173  0.00  0.00    +0.000 C 
ATOM      6  C   UNL     1       1.092   4.964  20.310  0.00  0.00    +0.000 C 
ATOM      7  C   UNL     1       2.204   5.784  19.616  0.00  0.00    +0.000 C 
ATOM      8  C   UNL     1       3.525   5.649  20.407  0.00  0.00    +0.000 C 
ATOM      9  C   UNL     1       2.383   5.314  18.168  0.00  0.00    +0.000 C 
ENDROOT
BRANCH   1  13
ATOM     10  C   UNL     1       6.889   4.600  13.972  0.00  0.00    +0.000 C 
ATOM     11  C   UNL     1       6.416   4.515  15.391  0.00  0.00    +0.000 A 
ATOM     12  C   UNL     1       5.195   3.963  15.706  0.00  0.00    +0.000 A 
ATOM     13  C   UNL     1       4.883   3.905  17.049  0.00  0.00    +0.000 A 
ATOM     14  N   UNL     1       5.707   4.341  18.029  0.00  0.00    +0.000 NA
ATOM     15  C   UNL     1       6.877   4.862  17.621  0.00  0.00    +0.000 A 
ATOM     16  C   UNL     1       7.847   5.330  18.660  0.00  0.00    +0.000 C 
ATOM     17  N   UNL     1       7.258   4.977  16.338  0.00  0.00    +0.000 NA
ENDBRANCH   1  13
BRANCH   7  18
ATOM     18  C   UNL     1       1.844   7.259  19.691  0.00  0.00    +0.000 C 
ATOM     19  N   UNL     1       1.546   8.482  19.755  0.00  0.00    +0.000 NA
ENDBRANCH   7  18
TORSDOF 2
ENDMDL
MODEL 6
REMARK VINA RESULT:      -6.2      2.365      3.841
REMARK  Name = 
REMARK  5 active torsions:
REMARK  status: ('A' for Active; 'I' for Inactive)
REMARK    1  A    between atoms: C_1  and  C_2
REMARK    2  A    between atoms: C_4  and  C_5
REMARK    3  A    between atoms: C_11  and  C_12
REMARK    4  A    between atoms: C_11  and  C_13
REMARK    5  A    between atoms: C_17  and  C_18
REMARK                            x       y       z     vdW  Elec       q    Type
REMARK                         _______ _______ _______ _____ _____    ______ ____
ROOT
ATOM      1  C   UNL     1       3.754   3.058  17.589  0.00  0.00    +0.000 C 
ATOM      2  O   UNL     1       3.669   1.835  17.453  0.00  0.00    +0.000 OA
ATOM      3  N   UNL     1       2.698   3.813  18.112  0.00  0.00    +0.000 N 
ATOM      4  C   UNL     1       1.574   3.104  18.719  0.00  0.00    +0.000 C 
ATOM      5  C   UNL     1       1.279   3.659  20.111  0.00  0.00    +0.000 C 
ATOM      6  C   UNL     1       1.096   5.179  20.076  0.00  0.00    +0.000 C 
ATOM      7  C   UNL     1       2.274   5.896  19.377  0.00  0.00    +0.000 C 
ATOM      8  C   UNL     1       3.537   5.815  20.264  0.00  0.00    +0.000 C 
ATOM      9  C   UNL     1       2.531   5.272  18.000  0.00  0.00    +0.000 C 
ENDROOT
BRANCH   1  13
ATOM     10  C   UNL     1       7.834   5.635  18.782  0.00  0.00    +0.000 C 
ATOM     11  C   UNL     1       6.942   4.945  17.796  0.00  0.00    +0.000 A 
ATOM     12  C   UNL     1       5.820   4.261  18.204  0.00  0.00    +0.000 A 
ATOM     13  C   UNL     1       5.055   3.697  17.203  0.00  0.00    +0.000 A 
ATOM     14  N   UNL     1       5.348   3.801  15.887  0.00  0.00    +0.000 NA
ATOM     15  C   UNL     1       6.463   4.490  15.589  0.00  0.00    +0.000 A 
ATOM     16  C   UNL     1       6.823   4.670  14.147  0.00  0.00    +0.000 C 
ATOM     17  N   UNL     1       7.278   5.057  16.495  0.00  0.00    +0.000 NA
ENDBRANCH   1  13
BRANCH   7  18
ATOM     18  C   UNL     1       1.955   7.379  19.275  0.00  0.00    +0.000 C 
ATOM     19  N   UNL     1       1.689   8.609  19.192  0.00  0.00    +0.000 NA
ENDBRANCH   7  18
TORSDOF 2
ENDMDL
MODEL 7
REMARK VINA RESULT:      -6.2      2.680      5.514
REMARK  Name = 
REMARK  5 active torsions:
REMARK  status: ('A' for Active; 'I' for Inactive)
REMARK    1  A    between atoms: C_1  and  C_2
REMARK    2  A    between atoms: C_4  and  C_5
REMARK    3  A    between atoms: C_11  and  C_12
REMARK    4  A    between atoms: C_11  and  C_13
REMARK    5  A    between atoms: C_17  and  C_18
REMARK                            x       y       z     vdW  Elec       q    Type
REMARK                         _______ _______ _______ _____ _____    ______ ____
ROOT
ATOM      1  C   UNL     1       2.541   5.375  19.537  0.00  0.00    +0.000 C 
ATOM      2  O   UNL     1       1.717   4.523  19.876  0.00  0.00    +0.000 OA
ATOM      3  N   UNL     1       3.765   5.021  18.957  0.00  0.00    +0.000 N 
ATOM      4  C   UNL     1       3.959   3.634  18.539  0.00  0.00    +0.000 C 
ATOM      5  C   UNL     1       4.447   3.573  17.094  0.00  0.00    +0.000 C 
ATOM      6  C   UNL     1       5.685   4.452  16.888  0.00  0.00    +0.000 C 
ATOM      7  C   UNL     1       5.469   5.897  17.393  0.00  0.00    +0.000 C 
ATOM      8  C   UNL     1       4.479   6.634  16.461  0.00  0.00    +0.000 C 
ATOM      9  C   UNL     1       4.953   5.883  18.836  0.00  0.00    +0.000 C 
ENDROOT
BRANCH   1  13
ATOM     10  C   UNL     1       0.558   8.977  22.331  0.00  0.00    +0.000 C 
ATOM     11  C   UNL     1       1.182   8.470  21.067  0.00  0.00    +0.000 A 
ATOM     12  C   UNL     1       1.637   7.175  20.963  0.00  0.00    +0.000 A 
ATOM     13  C   UNL     1       2.159   6.810  19.739  0.00  0.00    +0.000 A 
ATOM     14  N   UNL     1       2.224   7.642  18.674  0.00  0.00    +0.000 NA
ATOM     15  C   UNL     1       1.753   8.885  18.874  0.00  0.00    +0.000 A 
ATOM     16  C   UNL     1       1.765   9.843  17.724  0.00  0.00    +0.000 C 
ATOM     17  N   UNL     1       1.245   9.335  20.034  0.00  0.00    +0.000 NA
ENDBRANCH   1  13
BRANCH   7  18
ATOM     18  C   UNL     1       6.777   6.661  17.267  0.00  0.00    +0.000 C 
ATOM     19  N   UNL     1       7.863   7.294  17.163  0.00  0.00    +0.000 NA
ENDBRANCH   7  18
TORSDOF 2
ENDMDL
MODEL 8
REMARK VINA RESULT:      -5.9      3.140      5.209
REMARK  Name = 
REMARK  5 active torsions:
REMARK  status: ('A' for Active; 'I' for Inactive)
REMARK    1  A    between atoms: C_1  and  C_2
REMARK    2  A    between atoms: C_4  and  C_5
REMARK    3  A    between atoms: C_11  and  C_12
REMARK    4  A    between atoms: C_11  and  C_13
REMARK    5  A    between atoms: C_17  and  C_18
REMARK                            x       y       z     vdW  Elec       q    Type
REMARK                         _______ _______ _______ _____ _____    ______ ____
ROOT
ATOM      1  C   UNL     1       3.241   7.341  17.907  0.00  0.00    +0.000 C 
ATOM      2  O   UNL     1       4.176   8.019  17.472  0.00  0.00    +0.000 OA
ATOM      3  N   UNL     1       3.216   5.950  17.762  0.00  0.00    +0.000 N 
ATOM      4  C   UNL     1       4.428   5.279  17.295  0.00  0.00    +0.000 C 
ATOM      5  C   UNL     1       4.796   4.128  18.229  0.00  0.00    +0.000 C 
ATOM      6  C   UNL     1       3.612   3.177  18.432  0.00  0.00    +0.000 C 
ATOM      7  C   UNL     1       2.330   3.923  18.870  0.00  0.00    +0.000 C 
ATOM      8  C   UNL     1       2.492   4.438  20.318  0.00  0.00    +0.000 C 
ATOM      9  C   UNL     1       2.036   5.080  17.907  0.00  0.00    +0.000 C 
ENDROOT
BRANCH   1  13
ATOM     10  C   UNL     1      -0.482  10.635  17.945  0.00  0.00    +0.000 C 
ATOM     11  C   UNL     1       0.431   9.657  18.618  0.00  0.00    +0.000 A 
ATOM     12  C   UNL     1       1.337   8.911  17.899  0.00  0.00    +0.000 A 
ATOM     13  C   UNL     1       2.151   8.071  18.632  0.00  0.00    +0.000 A 
ATOM     14  N   UNL     1       2.102   7.968  19.979  0.00  0.00    +0.000 NA
ATOM     15  C   UNL     1       1.186   8.738  20.592  0.00  0.00    +0.000 A 
ATOM     16  C   UNL     1       1.106   8.696  22.086  0.00  0.00    +0.000 C 
ATOM     17  N   UNL     1       0.340   9.570  19.961  0.00  0.00    +0.000 NA
ENDBRANCH   1  13
BRANCH   7  18
ATOM     18  C   UNL     1       1.181   2.930  18.928  0.00  0.00    +0.000 C 
ATOM     19  N   UNL     1       0.226   2.107  18.977  0.00  0.00    +0.000 NA
ENDBRANCH   7  18
TORSDOF 2
ENDMDL
MODEL 9
REMARK VINA RESULT:      -5.9      2.613      5.398
REMARK  Name = 
REMARK  5 active torsions:
REMARK  status: ('A' for Active; 'I' for Inactive)
REMARK    1  A    between atoms: C_1  and  C_2
REMARK    2  A    between atoms: C_4  and  C_5
REMARK    3  A    between atoms: C_11  and  C_12
REMARK    4  A    between atoms: C_11  and  C_13
REMARK    5  A    between atoms: C_17  and  C_18
REMARK                            x       y       z     vdW  Elec       q    Type
REMARK                         _______ _______ _______ _____ _____    ______ ____
ROOT
ATOM      1  C   UNL     1       2.623   5.263  19.417  0.00  0.00    +0.000 C 
ATOM      2  O   UNL     1       1.874   4.331  19.720  0.00  0.00    +0.000 OA
ATOM      3  N   UNL     1       3.904   5.036  18.902  0.00  0.00    +0.000 N 
ATOM      4  C   UNL     1       4.259   3.676  18.502  0.00  0.00    +0.000 C 
ATOM      5  C   UNL     1       4.824   3.665  17.083  0.00  0.00    +0.000 C 
ATOM      6  C   UNL     1       5.975   4.666  16.935  0.00  0.00    +0.000 C 
ATOM      7  C   UNL     1       5.586   6.082  17.420  0.00  0.00    +0.000 C 
ATOM      8  C   UNL     1       4.574   6.713  16.435  0.00  0.00    +0.000 C 
ATOM      9  C   UNL     1       5.002   6.015  18.836  0.00  0.00    +0.000 C 
ENDROOT
BRANCH   1  13
ATOM     10  C   UNL     1       1.835   9.851  17.673  0.00  0.00    +0.000 C 
ATOM     11  C   UNL     1       1.768   8.811  18.749  0.00  0.00    +0.000 A 
ATOM     12  C   UNL     1       2.155   7.512  18.514  0.00  0.00    +0.000 A 
ATOM     13  C   UNL     1       2.085   6.652  19.591  0.00  0.00    +0.000 A 
ATOM     14  N   UNL     1       1.679   7.028  20.825  0.00  0.00    +0.000 NA
ATOM     15  C   UNL     1       1.323   8.318  20.955  0.00  0.00    +0.000 A 
ATOM     16  C   UNL     1       0.898   8.805  22.305  0.00  0.00    +0.000 C 
ATOM     17  N   UNL     1       1.341   9.222  19.961  0.00  0.00    +0.000 NA
ENDBRANCH   1  13
BRANCH   7  18
ATOM     18  C   UNL     1       6.813   6.976  17.355  0.00  0.00    +0.000 C 
ATOM     19  N   UNL     1       7.833   7.717  17.302  0.00  0.00    +0.000 NA
ENDBRANCH   7  18
TORSDOF 2
ENDMDL
