MODEL 1
REMARK VINA RESULT:      -7.9      0.000      0.000
REMARK  Name = 
REMARK  4 active torsions:
REMARK  status: ('A' for Active; 'I' for Inactive)
REMARK    1  A    between atoms: C_1  and  C_2
REMARK    2  A    between atoms: C_3  and  C_4
REMARK    3  A    between atoms: N_8  and  C_9
REMARK    4  A    between atoms: C_13  and  C_14
REMARK                            x       y       z     vdW  Elec       q    Type
REMARK                         _______ _______ _______ _____ _____    ______ ____
ROOT
ATOM      1  C   UNL     1       3.774   1.756  19.526  0.00  0.00    +0.000 C 
ATOM      2  C   UNL     1       3.480   3.226  19.304  0.00  0.00    +0.000 C 
ATOM      3  C   UNL     1       2.691   3.930  20.141  0.00  0.00    +0.000 C 
ATOM      4  C   UNL     1       2.430   5.378  19.959  0.00  0.00    +0.000 C 
ATOM      5  O   UNL     1       1.714   5.975  20.763  0.00  0.00    +0.000 OA
ATOM      6  N   UNL     1       3.004   5.985  18.858  0.00  0.00    +0.000 N 
ATOM      7  C   UNL     1       2.733   7.394  18.620  0.00  0.00    +0.000 C 
ATOM      8  C   UNL     1       3.697   5.324  17.850  0.00  0.00    +0.000 C 
ATOM      9  O   UNL     1       3.919   5.867  16.772  0.00  0.00    +0.000 OA
ATOM     10  C   UNL     1       4.097   3.892  18.144  0.00  0.00    +0.000 C 
ATOM     11  C   UNL     1       4.976   3.273  17.321  0.00  0.00    +0.000 C 
ENDROOT
BRANCH  11  12
ATOM     12  C   UNL     1       5.734   3.867  16.232  0.00  0.00    +0.000 C 
ATOM     13  C   UNL     1       5.397   3.643  14.953  0.00  0.00    +0.000 C 
ATOM     14  C   UNL     1       6.290   4.155  13.925  0.00  0.00    +0.000 A 
ATOM     15  C   UNL     1       6.209   3.691  12.610  0.00  0.00    +0.000 A 
ATOM     16  C   UNL     1       7.055   4.213  11.631  0.00  0.00    +0.000 A 
ATOM     17  C   UNL     1       7.971   5.211  11.961  0.00  0.00    +0.000 A 
ATOM     18  C   UNL     1       8.062   5.672  13.276  0.00  0.00    +0.000 A 
ATOM     19  C   UNL     1       7.240   5.126  14.259  0.00  0.00    +0.000 A 
ATOM     20  O   UNL     1       7.375   5.608  15.536  0.00  0.00    +0.000 OA
ATOM     21  C   UNL     1       6.953   4.696  16.570  0.00  0.00    +0.000 C 
ENDBRANCH  11  12
BRANCH   3  22
ATOM     22  C   UNL     1       2.019   3.288  21.344  0.00  0.00    +0.000 C 
ATOM     23  N   UNL     1       1.462   2.754  22.342  0.00  0.00    +0.000 NA
ENDBRANCH   3  22
TORSDOF 2
ENDMDL
MODEL 2
REMARK VINA RESULT:      -6.6      4.410      6.862
REMARK  Name = 
REMARK  4 active torsions:
REMARK  status: ('A' for Active; 'I' for Inactive)
REMARK    1  A    between atoms: C_1  and  C_2
REMARK    2  A    between atoms: C_3  and  C_4
REMARK    3  A    between atoms: N_8  and  C_9
REMARK    4  A    between atoms: C_13  and  C_14
REMARK                            x       y       z     vdW  Elec       q    Type
REMARK                         _______ _______ _______ _____ _____    ______ ____
ROOT
ATOM      1  C   UNL     1       2.184  10.985  17.601  0.00  0.00    +0.000 C 
ATOM      2  C   UNL     1       1.492  10.341  18.786  0.00  0.00    +0.000 C 
ATOM      3  C   UNL     1       0.612  11.017  19.552  0.00  0.00    +0.000 C 
ATOM      4  C   UNL     1      -0.103  10.386  20.687  0.00  0.00    +0.000 C 
ATOM      5  O   UNL     1      -0.908  11.046  21.344  0.00  0.00    +0.000 OA
ATOM      6  N   UNL     1       0.197   9.065  20.962  0.00  0.00    +0.000 N 
ATOM      7  C   UNL     1      -0.450   8.426  22.096  0.00  0.00    +0.000 C 
ATOM      8  C   UNL     1       1.199   8.328  20.342  0.00  0.00    +0.000 C 
ATOM      9  O   UNL     1       1.605   7.276  20.828  0.00  0.00    +0.000 OA
ATOM     10  C   UNL     1       1.789   8.929  19.083  0.00  0.00    +0.000 C 
ATOM     11  C   UNL     1       2.585   8.164  18.298  0.00  0.00    +0.000 C 
ENDROOT
BRANCH  11  12
ATOM     12  C   UNL     1       2.841   6.739  18.427  0.00  0.00    +0.000 C 
ATOM     13  C   UNL     1       1.926   5.834  18.047  0.00  0.00    +0.000 C 
ATOM     14  C   UNL     1       2.201   4.437  18.344  0.00  0.00    +0.000 A 
ATOM     15  C   UNL     1       1.183   3.481  18.297  0.00  0.00    +0.000 A 
ATOM     16  C   UNL     1       1.471   2.141  18.556  0.00  0.00    +0.000 A 
ATOM     17  C   UNL     1       2.779   1.751  18.846  0.00  0.00    +0.000 A 
ATOM     18  C   UNL     1       3.798   2.704  18.902  0.00  0.00    +0.000 A 
ATOM     19  C   UNL     1       3.503   4.047  18.675  0.00  0.00    +0.000 A 
ATOM     20  O   UNL     1       4.539   4.943  18.751  0.00  0.00    +0.000 OA
ATOM     21  C   UNL     1       4.142   6.294  19.060  0.00  0.00    +0.000 C 
ENDBRANCH  11  12
BRANCH   3  22
ATOM     22  C   UNL     1       0.281  12.479  19.297  0.00  0.00    +0.000 C 
ATOM     23  N   UNL     1       0.006  13.692  19.086  0.00  0.00    +0.000 NA
ENDBRANCH   3  22
TORSDOF 2
ENDMDL
MODEL 3
REMARK VINA RESULT:      -6.5      1.881      2.964
REMARK  Name = 
REMARK  4 active torsions:
REMARK  status: ('A' for Active; 'I' for Inactive)
REMARK    1  A    between atoms: C_1  and  C_2
REMARK    2  A    between atoms: C_3  and  C_4
REMARK    3  A    between atoms: N_8  and  C_9
REMARK    4  A    between atoms: C_13  and  C_14
REMARK                            x       y       z     vdW  Elec       q    Type
REMARK                         _______ _______ _______ _____ _____    ______ ____
ROOT
ATOM      1  C   UNL     1       3.542   7.749  17.826  0.00  0.00    +0.000 C 
ATOM      2  C   UNL     1       3.543   6.244  18.009  0.00  0.00    +0.000 C 
ATOM      3  C   UNL     1       2.865   5.648  19.010  0.00  0.00    +0.000 C 
ATOM      4  C   UNL     1       2.822   4.174  19.175  0.00  0.00    +0.000 C 
ATOM      5  O   UNL     1       2.175   3.682  20.098  0.00  0.00    +0.000 OA
ATOM      6  N   UNL     1       3.547   3.421  18.270  0.00  0.00    +0.000 N 
ATOM      7  C   UNL     1       3.567   1.976  18.427  0.00  0.00    +0.000 C 
ATOM      8  C   UNL     1       4.404   3.937  17.306  0.00  0.00    +0.000 C 
ATOM      9  O   UNL     1       5.228   3.223  16.742  0.00  0.00    +0.000 OA
ATOM     10  C   UNL     1       4.296   5.426  17.044  0.00  0.00    +0.000 C 
ATOM     11  C   UNL     1       4.916   5.951  15.961  0.00  0.00    +0.000 C 
ENDROOT
BRANCH  11  12
ATOM     12  C   UNL     1       5.575   5.227  14.886  0.00  0.00    +0.000 C 
ATOM     13  C   UNL     1       4.864   4.580  13.950  0.00  0.00    +0.000 C 
ATOM     14  C   UNL     1       5.598   3.762  12.997  0.00  0.00    +0.000 A 
ATOM     15  C   UNL     1       4.941   2.805  12.219  0.00  0.00    +0.000 A 
ATOM     16  C   UNL     1       5.656   2.049  11.289  0.00  0.00    +0.000 A 
ATOM     17  C   UNL     1       7.025   2.260  11.124  0.00  0.00    +0.000 A 
ATOM     18  C   UNL     1       7.687   3.210  11.905  0.00  0.00    +0.000 A 
ATOM     19  C   UNL     1       6.978   3.940  12.856  0.00  0.00    +0.000 A 
ATOM     20  O   UNL     1       7.678   4.854  13.602  0.00  0.00    +0.000 OA
ATOM     21  C   UNL     1       7.087   5.164  14.880  0.00  0.00    +0.000 C 
ENDBRANCH  11  12
BRANCH   3  22
ATOM     22  C   UNL     1       2.083   6.446  20.041  0.00  0.00    +0.000 C 
ATOM     23  N   UNL     1       1.434   7.109  20.896  0.00  0.00    +0.000 NA
ENDBRANCH   3  22
TORSDOF 2
ENDMDL
MODEL 4
REMARK VINA RESULT:      -6.5      3.795      8.652
REMARK  Name = 
REMARK  4 active torsions:
REMARK  status: ('A' for Active; 'I' for Inactive)
REMARK    1  A    between atoms: C_1  and  C_2
REMARK    2  A    between atoms: C_3  and  C_4
REMARK    3  A    between atoms: N_8  and  C_9
REMARK    4  A    between atoms: C_13  and  C_14
REMARK                            x       y       z     vdW  Elec       q    Type
REMARK                         _______ _______ _______ _____ _____    ______ ____
ROOT
ATOM      1  C   UNL     1       4.002   7.194  17.104  0.00  0.00    +0.000 C 
ATOM      2  C   UNL     1       3.497   6.293  18.212  0.00  0.00    +0.000 C 
ATOM      3  C   UNL     1       3.912   5.016  18.338  0.00  0.00    +0.000 C 
ATOM      4  C   UNL     1       3.459   4.138  19.443  0.00  0.00    +0.000 C 
ATOM      5  O   UNL     1       3.883   2.984  19.519  0.00  0.00    +0.000 OA
ATOM      6  N   UNL     1       2.549   4.672  20.336  0.00  0.00    +0.000 N 
ATOM      7  C   UNL     1       2.046   3.825  21.406  0.00  0.00    +0.000 C 
ATOM      8  C   UNL     1       1.937   5.913  20.208  0.00  0.00    +0.000 C 
ATOM      9  O   UNL     1       0.936   6.197  20.861  0.00  0.00    +0.000 OA
ATOM     10  C   UNL     1       2.539   6.851  19.182  0.00  0.00    +0.000 C 
ATOM     11  C   UNL     1       2.157   8.150  19.174  0.00  0.00    +0.000 C 
ENDROOT
BRANCH  11  12
ATOM     12  C   UNL     1       1.322   8.830  20.151  0.00  0.00    +0.000 C 
ATOM     13  C   UNL     1       0.286   9.591  19.766  0.00  0.00    +0.000 C 
ATOM     14  C   UNL     1      -0.407  10.350  20.795  0.00  0.00    +0.000 A 
ATOM     15  C   UNL     1      -1.256  11.406  20.456  0.00  0.00    +0.000 A 
ATOM     16  C   UNL     1      -1.935  12.105  21.455  0.00  0.00    +0.000 A 
ATOM     17  C   UNL     1      -1.779  11.739  22.792  0.00  0.00    +0.000 A 
ATOM     18  C   UNL     1      -0.925  10.690  23.136  0.00  0.00    +0.000 A 
ATOM     19  C   UNL     1      -0.222  10.014  22.141  0.00  0.00    +0.000 A 
ATOM     20  O   UNL     1       0.610   8.997  22.533  0.00  0.00    +0.000 OA
ATOM     21  C   UNL     1       1.684   8.712  21.615  0.00  0.00    +0.000 C 
ENDBRANCH  11  12
BRANCH   3  22
ATOM     22  C   UNL     1       4.888   4.388  17.357  0.00  0.00    +0.000 C 
ATOM     23  N   UNL     1       5.699   3.866  16.543  0.00  0.00    +0.000 NA
ENDBRANCH   3  22
TORSDOF 2
ENDMDL
MODEL 5
REMARK VINA RESULT:      -6.4      3.548      7.766
REMARK  Name = 
REMARK  4 active torsions:
REMARK  status: ('A' for Active; 'I' for Inactive)
REMARK    1  A    between atoms: C_1  and  C_2
REMARK    2  A    between atoms: C_3  and  C_4
REMARK    3  A    between atoms: N_8  and  C_9
REMARK    4  A    between atoms: C_13  and  C_14
REMARK                            x       y       z     vdW  Elec       q    Type
REMARK                         _______ _______ _______ _____ _____    ______ ____
ROOT
ATOM      1  C   UNL     1       5.305   7.259  16.235  0.00  0.00    +0.000 C 
ATOM      2  C   UNL     1       4.652   6.572  17.418  0.00  0.00    +0.000 C 
ATOM      3  C   UNL     1       5.185   5.472  17.986  0.00  0.00    +0.000 C 
ATOM      4  C   UNL     1       4.580   4.816  19.171  0.00  0.00    +0.000 C 
ATOM      5  O   UNL     1       5.117   3.822  19.659  0.00  0.00    +0.000 OA
ATOM      6  N   UNL     1       3.407   5.360  19.658  0.00  0.00    +0.000 N 
ATOM      7  C   UNL     1       2.760   4.717  20.790  0.00  0.00    +0.000 C 
ATOM      8  C   UNL     1       2.691   6.388  19.055  0.00  0.00    +0.000 C 
ATOM      9  O   UNL     1       1.527   6.619  19.370  0.00  0.00    +0.000 OA
ATOM     10  C   UNL     1       3.410   7.149  17.960  0.00  0.00    +0.000 C 
ATOM     11  C   UNL     1       2.875   8.306  17.503  0.00  0.00    +0.000 C 
ENDROOT
BRANCH  11  12
ATOM     12  C   UNL     1       1.733   9.024  18.045  0.00  0.00    +0.000 C 
ATOM     13  C   UNL     1       0.534   8.968  17.446  0.00  0.00    +0.000 C 
ATOM     14  C   UNL     1      -0.517   9.828  17.967  0.00  0.00    +0.000 A 
ATOM     15  C   UNL     1      -1.668  10.088  17.219  0.00  0.00    +0.000 A 
ATOM     16  C   UNL     1      -2.678  10.892  17.746  0.00  0.00    +0.000 A 
ATOM     17  C   UNL     1      -2.547  11.426  19.029  0.00  0.00    +0.000 A 
ATOM     18  C   UNL     1      -1.395  11.176  19.777  0.00  0.00    +0.000 A 
ATOM     19  C   UNL     1      -0.373  10.400  19.236  0.00  0.00    +0.000 A 
ATOM     20  O   UNL     1       0.741  10.193  20.009  0.00  0.00    +0.000 OA
ATOM     21  C   UNL     1       1.939   9.891  19.267  0.00  0.00    +0.000 C 
ENDBRANCH  11  12
BRANCH   3  22
ATOM     22  C   UNL     1       6.457   4.829  17.457  0.00  0.00    +0.000 C 
ATOM     23  N   UNL     1       7.512   4.295  17.018  0.00  0.00    +0.000 NA
ENDBRANCH   3  22
TORSDOF 2
ENDMDL
MODEL 6
REMARK VINA RESULT:      -6.3      3.334      8.123
REMARK  Name = 
REMARK  4 active torsions:
REMARK  status: ('A' for Active; 'I' for Inactive)
REMARK    1  A    between atoms: C_1  and  C_2
REMARK    2  A    between atoms: C_3  and  C_4
REMARK    3  A    between atoms: N_8  and  C_9
REMARK    4  A    between atoms: C_13  and  C_14
REMARK                            x       y       z     vdW  Elec       q    Type
REMARK                         _______ _______ _______ _____ _____    ______ ____
ROOT
ATOM      1  C   UNL     1       4.706   6.998  16.067  0.00  0.00    +0.000 C 
ATOM      2  C   UNL     1       4.154   6.161  17.203  0.00  0.00    +0.000 C 
ATOM      3  C   UNL     1       4.583   4.904  17.436  0.00  0.00    +0.000 C 
ATOM      4  C   UNL     1       4.082   4.091  18.571  0.00  0.00    +0.000 C 
ATOM      5  O   UNL     1       4.520   2.954  18.746  0.00  0.00    +0.000 OA
ATOM      6  N   UNL     1       3.115   4.664  19.375  0.00  0.00    +0.000 N 
ATOM      7  C   UNL     1       2.567   3.879  20.469  0.00  0.00    +0.000 C 
ATOM      8  C   UNL     1       2.491   5.881  19.131  0.00  0.00    +0.000 C 
ATOM      9  O   UNL     1       1.451   6.187  19.707  0.00  0.00    +0.000 OA
ATOM     10  C   UNL     1       3.135   6.762  18.079  0.00  0.00    +0.000 C 
ATOM     11  C   UNL     1       2.732   8.050  17.964  0.00  0.00    +0.000 C 
ENDROOT
BRANCH  11  12
ATOM     12  C   UNL     1       1.832   8.775  18.847  0.00  0.00    +0.000 C 
ATOM     13  C   UNL     1       1.995   8.742  20.178  0.00  0.00    +0.000 C 
ATOM     14  C   UNL     1       0.969   9.372  20.995  0.00  0.00    +0.000 A 
ATOM     15  C   UNL     1       0.874   9.100  22.362  0.00  0.00    +0.000 A 
ATOM     16  C   UNL     1      -0.097   9.736  23.135  0.00  0.00    +0.000 A 
ATOM     17  C   UNL     1      -0.965  10.657  22.547  0.00  0.00    +0.000 A 
ATOM     18  C   UNL     1      -0.879  10.925  21.179  0.00  0.00    +0.000 A 
ATOM     19  C   UNL     1       0.070  10.265  20.402  0.00  0.00    +0.000 A 
ATOM     20  O   UNL     1       0.106  10.559  19.063  0.00  0.00    +0.000 OA
ATOM     21  C   UNL     1       0.666   9.520  18.235  0.00  0.00    +0.000 C 
ENDBRANCH  11  12
BRANCH   3  22
ATOM     22  C   UNL     1       5.623   4.232  16.555  0.00  0.00    +0.000 C 
ATOM     23  N   UNL     1       6.486   3.675  15.823  0.00  0.00    +0.000 NA
ENDBRANCH   3  22
TORSDOF 2
ENDMDL
MODEL 7
REMARK VINA RESULT:      -6.3      3.549      5.734
REMARK  Name = 
REMARK  4 active torsions:
REMARK  status: ('A' for Active; 'I' for Inactive)
REMARK    1  A    between atoms: C_1  and  C_2
REMARK    2  A    between atoms: C_3  and  C_4
REMARK    3  A    between atoms: N_8  and  C_9
REMARK    4  A    between atoms: C_13  and  C_14
REMARK                            x       y       z     vdW  Elec       q    Type
REMARK                         _______ _______ _______ _____ _____    ______ ____
ROOT
ATOM      1  C   UNL     1       0.223   8.155  22.181  0.00  0.00    +0.000 C 
ATOM      2  C   UNL     1       0.719   8.998  21.023  0.00  0.00    +0.000 C 
ATOM      3  C   UNL     1       0.501  10.327  20.963  0.00  0.00    +0.000 C 
ATOM      4  C   UNL     1       1.018  11.169  19.857  0.00  0.00    +0.000 C 
ATOM      5  O   UNL     1       0.802  12.381  19.861  0.00  0.00    +0.000 OA
ATOM      6  N   UNL     1       1.713  10.525  18.851  0.00  0.00    +0.000 N 
ATOM      7  C   UNL     1       2.196  11.311  17.727  0.00  0.00    +0.000 C 
ATOM      8  C   UNL     1       1.856   9.148  18.732  0.00  0.00    +0.000 C 
ATOM      9  O   UNL     1       2.222   8.637  17.678  0.00  0.00    +0.000 OA
ATOM     10  C   UNL     1       1.476   8.330  19.950  0.00  0.00    +0.000 C 
ATOM     11  C   UNL     1       1.816   7.020  19.995  0.00  0.00    +0.000 C 
ENDROOT
BRANCH  11  12
ATOM     12  C   UNL     1       2.662   6.296  19.060  0.00  0.00    +0.000 C 
ATOM     13  C   UNL     1       3.995   6.450  19.071  0.00  0.00    +0.000 C 
ATOM     14  C   UNL     1       4.753   5.804  18.011  0.00  0.00    +0.000 A 
ATOM     15  C   UNL     1       6.073   6.176  17.746  0.00  0.00    +0.000 A 
ATOM     16  C   UNL     1       6.795   5.526  16.744  0.00  0.00    +0.000 A 
ATOM     17  C   UNL     1       6.204   4.492  16.018  0.00  0.00    +0.000 A 
ATOM     18  C   UNL     1       4.882   4.123  16.273  0.00  0.00    +0.000 A 
ATOM     19  C   UNL     1       4.152   4.795  17.251  0.00  0.00    +0.000 A 
ATOM     20  O   UNL     1       2.855   4.398  17.457  0.00  0.00    +0.000 OA
ATOM     21  C   UNL     1       2.001   5.410  18.027  0.00  0.00    +0.000 C 
ENDBRANCH  11  12
BRANCH   3  22
ATOM     22  C   UNL     1      -0.286  11.062  22.036  0.00  0.00    +0.000 C 
ATOM     23  N   UNL     1      -0.939  11.671  22.927  0.00  0.00    +0.000 NA
ENDBRANCH   3  22
TORSDOF 2
ENDMDL
MODEL 8
REMARK VINA RESULT:      -6.3      8.750     13.426
REMARK  Name = 
REMARK  4 active torsions:
REMARK  status: ('A' for Active; 'I' for Inactive)
REMARK    1  A    between atoms: C_1  and  C_2
REMARK    2  A    between atoms: C_3  and  C_4
REMARK    3  A    between atoms: N_8  and  C_9
REMARK    4  A    between atoms: C_13  and  C_14
REMARK                            x       y       z     vdW  Elec       q    Type
REMARK                         _______ _______ _______ _____ _____    ______ ____
ROOT
ATOM      1  C   UNL     1       0.032   9.429  23.170  0.00  0.00    +0.000 C 
ATOM      2  C   UNL     1      -0.248  10.203  21.897  0.00  0.00    +0.000 C 
ATOM      3  C   UNL     1       0.245   9.815  20.703  0.00  0.00    +0.000 C 
ATOM      4  C   UNL     1      -0.056  10.538  19.445  0.00  0.00    +0.000 C 
ATOM      5  O   UNL     1       0.408  10.130  18.380  0.00  0.00    +0.000 OA
ATOM      6  N   UNL     1      -0.845  11.669  19.544  0.00  0.00    +0.000 N 
ATOM      7  C   UNL     1      -1.123  12.431  18.338  0.00  0.00    +0.000 C 
ATOM      8  C   UNL     1      -1.269  12.245  20.736  0.00  0.00    +0.000 C 
ATOM      9  O   UNL     1      -1.707  13.392  20.765  0.00  0.00    +0.000 OA
ATOM     10  C   UNL     1      -1.100  11.401  21.983  0.00  0.00    +0.000 C 
ATOM     11  C   UNL     1      -1.707  11.791  23.129  0.00  0.00    +0.000 C 
ENDROOT
BRANCH  11  12
ATOM     12  C   UNL     1      -2.661  12.876  23.296  0.00  0.00    +0.000 C 
ATOM     13  C   UNL     1      -2.295  14.038  23.856  0.00  0.00    +0.000 C 
ATOM     14  C   UNL     1      -3.341  15.015  24.119  0.00  0.00    +0.000 A 
ATOM     15  C   UNL     1      -3.118  16.086  24.987  0.00  0.00    +0.000 A 
ATOM     16  C   UNL     1      -4.123  17.029  25.205  0.00  0.00    +0.000 A 
ATOM     17  C   UNL     1      -5.345  16.912  24.543  0.00  0.00    +0.000 A 
ATOM     18  C   UNL     1      -5.575  15.838  23.680  0.00  0.00    +0.000 A 
ATOM     19  C   UNL     1      -4.582  14.880  23.489  0.00  0.00    +0.000 A 
ATOM     20  O   UNL     1      -4.862  13.841  22.638  0.00  0.00    +0.000 OA
ATOM     21  C   UNL     1      -4.097  12.643  22.881  0.00  0.00    +0.000 C 
ENDBRANCH  11  12
BRANCH   3  22
ATOM     22  C   UNL     1       1.141   8.594  20.562  0.00  0.00    +0.000 C 
ATOM     23  N   UNL     1       1.884   7.581  20.444  0.00  0.00    +0.000 NA
ENDBRANCH   3  22
TORSDOF 2
ENDMDL
MODEL 9
REMARK VINA RESULT:      -6.2      8.380     13.021
REMARK  Name = 
REMARK  4 active torsions:
REMARK  status: ('A' for Active; 'I' for Inactive)
REMARK    1  A    between atoms: C_1  and  C_2
REMARK    2  A    between atoms: C_3  and  C_4
REMARK    3  A    between atoms: N_8  and  C_9
REMARK    4  A    between atoms: C_13  and  C_14
REMARK                            x       y       z     vdW  Elec       q    Type
REMARK                         _______ _______ _______ _____ _____    ______ ____
ROOT
ATOM      1  C   UNL     1       0.615   9.339  22.859  0.00  0.00    +0.000 C 
ATOM      2  C   UNL     1       0.085  10.045  21.626  0.00  0.00    +0.000 C 
ATOM      3  C   UNL     1       0.397   9.635  20.380  0.00  0.00    +0.000 C 
ATOM      4  C   UNL     1      -0.149  10.291  19.167  0.00  0.00    +0.000 C 
ATOM      5  O   UNL     1       0.157   9.865  18.054  0.00  0.00    +0.000 OA
ATOM      6  N   UNL     1      -0.976  11.381  19.362  0.00  0.00    +0.000 N 
ATOM      7  C   UNL     1      -1.494  12.077  18.196  0.00  0.00    +0.000 C 
ATOM      8  C   UNL     1      -1.232  11.981  20.589  0.00  0.00    +0.000 C 
ATOM      9  O   UNL     1      -1.727  13.103  20.654  0.00  0.00    +0.000 OA
ATOM     10  C   UNL     1      -0.811  11.198  21.816  0.00  0.00    +0.000 C 
ATOM     11  C   UNL     1      -1.244  11.601  23.034  0.00  0.00    +0.000 C 
ENDROOT
BRANCH  11  12
ATOM     12  C   UNL     1      -2.221  12.639  23.324  0.00  0.00    +0.000 C 
ATOM     13  C   UNL     1      -3.535  12.372  23.318  0.00  0.00    +0.000 C 
ATOM     14  C   UNL     1      -4.448  13.495  23.474  0.00  0.00    +0.000 A 
ATOM     15  C   UNL     1      -5.800  13.369  23.147  0.00  0.00    +0.000 A 
ATOM     16  C   UNL     1      -6.667  14.447  23.330  0.00  0.00    +0.000 A 
ATOM     17  C   UNL     1      -6.186  15.647  23.854  0.00  0.00    +0.000 A 
ATOM     18  C   UNL     1      -4.833  15.780  24.174  0.00  0.00    +0.000 A 
ATOM     19  C   UNL     1      -3.963  14.713  23.961  0.00  0.00    +0.000 A 
ATOM     20  O   UNL     1      -2.644  14.899  24.284  0.00  0.00    +0.000 OA
ATOM     21  C   UNL     1      -1.725  14.047  23.571  0.00  0.00    +0.000 C 
ENDBRANCH  11  12
BRANCH   3  22
ATOM     22  C   UNL     1       1.328   8.460  20.130  0.00  0.00    +0.000 C 
ATOM     23  N   UNL     1       2.100   7.484  19.922  0.00  0.00    +0.000 NA
ENDBRANCH   3  22
TORSDOF 2
ENDMDL
