MODEL 1
REMARK VINA RESULT:      -8.9      0.000      0.000
REMARK  Name = 
REMARK  6 active torsions:
REMARK  status: ('A' for Active; 'I' for Inactive)
REMARK    1  A    between atoms: C_2  and  C_22
REMARK    2  A    between atoms: N_3  and  C_4
REMARK    3  A    between atoms: C_4  and  C_5
REMARK    4  A    between atoms: C_5  and  N_6
REMARK    5  A    between atoms: C_9  and  N_10
REMARK    6  A    between atoms: C_11  and  O_12
REMARK                            x       y       z     vdW  Elec       q    Type
REMARK                         _______ _______ _______ _____ _____    ______ ____
ROOT
ATOM      1  N   UNL     1       7.124   6.986  17.092  0.00  0.00    +0.000 NA
ATOM      2  C   UNL     1       7.561   6.118  18.199  0.00  0.00    +0.000 C 
ATOM      3  C   UNL     1       7.201   4.644  18.063  0.00  0.00    +0.000 C 
ATOM      4  C   UNL     1       5.772   4.387  17.587  0.00  0.00    +0.000 C 
ATOM      5  C   UNL     1       5.490   5.217  16.336  0.00  0.00    +0.000 C 
ATOM      6  C   UNL     1       5.799   6.697  16.518  0.00  0.00    +0.000 C 
ENDROOT
BRANCH   4   7
ATOM      7  N   UNL     1       4.714   4.372  18.602  0.00  0.00    +0.000 N 
ATOM      8  C   UNL     1       4.441   3.296  19.442  0.00  0.00    +0.000 A 
ATOM      9  N   UNL     1       3.454   3.538  20.266  0.00  0.00    +0.000 NA
ATOM     10  C   UNL     1       3.036   4.801  19.978  0.00  0.00    +0.000 A 
ATOM     11  C   UNL     1       1.991   5.543  20.563  0.00  0.00    +0.000 A 
ATOM     12  C   UNL     1       1.721   6.839  20.115  0.00  0.00    +0.000 A 
ATOM     13  C   UNL     1       2.477   7.389  19.096  0.00  0.00    +0.000 A 
ATOM     14  C   UNL     1       3.505   6.654  18.507  0.00  0.00    +0.000 A 
ATOM     15  C   UNL     1       3.792   5.355  18.945  0.00  0.00    +0.000 A 
BRANCH   8  16
ATOM     16  O   UNL     1       5.057   2.124  19.476  0.00  0.00    +0.000 OA
ATOM     17  H   UNL     1       5.921   2.193  19.897  0.00  0.00    +0.000 HD
ENDBRANCH   8  16
ENDBRANCH   4   7
BRANCH   1  18
ATOM     18  C   UNL     1       7.192   8.422  17.478  0.00  0.00    +0.000 C 
BRANCH  18  19
ATOM     19  C   UNL     1       8.423   8.812  18.310  0.00  0.00    +0.000 C 
BRANCH  19  22
ATOM     20  O   UNL     1       9.390  10.739  20.140  0.00  0.00    +0.000 OA
ATOM     21  C   UNL     1       9.407  10.998  18.942  0.00  0.00    +0.000 C 
ATOM     22  N   UNL     1       8.910  10.140  17.979  0.00  0.00    +0.000 N 
ATOM     23  H   UNL     1       8.829  10.453  17.019  0.00  0.00    +0.000 HD
BRANCH  21  24
ATOM     24  C   UNL     1      10.000  12.264  18.443  0.00  0.00    +0.000 A 
ATOM     25  C   UNL     1      11.289  12.266  17.906  0.00  0.00    +0.000 A 
ATOM     26  F   UNL     1      12.024  11.147  17.847  0.00  0.00    +0.000 F 
ATOM     27  C   UNL     1      11.839  13.432  17.368  0.00  0.00    +0.000 A 
ATOM     28  C   UNL     1      11.105  14.617  17.365  0.00  0.00    +0.000 A 
ATOM     29  C   UNL     1       9.825  14.632  17.916  0.00  0.00    +0.000 A 
ATOM     30  C   UNL     1       9.285  13.462  18.450  0.00  0.00    +0.000 A 
ATOM     31  F   UNL     1       8.045  13.517  18.961  0.00  0.00    +0.000 F 
ENDBRANCH  21  24
ENDBRANCH  19  22
ENDBRANCH  18  19
ENDBRANCH   1  18
TORSDOF 6
ENDMDL
MODEL 2
REMARK VINA RESULT:      -8.8      1.960      2.745
REMARK  Name = 
REMARK  6 active torsions:
REMARK  status: ('A' for Active; 'I' for Inactive)
REMARK    1  A    between atoms: C_2  and  C_22
REMARK    2  A    between atoms: N_3  and  C_4
REMARK    3  A    between atoms: C_4  and  C_5
REMARK    4  A    between atoms: C_5  and  N_6
REMARK    5  A    between atoms: C_9  and  N_10
REMARK    6  A    between atoms: C_11  and  O_12
REMARK                            x       y       z     vdW  Elec       q    Type
REMARK                         _______ _______ _______ _____ _____    ______ ____
ROOT
ATOM      1  N   UNL     1       6.500   6.727  16.563  0.00  0.00    +0.000 NA
ATOM      2  C   UNL     1       6.437   5.304  16.188  0.00  0.00    +0.000 C 
ATOM      3  C   UNL     1       5.038   4.729  16.011  0.00  0.00    +0.000 C 
ATOM      4  C   UNL     1       4.048   5.137  17.100  0.00  0.00    +0.000 C 
ATOM      5  C   UNL     1       4.082   6.654  17.282  0.00  0.00    +0.000 C 
ATOM      6  C   UNL     1       5.485   7.197  17.521  0.00  0.00    +0.000 C 
ENDROOT
BRANCH   4   7
ATOM      7  N   UNL     1       4.030   4.341  18.331  0.00  0.00    +0.000 N 
ATOM      8  C   UNL     1       5.164   3.838  18.962  0.00  0.00    +0.000 A 
ATOM      9  N   UNL     1       4.881   3.168  20.050  0.00  0.00    +0.000 NA
ATOM     10  C   UNL     1       3.525   3.206  20.161  0.00  0.00    +0.000 A 
ATOM     11  C   UNL     1       2.701   2.628  21.147  0.00  0.00    +0.000 A 
ATOM     12  C   UNL     1       1.314   2.785  21.076  0.00  0.00    +0.000 A 
ATOM     13  C   UNL     1       0.753   3.503  20.036  0.00  0.00    +0.000 A 
ATOM     14  C   UNL     1       1.564   4.067  19.052  0.00  0.00    +0.000 A 
ATOM     15  C   UNL     1       2.956   3.923  19.109  0.00  0.00    +0.000 A 
BRANCH   8  16
ATOM     16  O   UNL     1       6.425   3.971  18.579  0.00  0.00    +0.000 OA
ATOM     17  H   UNL     1       6.666   4.898  18.478  0.00  0.00    +0.000 HD
ENDBRANCH   8  16
ENDBRANCH   4   7
BRANCH   1  18
ATOM     18  C   UNL     1       7.854   7.092  17.060  0.00  0.00    +0.000 C 
BRANCH  18  19
ATOM     19  C   UNL     1       7.944   7.335  18.574  0.00  0.00    +0.000 C 
BRANCH  19  22
ATOM     20  O   UNL     1       7.696  10.061  17.862  0.00  0.00    +0.000 OA
ATOM     21  C   UNL     1       8.649   9.712  18.549  0.00  0.00    +0.000 C 
ATOM     22  N   UNL     1       8.880   8.396  18.904  0.00  0.00    +0.000 N 
ATOM     23  H   UNL     1       9.747   8.143  19.361  0.00  0.00    +0.000 HD
BRANCH  21  24
ATOM     24  C   UNL     1       9.616  10.708  19.073  0.00  0.00    +0.000 A 
ATOM     25  C   UNL     1       9.548  11.109  20.409  0.00  0.00    +0.000 A 
ATOM     26  F   UNL     1       8.609  10.631  21.236  0.00  0.00    +0.000 F 
ATOM     27  C   UNL     1      10.491  11.992  20.941  0.00  0.00    +0.000 A 
ATOM     28  C   UNL     1      11.515  12.491  20.137  0.00  0.00    +0.000 A 
ATOM     29  C   UNL     1      11.582  12.114  18.798  0.00  0.00    +0.000 A 
ATOM     30  C   UNL     1      10.636  11.231  18.277  0.00  0.00    +0.000 A 
ATOM     31  F   UNL     1      10.743  10.884  16.985  0.00  0.00    +0.000 F 
ENDBRANCH  21  24
ENDBRANCH  19  22
ENDBRANCH  18  19
ENDBRANCH   1  18
TORSDOF 6
ENDMDL
MODEL 3
REMARK VINA RESULT:      -8.8      0.923      1.666
REMARK  Name = 
REMARK  6 active torsions:
REMARK  status: ('A' for Active; 'I' for Inactive)
REMARK    1  A    between atoms: C_2  and  C_22
REMARK    2  A    between atoms: N_3  and  C_4
REMARK    3  A    between atoms: C_4  and  C_5
REMARK    4  A    between atoms: C_5  and  N_6
REMARK    5  A    between atoms: C_9  and  N_10
REMARK    6  A    between atoms: C_11  and  O_12
REMARK                            x       y       z     vdW  Elec       q    Type
REMARK                         _______ _______ _______ _____ _____    ______ ____
ROOT
ATOM      1  N   UNL     1       6.794   6.773  16.798  0.00  0.00    +0.000 NA
ATOM      2  C   UNL     1       7.223   5.715  17.729  0.00  0.00    +0.000 C 
ATOM      3  C   UNL     1       6.850   4.293  17.331  0.00  0.00    +0.000 C 
ATOM      4  C   UNL     1       5.418   4.139  16.820  0.00  0.00    +0.000 C 
ATOM      5  C   UNL     1       5.143   5.184  15.740  0.00  0.00    +0.000 C 
ATOM      6  C   UNL     1       5.466   6.604  16.185  0.00  0.00    +0.000 C 
ENDROOT
BRANCH   4   7
ATOM      7  N   UNL     1       4.361   3.951  17.819  0.00  0.00    +0.000 N 
ATOM      8  C   UNL     1       3.876   2.714  18.232  0.00  0.00    +0.000 A 
ATOM      9  N   UNL     1       2.940   2.817  19.140  0.00  0.00    +0.000 NA
ATOM     10  C   UNL     1       2.774   4.151  19.346  0.00  0.00    +0.000 A 
ATOM     11  C   UNL     1       1.880   4.809  20.215  0.00  0.00    +0.000 A 
ATOM     12  C   UNL     1       1.868   6.205  20.276  0.00  0.00    +0.000 A 
ATOM     13  C   UNL     1       2.730   6.938  19.482  0.00  0.00    +0.000 A 
ATOM     14  C   UNL     1       3.609   6.292  18.613  0.00  0.00    +0.000 A 
ATOM     15  C   UNL     1       3.637   4.894  18.541  0.00  0.00    +0.000 A 
BRANCH   8  16
ATOM     16  O   UNL     1       4.257   1.518  17.810  0.00  0.00    +0.000 OA
ATOM     17  H   UNL     1       4.953   1.153  18.368  0.00  0.00    +0.000 HD
ENDBRANCH   8  16
ENDBRANCH   4   7
BRANCH   1  18
ATOM     18  C   UNL     1       6.876   8.115  17.436  0.00  0.00    +0.000 C 
BRANCH  18  19
ATOM     19  C   UNL     1       8.174   8.385  18.212  0.00  0.00    +0.000 C 
BRANCH  19  22
ATOM     20  O   UNL     1       9.260  10.240  20.050  0.00  0.00    +0.000 OA
ATOM     21  C   UNL     1       9.296  10.501  18.854  0.00  0.00    +0.000 C 
ATOM     22  N   UNL     1       8.747   9.680  17.886  0.00  0.00    +0.000 N 
ATOM     23  H   UNL     1       8.688  10.001  16.927  0.00  0.00    +0.000 HD
BRANCH  21  24
ATOM     24  C   UNL     1       9.971  11.727  18.360  0.00  0.00    +0.000 A 
ATOM     25  C   UNL     1       9.231  12.718  17.713  0.00  0.00    +0.000 A 
ATOM     26  F   UNL     1       7.914  12.583  17.504  0.00  0.00    +0.000 F 
ATOM     27  C   UNL     1       9.833  13.909  17.302  0.00  0.00    +0.000 A 
ATOM     28  C   UNL     1      11.192  14.122  17.529  0.00  0.00    +0.000 A 
ATOM     29  C   UNL     1      11.946  13.132  18.156  0.00  0.00    +0.000 A 
ATOM     30  C   UNL     1      11.334  11.947  18.563  0.00  0.00    +0.000 A 
ATOM     31  F   UNL     1      12.094  11.024  19.173  0.00  0.00    +0.000 F 
ENDBRANCH  21  24
ENDBRANCH  19  22
ENDBRANCH  18  19
ENDBRANCH   1  18
TORSDOF 6
ENDMDL
MODEL 4
REMARK VINA RESULT:      -8.7      1.439      1.955
REMARK  Name = 
REMARK  6 active torsions:
REMARK  status: ('A' for Active; 'I' for Inactive)
REMARK    1  A    between atoms: C_2  and  C_22
REMARK    2  A    between atoms: N_3  and  C_4
REMARK    3  A    between atoms: C_4  and  C_5
REMARK    4  A    between atoms: C_5  and  N_6
REMARK    5  A    between atoms: C_9  and  N_10
REMARK    6  A    between atoms: C_11  and  O_12
REMARK                            x       y       z     vdW  Elec       q    Type
REMARK                         _______ _______ _______ _____ _____    ______ ____
ROOT
ATOM      1  N   UNL     1       6.555   6.996  16.663  0.00  0.00    +0.000 NA
ATOM      2  C   UNL     1       6.471   5.609  16.176  0.00  0.00    +0.000 C 
ATOM      3  C   UNL     1       5.063   5.064  15.973  0.00  0.00    +0.000 C 
ATOM      4  C   UNL     1       4.092   5.393  17.106  0.00  0.00    +0.000 C 
ATOM      5  C   UNL     1       4.146   6.890  17.409  0.00  0.00    +0.000 C 
ATOM      6  C   UNL     1       5.558   7.397  17.670  0.00  0.00    +0.000 C 
ENDROOT
BRANCH   4   7
ATOM      7  N   UNL     1       4.082   4.500  18.268  0.00  0.00    +0.000 N 
ATOM      8  C   UNL     1       5.215   3.909  18.820  0.00  0.00    +0.000 A 
ATOM      9  N   UNL     1       4.940   3.163  19.859  0.00  0.00    +0.000 NA
ATOM     10  C   UNL     1       3.591   3.237  20.017  0.00  0.00    +0.000 A 
ATOM     11  C   UNL     1       2.776   2.609  20.980  0.00  0.00    +0.000 A 
ATOM     12  C   UNL     1       1.394   2.818  20.967  0.00  0.00    +0.000 A 
ATOM     13  C   UNL     1       0.829   3.637  20.006  0.00  0.00    +0.000 A 
ATOM     14  C   UNL     1       1.630   4.252  19.045  0.00  0.00    +0.000 A 
ATOM     15  C   UNL     1       3.017   4.057  19.045  0.00  0.00    +0.000 A 
BRANCH   8  16
ATOM     16  O   UNL     1       6.468   4.031  18.408  0.00  0.00    +0.000 OA
ATOM     17  H   UNL     1       6.531   3.965  17.448  0.00  0.00    +0.000 HD
ENDBRANCH   8  16
ENDBRANCH   4   7
BRANCH   1  18
ATOM     18  C   UNL     1       7.919   7.306  17.169  0.00  0.00    +0.000 C 
BRANCH  18  19
ATOM     19  C   UNL     1       7.967   8.312  18.329  0.00  0.00    +0.000 C 
BRANCH  19  22
ATOM     20  O   UNL     1       9.135  10.222  20.058  0.00  0.00    +0.000 OA
ATOM     21  C   UNL     1       9.151  10.428  18.850  0.00  0.00    +0.000 C 
ATOM     22  N   UNL     1       8.561   9.577  17.933  0.00  0.00    +0.000 N 
ATOM     23  H   UNL     1       8.489   9.856  16.962  0.00  0.00    +0.000 HD
BRANCH  21  24
ATOM     24  C   UNL     1       9.842  11.614  18.287  0.00  0.00    +0.000 A 
ATOM     25  C   UNL     1      11.225  11.744  18.421  0.00  0.00    +0.000 A 
ATOM     26  F   UNL     1      11.955  10.827  19.071  0.00  0.00    +0.000 F 
ATOM     27  C   UNL     1      11.904  12.818  17.839  0.00  0.00    +0.000 A 
ATOM     28  C   UNL     1      11.202  13.782  17.117  0.00  0.00    +0.000 A 
ATOM     29  C   UNL     1       9.819  13.674  16.993  0.00  0.00    +0.000 A 
ATOM     30  C   UNL     1       9.151  12.597  17.577  0.00  0.00    +0.000 A 
ATOM     31  F   UNL     1       7.820  12.525  17.424  0.00  0.00    +0.000 F 
ENDBRANCH  21  24
ENDBRANCH  19  22
ENDBRANCH  18  19
ENDBRANCH   1  18
TORSDOF 6
ENDMDL
MODEL 5
REMARK VINA RESULT:      -8.6      1.409      1.661
REMARK  Name = 
REMARK  6 active torsions:
REMARK  status: ('A' for Active; 'I' for Inactive)
REMARK    1  A    between atoms: C_2  and  C_22
REMARK    2  A    between atoms: N_3  and  C_4
REMARK    3  A    between atoms: C_4  and  C_5
REMARK    4  A    between atoms: C_5  and  N_6
REMARK    5  A    between atoms: C_9  and  N_10
REMARK    6  A    between atoms: C_11  and  O_12
REMARK                            x       y       z     vdW  Elec       q    Type
REMARK                         _______ _______ _______ _____ _____    ______ ____
ROOT
ATOM      1  N   UNL     1       7.290   6.404  17.010  0.00  0.00    +0.000 NA
ATOM      2  C   UNL     1       7.354   4.986  17.402  0.00  0.00    +0.000 C 
ATOM      3  C   UNL     1       6.319   4.074  16.756  0.00  0.00    +0.000 C 
ATOM      4  C   UNL     1       4.906   4.654  16.719  0.00  0.00    +0.000 C 
ATOM      5  C   UNL     1       4.946   6.067  16.138  0.00  0.00    +0.000 C 
ATOM      6  C   UNL     1       5.943   6.976  16.843  0.00  0.00    +0.000 C 
ENDROOT
BRANCH   4   7
ATOM      7  N   UNL     1       4.069   4.471  17.909  0.00  0.00    +0.000 N 
ATOM      8  C   UNL     1       3.868   3.254  18.553  0.00  0.00    +0.000 A 
ATOM      9  N   UNL     1       3.086   3.358  19.597  0.00  0.00    +0.000 NA
ATOM     10  C   UNL     1       2.737   4.672  19.664  0.00  0.00    +0.000 A 
ATOM     11  C   UNL     1       1.898   5.319  20.593  0.00  0.00    +0.000 A 
ATOM     12  C   UNL     1       1.666   6.693  20.482  0.00  0.00    +0.000 A 
ATOM     13  C   UNL     1       2.256   7.413  19.460  0.00  0.00    +0.000 A 
ATOM     14  C   UNL     1       3.078   6.775  18.533  0.00  0.00    +0.000 A 
ATOM     15  C   UNL     1       3.325   5.400  18.629  0.00  0.00    +0.000 A 
BRANCH   8  16
ATOM     16  O   UNL     1       4.368   2.074  18.219  0.00  0.00    +0.000 OA
ATOM     17  H   UNL     1       3.671   1.426  18.067  0.00  0.00    +0.000 HD
ENDBRANCH   8  16
ENDBRANCH   4   7
BRANCH   1  18
ATOM     18  C   UNL     1       8.075   7.255  17.944  0.00  0.00    +0.000 C 
BRANCH  18  19
ATOM     19  C   UNL     1       7.804   8.763  17.830  0.00  0.00    +0.000 C 
BRANCH  19  22
ATOM     20  O   UNL     1       8.086  11.560  17.514  0.00  0.00    +0.000 OA
ATOM     21  C   UNL     1       8.983  10.932  18.064  0.00  0.00    +0.000 C 
ATOM     22  N   UNL     1       8.956   9.558  18.218  0.00  0.00    +0.000 N 
ATOM     23  H   UNL     1       9.777   9.074  18.561  0.00  0.00    +0.000 HD
BRANCH  21  24
ATOM     24  C   UNL     1      10.163  11.628  18.633  0.00  0.00    +0.000 A 
ATOM     25  C   UNL     1      10.980  12.404  17.809  0.00  0.00    +0.000 A 
ATOM     26  F   UNL     1      10.737  12.524  16.496  0.00  0.00    +0.000 F 
ATOM     27  C   UNL     1      12.056  13.123  18.336  0.00  0.00    +0.000 A 
ATOM     28  C   UNL     1      12.333  13.068  19.701  0.00  0.00    +0.000 A 
ATOM     29  C   UNL     1      11.537  12.280  20.532  0.00  0.00    +0.000 A 
ATOM     30  C   UNL     1      10.465  11.568  19.994  0.00  0.00    +0.000 A 
ATOM     31  F   UNL     1       9.717  10.831  20.830  0.00  0.00    +0.000 F 
ENDBRANCH  21  24
ENDBRANCH  19  22
ENDBRANCH  18  19
ENDBRANCH   1  18
TORSDOF 6
ENDMDL
MODEL 6
REMARK VINA RESULT:      -8.6      6.592     10.284
REMARK  Name = 
REMARK  6 active torsions:
REMARK  status: ('A' for Active; 'I' for Inactive)
REMARK    1  A    between atoms: C_2  and  C_22
REMARK    2  A    between atoms: N_3  and  C_4
REMARK    3  A    between atoms: C_4  and  C_5
REMARK    4  A    between atoms: C_5  and  N_6
REMARK    5  A    between atoms: C_9  and  N_10
REMARK    6  A    between atoms: C_11  and  O_12
REMARK                            x       y       z     vdW  Elec       q    Type
REMARK                         _______ _______ _______ _____ _____    ______ ____
ROOT
ATOM      1  N   UNL     1       1.255  10.342  19.036  0.00  0.00    +0.000 NA
ATOM      2  C   UNL     1       0.995  11.739  18.651  0.00  0.00    +0.000 C 
ATOM      3  C   UNL     1       0.295  12.594  19.700  0.00  0.00    +0.000 C 
ATOM      4  C   UNL     1      -0.878  11.903  20.393  0.00  0.00    +0.000 C 
ATOM      5  C   UNL     1      -0.440  10.528  20.897  0.00  0.00    +0.000 C 
ATOM      6  C   UNL     1       0.200   9.670  19.814  0.00  0.00    +0.000 C 
ENDROOT
BRANCH   4   7
ATOM      7  N   UNL     1      -2.184  11.958  19.728  0.00  0.00    +0.000 N 
ATOM      8  C   UNL     1      -3.330  12.518  20.285  0.00  0.00    +0.000 A 
ATOM      9  N   UNL     1      -4.364  12.451  19.486  0.00  0.00    +0.000 NA
ATOM     10  C   UNL     1      -3.919  11.824  18.363  0.00  0.00    +0.000 A 
ATOM     11  C   UNL     1      -4.632  11.487  17.195  0.00  0.00    +0.000 A 
ATOM     12  C   UNL     1      -3.981  10.835  16.144  0.00  0.00    +0.000 A 
ATOM     13  C   UNL     1      -2.640  10.519  16.254  0.00  0.00    +0.000 A 
ATOM     14  C   UNL     1      -1.933  10.841  17.412  0.00  0.00    +0.000 A 
ATOM     15  C   UNL     1      -2.567  11.497  18.473  0.00  0.00    +0.000 A 
BRANCH   8  16
ATOM     16  O   UNL     1      -3.455  13.078  21.479  0.00  0.00    +0.000 OA
ATOM     17  H   UNL     1      -3.448  14.040  21.419  0.00  0.00    +0.000 HD
ENDBRANCH   8  16
ENDBRANCH   4   7
BRANCH   1  18
ATOM     18  C   UNL     1       1.596   9.512  17.849  0.00  0.00    +0.000 C 
BRANCH  18  19
ATOM     19  C   UNL     1       2.714   8.483  18.076  0.00  0.00    +0.000 C 
BRANCH  19  22
ATOM     20  O   UNL     1       4.250   6.134  18.425  0.00  0.00    +0.000 OA
ATOM     21  C   UNL     1       3.028   6.050  18.436  0.00  0.00    +0.000 C 
ATOM     22  N   UNL     1       2.196   7.135  18.224  0.00  0.00    +0.000 N 
ATOM     23  H   UNL     1       1.200   6.991  18.115  0.00  0.00    +0.000 HD
BRANCH  21  24
ATOM     24  C   UNL     1       2.353   4.757  18.711  0.00  0.00    +0.000 A 
ATOM     25  C   UNL     1       2.500   3.692  17.821  0.00  0.00    +0.000 A 
ATOM     26  F   UNL     1       3.224   3.811  16.700  0.00  0.00    +0.000 F 
ATOM     27  C   UNL     1       1.930   2.446  18.094  0.00  0.00    +0.000 A 
ATOM     28  C   UNL     1       1.199   2.251  19.265  0.00  0.00    +0.000 A 
ATOM     29  C   UNL     1       1.029   3.313  20.152  0.00  0.00    +0.000 A 
ATOM     30  C   UNL     1       1.603   4.553  19.869  0.00  0.00    +0.000 A 
ATOM     31  F   UNL     1       1.424   5.545  20.755  0.00  0.00    +0.000 F 
ENDBRANCH  21  24
ENDBRANCH  19  22
ENDBRANCH  18  19
ENDBRANCH   1  18
TORSDOF 6
ENDMDL
MODEL 7
REMARK VINA RESULT:      -8.5      0.573      1.642
REMARK  Name = 
REMARK  6 active torsions:
REMARK  status: ('A' for Active; 'I' for Inactive)
REMARK    1  A    between atoms: C_2  and  C_22
REMARK    2  A    between atoms: N_3  and  C_4
REMARK    3  A    between atoms: C_4  and  C_5
REMARK    4  A    between atoms: C_5  and  N_6
REMARK    5  A    between atoms: C_9  and  N_10
REMARK    6  A    between atoms: C_11  and  O_12
REMARK                            x       y       z     vdW  Elec       q    Type
REMARK                         _______ _______ _______ _____ _____    ______ ____
ROOT
ATOM      1  N   UNL     1       7.714   7.043  17.292  0.00  0.00    +0.000 NA
ATOM      2  C   UNL     1       7.896   6.391  18.600  0.00  0.00    +0.000 C 
ATOM      3  C   UNL     1       7.670   4.885  18.625  0.00  0.00    +0.000 C 
ATOM      4  C   UNL     1       6.432   4.422  17.858  0.00  0.00    +0.000 C 
ATOM      5  C   UNL     1       6.440   5.031  16.456  0.00  0.00    +0.000 C 
ATOM      6  C   UNL     1       6.604   6.544  16.462  0.00  0.00    +0.000 C 
ENDROOT
BRANCH   4   7
ATOM      7  N   UNL     1       5.148   4.451  18.566  0.00  0.00    +0.000 N 
ATOM      8  C   UNL     1       4.665   3.422  19.368  0.00  0.00    +0.000 A 
ATOM      9  N   UNL     1       3.500   3.697  19.894  0.00  0.00    +0.000 NA
ATOM     10  C   UNL     1       3.173   4.936  19.436  0.00  0.00    +0.000 A 
ATOM     11  C   UNL     1       2.014   5.696  19.689  0.00  0.00    +0.000 A 
ATOM     12  C   UNL     1       1.872   6.962  19.113  0.00  0.00    +0.000 A 
ATOM     13  C   UNL     1       2.866   7.463  18.293  0.00  0.00    +0.000 A 
ATOM     14  C   UNL     1       4.009   6.709  18.031  0.00  0.00    +0.000 A 
ATOM     15  C   UNL     1       4.171   5.441  18.603  0.00  0.00    +0.000 A 
BRANCH   8  16
ATOM     16  O   UNL     1       5.249   2.261  19.626  0.00  0.00    +0.000 OA
ATOM     17  H   UNL     1       5.468   2.178  20.561  0.00  0.00    +0.000 HD
ENDBRANCH   8  16
ENDBRANCH   4   7
BRANCH   1  18
ATOM     18  C   UNL     1       7.596   8.519  17.439  0.00  0.00    +0.000 C 
BRANCH  18  19
ATOM     19  C   UNL     1       8.544   9.144  18.474  0.00  0.00    +0.000 C 
BRANCH  19  22
ATOM     20  O   UNL     1       9.361  11.282  20.135  0.00  0.00    +0.000 OA
ATOM     21  C   UNL     1       9.491  11.392  18.922  0.00  0.00    +0.000 C 
ATOM     22  N   UNL     1       9.074  10.421  18.029  0.00  0.00    +0.000 N 
ATOM     23  H   UNL     1       9.085  10.614  17.035  0.00  0.00    +0.000 HD
BRANCH  21  24
ATOM     24  C   UNL     1      10.141  12.586  18.328  0.00  0.00    +0.000 A 
ATOM     25  C   UNL     1       9.465  13.807  18.300  0.00  0.00    +0.000 A 
ATOM     26  F   UNL     1       8.220  13.928  18.782  0.00  0.00    +0.000 F 
ATOM     27  C   UNL     1      10.084  14.959  17.809  0.00  0.00    +0.000 A 
ATOM     28  C   UNL     1      11.392  14.901  17.331  0.00  0.00    +0.000 A 
ATOM     29  C   UNL     1      12.072  13.684  17.335  0.00  0.00    +0.000 A 
ATOM     30  C   UNL     1      11.443  12.541  17.829  0.00  0.00    +0.000 A 
ATOM     31  F   UNL     1      12.137  11.392  17.826  0.00  0.00    +0.000 F 
ENDBRANCH  21  24
ENDBRANCH  19  22
ENDBRANCH  18  19
ENDBRANCH   1  18
TORSDOF 6
ENDMDL
MODEL 8
REMARK VINA RESULT:      -8.5      6.232     10.122
REMARK  Name = 
REMARK  6 active torsions:
REMARK  status: ('A' for Active; 'I' for Inactive)
REMARK    1  A    between atoms: C_2  and  C_22
REMARK    2  A    between atoms: N_3  and  C_4
REMARK    3  A    between atoms: C_4  and  C_5
REMARK    4  A    between atoms: C_5  and  N_6
REMARK    5  A    between atoms: C_9  and  N_10
REMARK    6  A    between atoms: C_11  and  O_12
REMARK                            x       y       z     vdW  Elec       q    Type
REMARK                         _______ _______ _______ _____ _____    ______ ____
ROOT
ATOM      1  N   UNL     1       1.789   9.896  18.951  0.00  0.00    +0.000 NA
ATOM      2  C   UNL     1       1.603  11.305  18.565  0.00  0.00    +0.000 C 
ATOM      3  C   UNL     1       1.024  12.214  19.640  0.00  0.00    +0.000 C 
ATOM      4  C   UNL     1      -0.152  11.611  20.407  0.00  0.00    +0.000 C 
ATOM      5  C   UNL     1       0.219  10.214  20.902  0.00  0.00    +0.000 C 
ATOM      6  C   UNL     1       0.737   9.305  19.795  0.00  0.00    +0.000 C 
ENDROOT
BRANCH   4   7
ATOM      7  N   UNL     1      -1.487  11.751  19.816  0.00  0.00    +0.000 N 
ATOM      8  C   UNL     1      -2.508  12.534  20.347  0.00  0.00    +0.000 A 
ATOM      9  N   UNL     1      -3.599  12.497  19.626  0.00  0.00    +0.000 NA
ATOM     10  C   UNL     1      -3.323  11.664  18.585  0.00  0.00    +0.000 A 
ATOM     11  C   UNL     1      -4.159  11.268  17.523  0.00  0.00    +0.000 A 
ATOM     12  C   UNL     1      -3.677  10.393  16.545  0.00  0.00    +0.000 A 
ATOM     13  C   UNL     1      -2.382   9.916  16.625  0.00  0.00    +0.000 A 
ATOM     14  C   UNL     1      -1.555  10.297  17.680  0.00  0.00    +0.000 A 
ATOM     15  C   UNL     1      -2.019  11.175  18.667  0.00  0.00    +0.000 A 
BRANCH   8  16
ATOM     16  O   UNL     1      -2.470  13.266  21.450  0.00  0.00    +0.000 OA
ATOM     17  H   UNL     1      -1.631  13.163  21.912  0.00  0.00    +0.000 HD
ENDBRANCH   8  16
ENDBRANCH   4   7
BRANCH   1  18
ATOM     18  C   UNL     1       2.005   9.036  17.757  0.00  0.00    +0.000 C 
BRANCH  18  19
ATOM     19  C   UNL     1       3.137   8.007  17.896  0.00  0.00    +0.000 C 
BRANCH  19  22
ATOM     20  O   UNL     1       4.351   5.851  19.267  0.00  0.00    +0.000 OA
ATOM     21  C   UNL     1       3.278   5.667  18.706  0.00  0.00    +0.000 C 
ATOM     22  N   UNL     1       2.635   6.646  17.970  0.00  0.00    +0.000 N 
ATOM     23  H   UNL     1       1.818   6.408  17.421  0.00  0.00    +0.000 HD
BRANCH  21  24
ATOM     24  C   UNL     1       2.576   4.363  18.808  0.00  0.00    +0.000 A 
ATOM     25  C   UNL     1       1.540   4.199  19.729  0.00  0.00    +0.000 A 
ATOM     26  F   UNL     1       1.169   5.192  20.549  0.00  0.00    +0.000 F 
ATOM     27  C   UNL     1       0.821   3.003  19.794  0.00  0.00    +0.000 A 
ATOM     28  C   UNL     1       1.136   1.949  18.937  0.00  0.00    +0.000 A 
ATOM     29  C   UNL     1       2.181   2.094  18.026  0.00  0.00    +0.000 A 
ATOM     30  C   UNL     1       2.892   3.293  17.970  0.00  0.00    +0.000 A 
ATOM     31  F   UNL     1       3.883   3.395  17.071  0.00  0.00    +0.000 F 
ENDBRANCH  21  24
ENDBRANCH  19  22
ENDBRANCH  18  19
ENDBRANCH   1  18
TORSDOF 6
ENDMDL
MODEL 9
REMARK VINA RESULT:      -8.5      6.502     10.219
REMARK  Name = 
REMARK  6 active torsions:
REMARK  status: ('A' for Active; 'I' for Inactive)
REMARK    1  A    between atoms: C_2  and  C_22
REMARK    2  A    between atoms: N_3  and  C_4
REMARK    3  A    between atoms: C_4  and  C_5
REMARK    4  A    between atoms: C_5  and  N_6
REMARK    5  A    between atoms: C_9  and  N_10
REMARK    6  A    between atoms: C_11  and  O_12
REMARK                            x       y       z     vdW  Elec       q    Type
REMARK                         _______ _______ _______ _____ _____    ______ ____
ROOT
ATOM      1  N   UNL     1       0.670  10.487  22.207  0.00  0.00    +0.000 NA
ATOM      2  C   UNL     1       0.951  11.197  20.948  0.00  0.00    +0.000 C 
ATOM      3  C   UNL     1       0.332  12.582  20.819  0.00  0.00    +0.000 C 
ATOM      4  C   UNL     1      -1.123  12.666  21.278  0.00  0.00    +0.000 C 
ATOM      5  C   UNL     1      -1.260  12.047  22.668  0.00  0.00    +0.000 C 
ATOM      6  C   UNL     1      -0.689  10.638  22.754  0.00  0.00    +0.000 C 
ENDROOT
BRANCH   4   7
ATOM      7  N   UNL     1      -2.160  12.303  20.307  0.00  0.00    +0.000 N 
ATOM      8  C   UNL     1      -3.472  12.767  20.342  0.00  0.00    +0.000 A 
ATOM      9  N   UNL     1      -4.197  12.302  19.357  0.00  0.00    +0.000 NA
ATOM     10  C   UNL     1      -3.368  11.497  18.638  0.00  0.00    +0.000 A 
ATOM     11  C   UNL     1      -3.651  10.741  17.484  0.00  0.00    +0.000 A 
ATOM     12  C   UNL     1      -2.646   9.969  16.893  0.00  0.00    +0.000 A 
ATOM     13  C   UNL     1      -1.379   9.947  17.445  0.00  0.00    +0.000 A 
ATOM     14  C   UNL     1      -1.098  10.685  18.594  0.00  0.00    +0.000 A 
ATOM     15  C   UNL     1      -2.091  11.467  19.198  0.00  0.00    +0.000 A 
BRANCH   8  16
ATOM     16  O   UNL     1      -4.013  13.585  21.231  0.00  0.00    +0.000 OA
ATOM     17  H   UNL     1      -3.387  14.262  21.513  0.00  0.00    +0.000 HD
ENDBRANCH   8  16
ENDBRANCH   4   7
BRANCH   1  18
ATOM     18  C   UNL     1       0.998   9.040  22.092  0.00  0.00    +0.000 C 
BRANCH  18  19
ATOM     19  C   UNL     1       1.402   8.577  20.684  0.00  0.00    +0.000 C 
BRANCH  19  22
ATOM     20  O   UNL     1       2.335   7.146  18.430  0.00  0.00    +0.000 OA
ATOM     21  C   UNL     1       2.289   6.578  19.514  0.00  0.00    +0.000 C 
ATOM     22  N   UNL     1       1.800   7.180  20.660  0.00  0.00    +0.000 N 
ATOM     23  H   UNL     1       1.662   6.630  21.499  0.00  0.00    +0.000 HD
BRANCH  21  24
ATOM     24  C   UNL     1       2.789   5.190  19.672  0.00  0.00    +0.000 A 
ATOM     25  C   UNL     1       4.113   4.886  19.351  0.00  0.00    +0.000 A 
ATOM     26  F   UNL     1       4.951   5.819  18.878  0.00  0.00    +0.000 F 
ATOM     27  C   UNL     1       4.624   3.602  19.556  0.00  0.00    +0.000 A 
ATOM     28  C   UNL     1       3.810   2.600  20.083  0.00  0.00    +0.000 A 
ATOM     29  C   UNL     1       2.481   2.886  20.389  0.00  0.00    +0.000 A 
ATOM     30  C   UNL     1       1.982   4.172  20.180  0.00  0.00    +0.000 A 
ATOM     31  F   UNL     1       0.700   4.408  20.499  0.00  0.00    +0.000 F 
ENDBRANCH  21  24
ENDBRANCH  19  22
ENDBRANCH  18  19
ENDBRANCH   1  18
TORSDOF 6
ENDMDL
