MODEL 1
REMARK VINA RESULT:      -8.2      0.000      0.000
REMARK  Name = 
REMARK  12 active torsions:
REMARK  status: ('A' for Active; 'I' for Inactive)
REMARK    1  A    between atoms: C_1  and  C_2
REMARK    2  A    between atoms: C_2  and  O_3
REMARK    3  A    between atoms: O_3  and  C_4
REMARK    4  A    between atoms: C_4  and  C_6
REMARK    5  A    between atoms: N_8  and  C_9
REMARK    6  A    between atoms: C_9  and  C_10
REMARK    7  A    between atoms: C_13  and  C_14
REMARK    8  A    between atoms: C_18  and  C_19
REMARK    9  A    between atoms: C_19  and  O_21
REMARK   10  A    between atoms: O_21  and  C_22
REMARK   11  A    between atoms: C_23  and  C_24
REMARK   12  A    between atoms: N_25  and  C_26
REMARK                            x       y       z     vdW  Elec       q    Type
REMARK                         _______ _______ _______ _____ _____    ______ ____
ROOT
ATOM      1  C   UNL     1       4.677   6.596  17.576  0.00  0.00    +0.000 C 
ATOM      2  C   UNL     1       3.617   5.994  18.141  0.00  0.00    +0.000 C 
ATOM      3  C   UNL     1       3.320   4.537  17.952  0.00  0.00    +0.000 C 
ATOM      4  O   UNL     1       3.618   3.828  17.003  0.00  0.00    +0.000 OA
ATOM      5  C   UNL     1       2.368   4.162  19.018  0.00  0.00    +0.000 C 
ATOM      6  C   UNL     1       1.938   5.331  19.545  0.00  0.00    +0.000 C 
ATOM      7  C   UNL     1       1.002   5.463  20.716  0.00  0.00    +0.000 C 
ATOM      8  N   UNL     1       2.595   6.459  18.986  0.00  0.00    +0.000 N 
ENDROOT
BRANCH   8   9
ATOM      9  C   UNL     1       2.083   7.794  19.007  0.00  0.00    +0.000 A 
ATOM     10  C   UNL     1       1.556   8.376  20.174  0.00  0.00    +0.000 A 
ATOM     11  C   UNL     1       1.097   9.700  20.188  0.00  0.00    +0.000 A 
ATOM     12  C   UNL     1       1.114  10.449  19.020  0.00  0.00    +0.000 A 
ATOM     13  F   UNL     1       0.654  11.706  19.029  0.00  0.00    +0.000 F 
ATOM     14  C   UNL     1       1.603   9.905  17.844  0.00  0.00    +0.000 A 
ATOM     15  C   UNL     1       2.103   8.598  17.847  0.00  0.00    +0.000 A 
ENDBRANCH   8   9
BRANCH   1  19
ATOM     16  C   UNL     1       6.975   5.076  15.236  0.00  0.00    +0.000 A 
ATOM     17  C   UNL     1       7.635   4.776  16.404  0.00  0.00    +0.000 A 
ATOM     18  C   UNL     1       6.855   5.320  17.449  0.00  0.00    +0.000 A 
ATOM     19  C   UNL     1       5.745   5.938  16.887  0.00  0.00    +0.000 A 
ATOM     20  O   UNL     1       5.807   5.717  15.526  0.00  0.00    +0.000 OA
BRANCH  16  21
ATOM     21  C   UNL     1       7.322   4.889  13.804  0.00  0.00    +0.000 C 
BRANCH  21  24
ATOM     22  C   UNL     1       6.566   3.295  12.071  0.00  0.00    +0.000 C 
ATOM     23  O   UNL     1       7.672   3.120  11.581  0.00  0.00    +0.000 OA
ATOM     24  N   UNL     1       6.293   4.135  13.130  0.00  0.00    +0.000 N 
ATOM     25  H   UNL     1       5.346   4.151  13.493  0.00  0.00    +0.000 HD
BRANCH  22  26
ATOM     26  C   UNL     1       5.318   2.530  11.561  0.00  0.00    +0.000 C 
ATOM     27  O   UNL     1       5.396   1.385  11.144  0.00  0.00    +0.000 OA
BRANCH  26  28
ATOM     28  O   UNL     1       4.239   3.337  11.560  0.00  0.00    +0.000 OA
BRANCH  28  30
ATOM     29  C   UNL     1       3.037   4.171   9.673  0.00  0.00    +0.000 C 
ATOM     30  C   UNL     1       3.212   2.998  10.620  0.00  0.00    +0.000 C 
ENDBRANCH  28  30
ENDBRANCH  26  28
ENDBRANCH  22  26
ENDBRANCH  21  24
ENDBRANCH  16  21
ENDBRANCH   1  19
BRANCH   5  31
ATOM     31  C   UNL     1       2.026   2.777  19.363  0.00  0.00    +0.000 C 
ATOM     32  O   UNL     1       1.054   2.169  18.943  0.00  0.00    +0.000 OA
BRANCH  31  33
ATOM     33  O   UNL     1       2.936   2.301  20.246  0.00  0.00    +0.000 OA
ATOM     34  C   UNL     1       2.584   2.419  21.623  0.00  0.00    +0.000 C 
ENDBRANCH  31  33
ENDBRANCH   5  31
TORSDOF 9
ENDMDL
MODEL 2
REMARK VINA RESULT:      -8.1      4.753      9.655
REMARK  Name = 
REMARK  12 active torsions:
REMARK  status: ('A' for Active; 'I' for Inactive)
REMARK    1  A    between atoms: C_1  and  C_2
REMARK    2  A    between atoms: C_2  and  O_3
REMARK    3  A    between atoms: O_3  and  C_4
REMARK    4  A    between atoms: C_4  and  C_6
REMARK    5  A    between atoms: N_8  and  C_9
REMARK    6  A    between atoms: C_9  and  C_10
REMARK    7  A    between atoms: C_13  and  C_14
REMARK    8  A    between atoms: C_18  and  C_19
REMARK    9  A    between atoms: C_19  and  O_21
REMARK   10  A    between atoms: O_21  and  C_22
REMARK   11  A    between atoms: C_23  and  C_24
REMARK   12  A    between atoms: N_25  and  C_26
REMARK                            x       y       z     vdW  Elec       q    Type
REMARK                         _______ _______ _______ _____ _____    ______ ____
ROOT
ATOM      1  C   UNL     1       2.824   7.339  17.849  0.00  0.00    +0.000 C 
ATOM      2  C   UNL     1       2.804   6.036  18.172  0.00  0.00    +0.000 C 
ATOM      3  C   UNL     1       2.037   5.504  19.345  0.00  0.00    +0.000 C 
ATOM      4  O   UNL     1       1.744   6.090  20.376  0.00  0.00    +0.000 OA
ATOM      5  C   UNL     1       1.912   4.047  19.138  0.00  0.00    +0.000 C 
ATOM      6  C   UNL     1       2.772   3.749  18.138  0.00  0.00    +0.000 C 
ATOM      7  C   UNL     1       2.949   2.387  17.523  0.00  0.00    +0.000 C 
ATOM      8  N   UNL     1       3.396   4.902  17.590  0.00  0.00    +0.000 N 
ENDROOT
BRANCH   8   9
ATOM      9  C   UNL     1       4.624   4.893  16.858  0.00  0.00    +0.000 A 
ATOM     10  C   UNL     1       4.670   4.645  15.475  0.00  0.00    +0.000 A 
ATOM     11  C   UNL     1       5.878   4.682  14.765  0.00  0.00    +0.000 A 
ATOM     12  C   UNL     1       7.067   4.923  15.438  0.00  0.00    +0.000 A 
ATOM     13  F   UNL     1       8.223   4.936  14.762  0.00  0.00    +0.000 F 
ATOM     14  C   UNL     1       7.068   5.148  16.805  0.00  0.00    +0.000 A 
ATOM     15  C   UNL     1       5.853   5.156  17.500  0.00  0.00    +0.000 A 
ENDBRANCH   8   9
BRANCH   1  19
ATOM     16  C   UNL     1       1.079   9.703  19.955  0.00  0.00    +0.000 A 
ATOM     17  C   UNL     1       0.467   9.997  18.760  0.00  0.00    +0.000 A 
ATOM     18  C   UNL     1       1.053   9.143  17.798  0.00  0.00    +0.000 A 
ATOM     19  C   UNL     1       2.007   8.359  18.435  0.00  0.00    +0.000 A 
ATOM     20  O   UNL     1       1.957   8.676  19.778  0.00  0.00    +0.000 OA
BRANCH  16  21
ATOM     21  C   UNL     1       0.998  10.315  21.307  0.00  0.00    +0.000 C 
BRANCH  21  24
ATOM     22  C   UNL     1      -0.977  11.106  22.568  0.00  0.00    +0.000 C 
ATOM     23  O   UNL     1      -0.764  10.426  23.561  0.00  0.00    +0.000 OA
ATOM     24  N   UNL     1      -0.199  11.112  21.429  0.00  0.00    +0.000 N 
ATOM     25  H   UNL     1      -0.437  11.766  20.693  0.00  0.00    +0.000 HD
BRANCH  22  26
ATOM     26  C   UNL     1      -2.164  12.100  22.500  0.00  0.00    +0.000 C 
ATOM     27  O   UNL     1      -2.138  13.078  21.769  0.00  0.00    +0.000 OA
BRANCH  26  28
ATOM     28  O   UNL     1      -3.105  11.773  23.408  0.00  0.00    +0.000 OA
BRANCH  28  30
ATOM     29  C   UNL     1      -4.917  12.355  24.849  0.00  0.00    +0.000 C 
ATOM     30  C   UNL     1      -3.695  12.872  24.112  0.00  0.00    +0.000 C 
ENDBRANCH  28  30
ENDBRANCH  26  28
ENDBRANCH  22  26
ENDBRANCH  21  24
ENDBRANCH  16  21
ENDBRANCH   1  19
BRANCH   5  31
ATOM     31  C   UNL     1       1.007   3.183  19.907  0.00  0.00    +0.000 C 
ATOM     32  O   UNL     1       0.094   2.526  19.434  0.00  0.00    +0.000 OA
BRANCH  31  33
ATOM     33  O   UNL     1       1.326   3.265  21.221  0.00  0.00    +0.000 OA
ATOM     34  C   UNL     1       2.547   2.635  21.603  0.00  0.00    +0.000 C 
ENDBRANCH  31  33
ENDBRANCH   5  31
TORSDOF 9
ENDMDL
MODEL 3
REMARK VINA RESULT:      -7.9      4.607      7.972
REMARK  Name = 
REMARK  12 active torsions:
REMARK  status: ('A' for Active; 'I' for Inactive)
REMARK    1  A    between atoms: C_1  and  C_2
REMARK    2  A    between atoms: C_2  and  O_3
REMARK    3  A    between atoms: O_3  and  C_4
REMARK    4  A    between atoms: C_4  and  C_6
REMARK    5  A    between atoms: N_8  and  C_9
REMARK    6  A    between atoms: C_9  and  C_10
REMARK    7  A    between atoms: C_13  and  C_14
REMARK    8  A    between atoms: C_18  and  C_19
REMARK    9  A    between atoms: C_19  and  O_21
REMARK   10  A    between atoms: O_21  and  C_22
REMARK   11  A    between atoms: C_23  and  C_24
REMARK   12  A    between atoms: N_25  and  C_26
REMARK                            x       y       z     vdW  Elec       q    Type
REMARK                         _______ _______ _______ _____ _____    ______ ____
ROOT
ATOM      1  C   UNL     1       2.937   7.942  17.460  0.00  0.00    +0.000 C 
ATOM      2  C   UNL     1       2.999   6.728  18.031  0.00  0.00    +0.000 C 
ATOM      3  C   UNL     1       2.379   6.426  19.362  0.00  0.00    +0.000 C 
ATOM      4  O   UNL     1       2.174   7.200  20.285  0.00  0.00    +0.000 OA
ATOM      5  C   UNL     1       2.287   4.955  19.458  0.00  0.00    +0.000 C 
ATOM      6  C   UNL     1       3.049   4.479  18.448  0.00  0.00    +0.000 C 
ATOM      7  C   UNL     1       3.212   3.025  18.095  0.00  0.00    +0.000 C 
ATOM      8  N   UNL     1       3.569   5.510  17.621  0.00  0.00    +0.000 N 
ENDROOT
BRANCH   8   9
ATOM      9  C   UNL     1       4.714   5.376  16.775  0.00  0.00    +0.000 A 
ATOM     10  C   UNL     1       4.643   4.773  15.507  0.00  0.00    +0.000 A 
ATOM     11  C   UNL     1       5.765   4.687  14.673  0.00  0.00    +0.000 A 
ATOM     12  C   UNL     1       6.991   5.164  15.114  0.00  0.00    +0.000 A 
ATOM     13  F   UNL     1       8.068   5.062  14.325  0.00  0.00    +0.000 F 
ATOM     14  C   UNL     1       7.109   5.744  16.366  0.00  0.00    +0.000 A 
ATOM     15  C   UNL     1       5.975   5.868  17.176  0.00  0.00    +0.000 A 
ENDBRANCH   8   9
BRANCH   1  19
ATOM     16  C   UNL     1       0.381  10.268  18.519  0.00  0.00    +0.000 A 
ATOM     17  C   UNL     1       1.473  11.096  18.620  0.00  0.00    +0.000 A 
ATOM     18  C   UNL     1       2.592  10.322  18.238  0.00  0.00    +0.000 A 
ATOM     19  C   UNL     1       2.149   9.044  17.921  0.00  0.00    +0.000 A 
ATOM     20  O   UNL     1       0.773   9.054  18.038  0.00  0.00    +0.000 OA
BRANCH  16  21
ATOM     21  C   UNL     1      -1.051  10.436  18.880  0.00  0.00    +0.000 C 
BRANCH  21  24
ATOM     22  C   UNL     1      -2.970  10.244  17.331  0.00  0.00    +0.000 C 
ATOM     23  O   UNL     1      -3.454   9.257  17.865  0.00  0.00    +0.000 OA
ATOM     24  N   UNL     1      -1.811  10.875  17.735  0.00  0.00    +0.000 N 
ATOM     25  H   UNL     1      -1.540  11.726  17.255  0.00  0.00    +0.000 HD
BRANCH  22  26
ATOM     26  C   UNL     1      -3.657  10.941  16.129  0.00  0.00    +0.000 C 
ATOM     27  O   UNL     1      -4.665  11.614  16.271  0.00  0.00    +0.000 OA
BRANCH  26  28
ATOM     28  O   UNL     1      -3.048  10.599  14.976  0.00  0.00    +0.000 OA
BRANCH  28  30
ATOM     29  C   UNL     1      -3.022   9.608  12.805  0.00  0.00    +0.000 C 
ATOM     30  C   UNL     1      -3.895  10.025  13.975  0.00  0.00    +0.000 C 
ENDBRANCH  28  30
ENDBRANCH  26  28
ENDBRANCH  22  26
ENDBRANCH  21  24
ENDBRANCH  16  21
ENDBRANCH   1  19
BRANCH   5  31
ATOM     31  C   UNL     1       1.500   4.247  20.475  0.00  0.00    +0.000 C 
ATOM     32  O   UNL     1       0.307   4.005  20.395  0.00  0.00    +0.000 OA
BRANCH  31  33
ATOM     33  O   UNL     1       2.301   3.944  21.526  0.00  0.00    +0.000 OA
ATOM     34  C   UNL     1       2.633   2.566  21.674  0.00  0.00    +0.000 C 
ENDBRANCH  31  33
ENDBRANCH   5  31
TORSDOF 9
ENDMDL
MODEL 4
REMARK VINA RESULT:      -7.9      4.438      8.989
REMARK  Name = 
REMARK  12 active torsions:
REMARK  status: ('A' for Active; 'I' for Inactive)
REMARK    1  A    between atoms: C_1  and  C_2
REMARK    2  A    between atoms: C_2  and  O_3
REMARK    3  A    between atoms: O_3  and  C_4
REMARK    4  A    between atoms: C_4  and  C_6
REMARK    5  A    between atoms: N_8  and  C_9
REMARK    6  A    between atoms: C_9  and  C_10
REMARK    7  A    between atoms: C_13  and  C_14
REMARK    8  A    between atoms: C_18  and  C_19
REMARK    9  A    between atoms: C_19  and  O_21
REMARK   10  A    between atoms: O_21  and  C_22
REMARK   11  A    between atoms: C_23  and  C_24
REMARK   12  A    between atoms: N_25  and  C_26
REMARK                            x       y       z     vdW  Elec       q    Type
REMARK                         _______ _______ _______ _____ _____    ______ ____
ROOT
ATOM      1  C   UNL     1       3.011   7.884  17.372  0.00  0.00    +0.000 C 
ATOM      2  C   UNL     1       3.059   6.664  17.931  0.00  0.00    +0.000 C 
ATOM      3  C   UNL     1       2.439   6.359  19.262  0.00  0.00    +0.000 C 
ATOM      4  O   UNL     1       2.248   7.127  20.193  0.00  0.00    +0.000 OA
ATOM      5  C   UNL     1       2.327   4.888  19.345  0.00  0.00    +0.000 C 
ATOM      6  C   UNL     1       3.079   4.412  18.327  0.00  0.00    +0.000 C 
ATOM      7  C   UNL     1       3.221   2.959  17.960  0.00  0.00    +0.000 C 
ATOM      8  N   UNL     1       3.610   5.443  17.508  0.00  0.00    +0.000 N 
ENDROOT
BRANCH   8   9
ATOM      9  C   UNL     1       4.751   5.302  16.656  0.00  0.00    +0.000 A 
ATOM     10  C   UNL     1       6.022   5.778  17.021  0.00  0.00    +0.000 A 
ATOM     11  C   UNL     1       7.138   5.594  16.194  0.00  0.00    +0.000 A 
ATOM     12  C   UNL     1       6.989   4.969  14.964  0.00  0.00    +0.000 A 
ATOM     13  F   UNL     1       8.052   4.813  14.165  0.00  0.00    +0.000 F 
ATOM     14  C   UNL     1       5.749   4.506  14.557  0.00  0.00    +0.000 A 
ATOM     15  C   UNL     1       4.648   4.651  15.408  0.00  0.00    +0.000 A 
ENDBRANCH   8   9
BRANCH   1  19
ATOM     16  C   UNL     1       0.531  10.182  18.651  0.00  0.00    +0.000 A 
ATOM     17  C   UNL     1       1.540  11.081  18.402  0.00  0.00    +0.000 A 
ATOM     18  C   UNL     1       2.621  10.328  17.889  0.00  0.00    +0.000 A 
ATOM     19  C   UNL     1       2.239   8.993  17.846  0.00  0.00    +0.000 A 
ATOM     20  O   UNL     1       0.922   8.937  18.258  0.00  0.00    +0.000 OA
BRANCH  16  21
ATOM     21  C   UNL     1      -0.804  10.316  19.291  0.00  0.00    +0.000 C 
BRANCH  21  24
ATOM     22  C   UNL     1      -0.476   9.693  21.661  0.00  0.00    +0.000 C 
ATOM     23  O   UNL     1      -0.435   8.488  21.463  0.00  0.00    +0.000 OA
ATOM     24  N   UNL     1      -0.663  10.651  20.687  0.00  0.00    +0.000 N 
ATOM     25  H   UNL     1      -0.614  11.625  20.961  0.00  0.00    +0.000 HD
BRANCH  22  26
ATOM     26  C   UNL     1      -0.269  10.293  23.075  0.00  0.00    +0.000 C 
ATOM     27  O   UNL     1       0.199   9.632  23.989  0.00  0.00    +0.000 OA
BRANCH  26  28
ATOM     28  O   UNL     1      -0.765  11.545  23.133  0.00  0.00    +0.000 OA
BRANCH  28  30
ATOM     29  C   UNL     1      -2.640  12.995  22.844  0.00  0.00    +0.000 C 
ATOM     30  C   UNL     1      -2.178  11.641  23.354  0.00  0.00    +0.000 C 
ENDBRANCH  28  30
ENDBRANCH  26  28
ENDBRANCH  22  26
ENDBRANCH  21  24
ENDBRANCH  16  21
ENDBRANCH   1  19
BRANCH   5  31
ATOM     31  C   UNL     1       1.535   4.182  20.358  0.00  0.00    +0.000 C 
ATOM     32  O   UNL     1       0.359   3.875  20.240  0.00  0.00    +0.000 OA
BRANCH  31  33
ATOM     33  O   UNL     1       2.305   3.962  21.451  0.00  0.00    +0.000 OA
ATOM     34  C   UNL     1       2.726   2.615  21.652  0.00  0.00    +0.000 C 
ENDBRANCH  31  33
ENDBRANCH   5  31
TORSDOF 9
ENDMDL
MODEL 5
REMARK VINA RESULT:      -7.9      4.486      9.041
REMARK  Name = 
REMARK  12 active torsions:
REMARK  status: ('A' for Active; 'I' for Inactive)
REMARK    1  A    between atoms: C_1  and  C_2
REMARK    2  A    between atoms: C_2  and  O_3
REMARK    3  A    between atoms: O_3  and  C_4
REMARK    4  A    between atoms: C_4  and  C_6
REMARK    5  A    between atoms: N_8  and  C_9
REMARK    6  A    between atoms: C_9  and  C_10
REMARK    7  A    between atoms: C_13  and  C_14
REMARK    8  A    between atoms: C_18  and  C_19
REMARK    9  A    between atoms: C_19  and  O_21
REMARK   10  A    between atoms: O_21  and  C_22
REMARK   11  A    between atoms: C_23  and  C_24
REMARK   12  A    between atoms: N_25  and  C_26
REMARK                            x       y       z     vdW  Elec       q    Type
REMARK                         _______ _______ _______ _____ _____    ______ ____
ROOT
ATOM      1  C   UNL     1       2.789   7.790  17.411  0.00  0.00    +0.000 C 
ATOM      2  C   UNL     1       2.901   6.586  17.995  0.00  0.00    +0.000 C 
ATOM      3  C   UNL     1       2.269   6.265  19.317  0.00  0.00    +0.000 C 
ATOM      4  O   UNL     1       2.006   7.036  20.227  0.00  0.00    +0.000 OA
ATOM      5  C   UNL     1       2.251   4.793  19.426  0.00  0.00    +0.000 C 
ATOM      6  C   UNL     1       3.057   4.347  18.436  0.00  0.00    +0.000 C 
ATOM      7  C   UNL     1       3.301   2.900  18.101  0.00  0.00    +0.000 C 
ATOM      8  N   UNL     1       3.541   5.396  17.609  0.00  0.00    +0.000 N 
ENDROOT
BRANCH   8   9
ATOM      9  C   UNL     1       4.709   5.313  16.788  0.00  0.00    +0.000 A 
ATOM     10  C   UNL     1       4.706   4.655  15.545  0.00  0.00    +0.000 A 
ATOM     11  C   UNL     1       5.847   4.619  14.734  0.00  0.00    +0.000 A 
ATOM     12  C   UNL     1       7.026   5.203  15.175  0.00  0.00    +0.000 A 
ATOM     13  F   UNL     1       8.123   5.149  14.408  0.00  0.00    +0.000 F 
ATOM     14  C   UNL     1       7.078   5.840  16.403  0.00  0.00    +0.000 A 
ATOM     15  C   UNL     1       5.922   5.913  17.188  0.00  0.00    +0.000 A 
ENDBRANCH   8   9
BRANCH   1  19
ATOM     16  C   UNL     1       1.246  10.742  18.815  0.00  0.00    +0.000 A 
ATOM     17  C   UNL     1       0.125  10.155  18.277  0.00  0.00    +0.000 A 
ATOM     18  C   UNL     1       0.562   8.958  17.665  0.00  0.00    +0.000 A 
ATOM     19  C   UNL     1       1.936   8.854  17.844  0.00  0.00    +0.000 A 
ATOM     20  O   UNL     1       2.324   9.932  18.614  0.00  0.00    +0.000 OA
BRANCH  16  21
ATOM     21  C   UNL     1       1.480  12.050  19.480  0.00  0.00    +0.000 C 
BRANCH  21  24
ATOM     22  C   UNL     1      -0.391  12.429  21.053  0.00  0.00    +0.000 C 
ATOM     23  O   UNL     1      -1.180  12.820  20.206  0.00  0.00    +0.000 OA
ATOM     24  N   UNL     1       0.912  12.050  20.806  0.00  0.00    +0.000 N 
ATOM     25  H   UNL     1       1.455  11.680  21.579  0.00  0.00    +0.000 HD
BRANCH  22  26
ATOM     26  C   UNL     1      -0.802  12.270  22.538  0.00  0.00    +0.000 C 
ATOM     27  O   UNL     1      -0.540  13.126  23.369  0.00  0.00    +0.000 OA
BRANCH  26  28
ATOM     28  O   UNL     1      -1.356  11.059  22.747  0.00  0.00    +0.000 OA
BRANCH  28  30
ATOM     29  C   UNL     1      -0.401   8.953  22.155  0.00  0.00    +0.000 C 
ATOM     30  C   UNL     1      -0.463  10.040  23.212  0.00  0.00    +0.000 C 
ENDBRANCH  28  30
ENDBRANCH  26  28
ENDBRANCH  22  26
ENDBRANCH  21  24
ENDBRANCH  16  21
ENDBRANCH   1  19
BRANCH   5  31
ATOM     31  C   UNL     1       1.480   4.055  20.434  0.00  0.00    +0.000 C 
ATOM     32  O   UNL     1       0.313   3.716  20.316  0.00  0.00    +0.000 OA
BRANCH  31  33
ATOM     33  O   UNL     1       2.258   3.846  21.524  0.00  0.00    +0.000 OA
ATOM     34  C   UNL     1       2.747   2.517  21.691  0.00  0.00    +0.000 C 
ENDBRANCH  31  33
ENDBRANCH   5  31
TORSDOF 9
ENDMDL
MODEL 6
REMARK VINA RESULT:      -7.8      0.631      1.296
REMARK  Name = 
REMARK  12 active torsions:
REMARK  status: ('A' for Active; 'I' for Inactive)
REMARK    1  A    between atoms: C_1  and  C_2
REMARK    2  A    between atoms: C_2  and  O_3
REMARK    3  A    between atoms: O_3  and  C_4
REMARK    4  A    between atoms: C_4  and  C_6
REMARK    5  A    between atoms: N_8  and  C_9
REMARK    6  A    between atoms: C_9  and  C_10
REMARK    7  A    between atoms: C_13  and  C_14
REMARK    8  A    between atoms: C_18  and  C_19
REMARK    9  A    between atoms: C_19  and  O_21
REMARK   10  A    between atoms: O_21  and  C_22
REMARK   11  A    between atoms: C_23  and  C_24
REMARK   12  A    between atoms: N_25  and  C_26
REMARK                            x       y       z     vdW  Elec       q    Type
REMARK                         _______ _______ _______ _____ _____    ______ ____
ROOT
ATOM      1  C   UNL     1       4.649   6.614  17.756  0.00  0.00    +0.000 C 
ATOM      2  C   UNL     1       3.654   6.078  18.480  0.00  0.00    +0.000 C 
ATOM      3  C   UNL     1       3.423   4.599  18.568  0.00  0.00    +0.000 C 
ATOM      4  O   UNL     1       3.708   3.747  17.741  0.00  0.00    +0.000 OA
ATOM      5  C   UNL     1       2.549   4.381  19.739  0.00  0.00    +0.000 C 
ATOM      6  C   UNL     1       2.088   5.606  20.079  0.00  0.00    +0.000 C 
ATOM      7  C   UNL     1       1.209   5.904  21.264  0.00  0.00    +0.000 C 
ATOM      8  N   UNL     1       2.655   6.643  19.292  0.00  0.00    +0.000 N 
ENDROOT
BRANCH   8   9
ATOM      9  C   UNL     1       2.075   7.938  19.110  0.00  0.00    +0.000 A 
ATOM     10  C   UNL     1       2.018   8.563  17.852  0.00  0.00    +0.000 A 
ATOM     11  C   UNL     1       1.408   9.814  17.684  0.00  0.00    +0.000 A 
ATOM     12  C   UNL     1       0.886  10.480  18.783  0.00  0.00    +0.000 A 
ATOM     13  F   UNL     1       0.324  11.685  18.625  0.00  0.00    +0.000 F 
ATOM     14  C   UNL     1       0.944   9.909  20.044  0.00  0.00    +0.000 A 
ATOM     15  C   UNL     1       1.513   8.640  20.197  0.00  0.00    +0.000 A 
ENDBRANCH   8   9
BRANCH   1  19
ATOM     16  C   UNL     1       6.965   4.927  15.553  0.00  0.00    +0.000 A 
ATOM     17  C   UNL     1       7.565   4.631  16.754  0.00  0.00    +0.000 A 
ATOM     18  C   UNL     1       6.769   5.238  17.751  0.00  0.00    +0.000 A 
ATOM     19  C   UNL     1       5.712   5.890  17.128  0.00  0.00    +0.000 A 
ATOM     20  O   UNL     1       5.817   5.627  15.777  0.00  0.00    +0.000 OA
BRANCH  16  21
ATOM     21  C   UNL     1       7.360   4.684  14.141  0.00  0.00    +0.000 C 
BRANCH  21  24
ATOM     22  C   UNL     1       6.484   3.504  12.152  0.00  0.00    +0.000 C 
ATOM     23  O   UNL     1       7.323   3.938  11.377  0.00  0.00    +0.000 OA
ATOM     24  N   UNL     1       6.408   3.814  13.494  0.00  0.00    +0.000 N 
ATOM     25  H   UNL     1       5.706   3.341  14.053  0.00  0.00    +0.000 HD
BRANCH  22  26
ATOM     26  C   UNL     1       5.404   2.488  11.699  0.00  0.00    +0.000 C 
ATOM     27  O   UNL     1       5.704   1.383  11.275  0.00  0.00    +0.000 OA
BRANCH  26  28
ATOM     28  O   UNL     1       4.180   3.048  11.749  0.00  0.00    +0.000 OA
BRANCH  28  30
ATOM     29  C   UNL     1       2.908   3.404   9.761  0.00  0.00    +0.000 C 
ATOM     30  C   UNL     1       3.899   4.018  10.733  0.00  0.00    +0.000 C 
ENDBRANCH  28  30
ENDBRANCH  26  28
ENDBRANCH  22  26
ENDBRANCH  21  24
ENDBRANCH  16  21
ENDBRANCH   1  19
BRANCH   5  31
ATOM     31  C   UNL     1       2.299   3.066  20.342  0.00  0.00    +0.000 C 
ATOM     32  O   UNL     1       3.128   2.398  20.938  0.00  0.00    +0.000 OA
BRANCH  31  33
ATOM     33  O   UNL     1       1.017   2.701  20.095  0.00  0.00    +0.000 OA
ATOM     34  C   UNL     1       0.744   2.255  18.769  0.00  0.00    +0.000 C 
ENDBRANCH  31  33
ENDBRANCH   5  31
TORSDOF 9
ENDMDL
MODEL 7
REMARK VINA RESULT:      -7.8      4.736      9.281
REMARK  Name = 
REMARK  12 active torsions:
REMARK  status: ('A' for Active; 'I' for Inactive)
REMARK    1  A    between atoms: C_1  and  C_2
REMARK    2  A    between atoms: C_2  and  O_3
REMARK    3  A    between atoms: O_3  and  C_4
REMARK    4  A    between atoms: C_4  and  C_6
REMARK    5  A    between atoms: N_8  and  C_9
REMARK    6  A    between atoms: C_9  and  C_10
REMARK    7  A    between atoms: C_13  and  C_14
REMARK    8  A    between atoms: C_18  and  C_19
REMARK    9  A    between atoms: C_19  and  O_21
REMARK   10  A    between atoms: O_21  and  C_22
REMARK   11  A    between atoms: C_23  and  C_24
REMARK   12  A    between atoms: N_25  and  C_26
REMARK                            x       y       z     vdW  Elec       q    Type
REMARK                         _______ _______ _______ _____ _____    ______ ____
ROOT
ATOM      1  C   UNL     1       2.818   7.851  17.390  0.00  0.00    +0.000 C 
ATOM      2  C   UNL     1       3.035   6.711  18.066  0.00  0.00    +0.000 C 
ATOM      3  C   UNL     1       2.492   6.471  19.443  0.00  0.00    +0.000 C 
ATOM      4  O   UNL     1       2.227   7.302  20.298  0.00  0.00    +0.000 OA
ATOM      5  C   UNL     1       2.571   5.015  19.676  0.00  0.00    +0.000 C 
ATOM      6  C   UNL     1       3.353   4.532  18.684  0.00  0.00    +0.000 C 
ATOM      7  C   UNL     1       3.670   3.078  18.459  0.00  0.00    +0.000 C 
ATOM      8  N   UNL     1       3.728   5.531  17.747  0.00  0.00    +0.000 N 
ENDROOT
BRANCH   8   9
ATOM      9  C   UNL     1       4.856   5.444  16.872  0.00  0.00    +0.000 A 
ATOM     10  C   UNL     1       6.113   5.971  17.216  0.00  0.00    +0.000 A 
ATOM     11  C   UNL     1       7.219   5.841  16.365  0.00  0.00    +0.000 A 
ATOM     12  C   UNL     1       7.072   5.220  15.133  0.00  0.00    +0.000 A 
ATOM     13  F   UNL     1       8.124   5.115  14.311  0.00  0.00    +0.000 F 
ATOM     14  C   UNL     1       5.844   4.708  14.746  0.00  0.00    +0.000 A 
ATOM     15  C   UNL     1       4.755   4.801  15.620  0.00  0.00    +0.000 A 
ENDBRANCH   8   9
BRANCH   1  19
ATOM     16  C   UNL     1       1.168  10.825  18.612  0.00  0.00    +0.000 A 
ATOM     17  C   UNL     1       0.058  10.120  18.211  0.00  0.00    +0.000 A 
ATOM     18  C   UNL     1       0.537   8.898  17.686  0.00  0.00    +0.000 A 
ATOM     19  C   UNL     1       1.923   8.898  17.779  0.00  0.00    +0.000 A 
ATOM     20  O   UNL     1       2.285  10.069  18.415  0.00  0.00    +0.000 OA
BRANCH  16  21
ATOM     21  C   UNL     1       1.353  12.204  19.133  0.00  0.00    +0.000 C 
BRANCH  21  24
ATOM     22  C   UNL     1       0.651  13.179  21.295  0.00  0.00    +0.000 C 
ATOM     23  O   UNL     1       1.766  13.561  21.620  0.00  0.00    +0.000 OA
ATOM     24  N   UNL     1       0.353  12.506  20.129  0.00  0.00    +0.000 N 
ATOM     25  H   UNL     1      -0.620  12.296  19.936  0.00  0.00    +0.000 HD
BRANCH  22  26
ATOM     26  C   UNL     1      -0.595  13.461  22.172  0.00  0.00    +0.000 C 
ATOM     27  O   UNL     1      -1.325  14.416  21.957  0.00  0.00    +0.000 OA
BRANCH  26  28
ATOM     28  O   UNL     1      -0.653  12.593  23.201  0.00  0.00    +0.000 OA
BRANCH  28  30
ATOM     29  C   UNL     1      -0.758  10.210  23.111  0.00  0.00    +0.000 C 
ATOM     30  C   UNL     1      -1.560  11.497  23.036  0.00  0.00    +0.000 C 
ENDBRANCH  28  30
ENDBRANCH  26  28
ENDBRANCH  22  26
ENDBRANCH  21  24
ENDBRANCH  16  21
ENDBRANCH   1  19
BRANCH   5  31
ATOM     31  C   UNL     1       1.900   4.324  20.784  0.00  0.00    +0.000 C 
ATOM     32  O   UNL     1       2.425   4.027  21.846  0.00  0.00    +0.000 OA
BRANCH  31  33
ATOM     33  O   UNL     1       0.626   4.038  20.424  0.00  0.00    +0.000 OA
ATOM     34  C   UNL     1       0.462   2.900  19.580  0.00  0.00    +0.000 C 
ENDBRANCH  31  33
ENDBRANCH   5  31
TORSDOF 9
ENDMDL
MODEL 8
REMARK VINA RESULT:      -7.7      4.674      8.366
REMARK  Name = 
REMARK  12 active torsions:
REMARK  status: ('A' for Active; 'I' for Inactive)
REMARK    1  A    between atoms: C_1  and  C_2
REMARK    2  A    between atoms: C_2  and  O_3
REMARK    3  A    between atoms: O_3  and  C_4
REMARK    4  A    between atoms: C_4  and  C_6
REMARK    5  A    between atoms: N_8  and  C_9
REMARK    6  A    between atoms: C_9  and  C_10
REMARK    7  A    between atoms: C_13  and  C_14
REMARK    8  A    between atoms: C_18  and  C_19
REMARK    9  A    between atoms: C_19  and  O_21
REMARK   10  A    between atoms: O_21  and  C_22
REMARK   11  A    between atoms: C_23  and  C_24
REMARK   12  A    between atoms: N_25  and  C_26
REMARK                            x       y       z     vdW  Elec       q    Type
REMARK                         _______ _______ _______ _____ _____    ______ ____
ROOT
ATOM      1  C   UNL     1       2.994   7.710  17.418  0.00  0.00    +0.000 C 
ATOM      2  C   UNL     1       3.168   6.533  18.040  0.00  0.00    +0.000 C 
ATOM      3  C   UNL     1       2.660   6.268  19.426  0.00  0.00    +0.000 C 
ATOM      4  O   UNL     1       2.473   7.076  20.322  0.00  0.00    +0.000 OA
ATOM      5  C   UNL     1       2.663   4.801  19.600  0.00  0.00    +0.000 C 
ATOM      6  C   UNL     1       3.381   4.316  18.561  0.00  0.00    +0.000 C 
ATOM      7  C   UNL     1       3.606   2.857  18.268  0.00  0.00    +0.000 C 
ATOM      8  N   UNL     1       3.781   5.330  17.650  0.00  0.00    +0.000 N 
ENDROOT
BRANCH   8   9
ATOM      9  C   UNL     1       4.871   5.216  16.732  0.00  0.00    +0.000 A 
ATOM     10  C   UNL     1       4.736   4.583  15.483  0.00  0.00    +0.000 A 
ATOM     11  C   UNL     1       5.803   4.518  14.577  0.00  0.00    +0.000 A 
ATOM     12  C   UNL     1       7.038   5.045  14.926  0.00  0.00    +0.000 A 
ATOM     13  F   UNL     1       8.063   4.962  14.069  0.00  0.00    +0.000 F 
ATOM     14  C   UNL     1       7.219   5.656  16.156  0.00  0.00    +0.000 A 
ATOM     15  C   UNL     1       6.137   5.759  17.038  0.00  0.00    +0.000 A 
ENDBRANCH   8   9
BRANCH   1  19
ATOM     16  C   UNL     1       0.391   9.929  18.585  0.00  0.00    +0.000 A 
ATOM     17  C   UNL     1       1.415  10.841  18.488  0.00  0.00    +0.000 A 
ATOM     18  C   UNL     1       2.543  10.118  18.038  0.00  0.00    +0.000 A 
ATOM     19  C   UNL     1       2.175   8.788  17.879  0.00  0.00    +0.000 A 
ATOM     20  O   UNL     1       0.825   8.709  18.159  0.00  0.00    +0.000 OA
BRANCH  16  21
ATOM     21  C   UNL     1      -1.000  10.025  19.100  0.00  0.00    +0.000 C 
BRANCH  21  24
ATOM     22  C   UNL     1      -2.229  11.210  17.311  0.00  0.00    +0.000 C 
ATOM     23  O   UNL     1      -1.755  12.311  17.550  0.00  0.00    +0.000 OA
ATOM     24  N   UNL     1      -1.941  10.055  18.007  0.00  0.00    +0.000 N 
ATOM     25  H   UNL     1      -2.346   9.186  17.676  0.00  0.00    +0.000 HD
BRANCH  22  26
ATOM     26  C   UNL     1      -3.206  10.983  16.129  0.00  0.00    +0.000 C 
ATOM     27  O   UNL     1      -2.908  10.274  15.181  0.00  0.00    +0.000 OA
BRANCH  26  28
ATOM     28  O   UNL     1      -4.309  11.743  16.277  0.00  0.00    +0.000 OA
BRANCH  28  30
ATOM     29  C   UNL     1      -6.323  12.367  17.397  0.00  0.00    +0.000 C 
ATOM     30  C   UNL     1      -5.175  11.374  17.357  0.00  0.00    +0.000 C 
ENDBRANCH  28  30
ENDBRANCH  26  28
ENDBRANCH  22  26
ENDBRANCH  21  24
ENDBRANCH  16  21
ENDBRANCH   1  19
BRANCH   5  31
ATOM     31  C   UNL     1       1.992   4.104  20.704  0.00  0.00    +0.000 C 
ATOM     32  O   UNL     1       2.539   3.719  21.725  0.00  0.00    +0.000 OA
BRANCH  31  33
ATOM     33  O   UNL     1       0.686   3.926  20.389  0.00  0.00    +0.000 OA
ATOM     34  C   UNL     1       0.401   2.825  19.529  0.00  0.00    +0.000 C 
ENDBRANCH  31  33
ENDBRANCH   5  31
TORSDOF 9
ENDMDL
MODEL 9
REMARK VINA RESULT:      -7.7      4.712      9.361
REMARK  Name = 
REMARK  12 active torsions:
REMARK  status: ('A' for Active; 'I' for Inactive)
REMARK    1  A    between atoms: C_1  and  C_2
REMARK    2  A    between atoms: C_2  and  O_3
REMARK    3  A    between atoms: O_3  and  C_4
REMARK    4  A    between atoms: C_4  and  C_6
REMARK    5  A    between atoms: N_8  and  C_9
REMARK    6  A    between atoms: C_9  and  C_10
REMARK    7  A    between atoms: C_13  and  C_14
REMARK    8  A    between atoms: C_18  and  C_19
REMARK    9  A    between atoms: C_19  and  O_21
REMARK   10  A    between atoms: O_21  and  C_22
REMARK   11  A    between atoms: C_23  and  C_24
REMARK   12  A    between atoms: N_25  and  C_26
REMARK                            x       y       z     vdW  Elec       q    Type
REMARK                         _______ _______ _______ _____ _____    ______ ____
ROOT
ATOM      1  C   UNL     1       2.843   7.248  17.924  0.00  0.00    +0.000 C 
ATOM      2  C   UNL     1       2.805   5.941  18.229  0.00  0.00    +0.000 C 
ATOM      3  C   UNL     1       2.017   5.402  19.385  0.00  0.00    +0.000 C 
ATOM      4  O   UNL     1       1.717   5.979  20.420  0.00  0.00    +0.000 OA
ATOM      5  C   UNL     1       1.879   3.949  19.159  0.00  0.00    +0.000 C 
ATOM      6  C   UNL     1       2.750   3.655  18.167  0.00  0.00    +0.000 C 
ATOM      7  C   UNL     1       2.922   2.299  17.537  0.00  0.00    +0.000 C 
ATOM      8  N   UNL     1       3.393   4.807  17.642  0.00  0.00    +0.000 N 
ENDROOT
BRANCH   8   9
ATOM      9  C   UNL     1       4.631   4.795  16.926  0.00  0.00    +0.000 A 
ATOM     10  C   UNL     1       4.685   4.747  15.522  0.00  0.00    +0.000 A 
ATOM     11  C   UNL     1       5.906   4.777  14.835  0.00  0.00    +0.000 A 
ATOM     12  C   UNL     1       7.097   4.811  15.546  0.00  0.00    +0.000 A 
ATOM     13  F   UNL     1       8.263   4.818  14.888  0.00  0.00    +0.000 F 
ATOM     14  C   UNL     1       7.088   4.835  16.930  0.00  0.00    +0.000 A 
ATOM     15  C   UNL     1       5.865   4.851  17.609  0.00  0.00    +0.000 A 
ENDBRANCH   8   9
BRANCH   1  19
ATOM     16  C   UNL     1       1.034   9.553  20.041  0.00  0.00    +0.000 A 
ATOM     17  C   UNL     1       0.552   9.966  18.822  0.00  0.00    +0.000 A 
ATOM     18  C   UNL     1       1.180   9.150  17.853  0.00  0.00    +0.000 A 
ATOM     19  C   UNL     1       2.029   8.268  18.510  0.00  0.00    +0.000 A 
ATOM     20  O   UNL     1       1.872   8.491  19.864  0.00  0.00    +0.000 OA
BRANCH  16  21
ATOM     21  C   UNL     1       0.860  10.070  21.423  0.00  0.00    +0.000 C 
BRANCH  21  24
ATOM     22  C   UNL     1      -0.033  12.374  21.519  0.00  0.00    +0.000 C 
ATOM     23  O   UNL     1       1.059  12.923  21.544  0.00  0.00    +0.000 OA
ATOM     24  N   UNL     1      -0.233  11.010  21.476  0.00  0.00    +0.000 N 
ATOM     25  H   UNL     1      -1.185  10.671  21.392  0.00  0.00    +0.000 HD
BRANCH  22  26
ATOM     26  C   UNL     1      -1.352  13.186  21.488  0.00  0.00    +0.000 C 
ATOM     27  O   UNL     1      -1.358  14.402  21.594  0.00  0.00    +0.000 OA
BRANCH  26  28
ATOM     28  O   UNL     1      -2.414  12.357  21.439  0.00  0.00    +0.000 OA
BRANCH  28  30
ATOM     29  C   UNL     1      -3.288  12.236  23.657  0.00  0.00    +0.000 C 
ATOM     30  C   UNL     1      -3.535  12.738  22.246  0.00  0.00    +0.000 C 
ENDBRANCH  28  30
ENDBRANCH  26  28
ENDBRANCH  22  26
ENDBRANCH  21  24
ENDBRANCH  16  21
ENDBRANCH   1  19
BRANCH   5  31
ATOM     31  C   UNL     1       0.956   3.086  19.905  0.00  0.00    +0.000 C 
ATOM     32  O   UNL     1       0.065   2.417  19.407  0.00  0.00    +0.000 OA
BRANCH  31  33
ATOM     33  O   UNL     1       1.228   3.184  21.229  0.00  0.00    +0.000 OA
ATOM     34  C   UNL     1       2.446   2.579  21.657  0.00  0.00    +0.000 C 
ENDBRANCH  31  33
ENDBRANCH   5  31
TORSDOF 9
ENDMDL
