MODEL 1
REMARK VINA RESULT:      -8.8      0.000      0.000
REMARK  Name = 
REMARK  9 active torsions:
REMARK  status: ('A' for Active; 'I' for Inactive)
REMARK    1  A    between atoms: C_1  and  C_2
REMARK    2  A    between atoms: C_2  and  C_3
REMARK    3  A    between atoms: C_3  and  C_4
REMARK    4  A    between atoms: C_4  and  N_5
REMARK    5  A    between atoms: N_9  and  C_10
REMARK    6  A    between atoms: C_10  and  C_11
REMARK    7  A    between atoms: C_15  and  N_16
REMARK    8  A    between atoms: C_17  and  C_19
REMARK    9  A    between atoms: C_22  and  C_23
REMARK                            x       y       z     vdW  Elec       q    Type
REMARK                         _______ _______ _______ _____ _____    ______ ____
ROOT
ATOM      1  C   UNL     1       4.087   4.413  19.562  0.00  0.00    +0.000 A 
ATOM      2  C   UNL     1       3.378   3.230  19.290  0.00  0.00    +0.000 A 
ATOM      3  C   UNL     1       2.016   3.136  19.579  0.00  0.00    +0.000 A 
ATOM      4  C   UNL     1       1.342   4.223  20.135  0.00  0.00    +0.000 A 
ATOM      5  C   UNL     1       2.010   5.419  20.407  0.00  0.00    +0.000 A 
ATOM      6  C   UNL     1       3.381   5.503  20.114  0.00  0.00    +0.000 A 
ENDROOT
BRANCH   5   7
ATOM      7  N   UNL     1       1.373   6.565  20.945  0.00  0.00    +0.000 N 
ATOM      8  C   UNL     1       1.422   7.842  20.413  0.00  0.00    +0.000 C 
ATOM      9  O   UNL     1       2.003   8.178  19.389  0.00  0.00    +0.000 OA
ATOM     10  H   UNL     1       0.885   6.443  21.819  0.00  0.00    +0.000 HD
BRANCH   8  11
ATOM     11  C   UNL     1       0.737   8.917  21.180  0.00  0.00    +0.000 A 
ATOM     12  C   UNL     1       0.806  10.201  20.632  0.00  0.00    +0.000 A 
ATOM     13  C   UNL     1       0.135  11.264  21.234  0.00  0.00    +0.000 A 
ATOM     14  C   UNL     1      -0.648  11.079  22.382  0.00  0.00    +0.000 A 
ATOM     15  C   UNL     1      -0.683   9.785  22.940  0.00  0.00    +0.000 A 
ATOM     16  C   UNL     1       0.002   8.711  22.350  0.00  0.00    +0.000 A 
BRANCH  14  17
ATOM     17  C   UNL     1      -1.419  12.213  22.944  0.00  0.00    +0.000 A 
ATOM     18  C   UNL     1      -2.721  12.017  23.451  0.00  0.00    +0.000 A 
ATOM     19  C   UNL     1      -3.480  13.080  23.951  0.00  0.00    +0.000 A 
ATOM     20  C   UNL     1      -2.945  14.355  23.971  0.00  0.00    +0.000 A 
ATOM     21  C   UNL     1      -1.656  14.578  23.496  0.00  0.00    +0.000 A 
ATOM     22  C   UNL     1      -0.901  13.519  22.985  0.00  0.00    +0.000 A 
ENDBRANCH  14  17
ENDBRANCH   8  11
ENDBRANCH   5   7
BRANCH   1  23
ATOM     23  C   UNL     1       5.552   4.536  19.154  0.00  0.00    +0.000 C 
BRANCH  23  28
ATOM     24  N   UNL     1       6.873   7.270  16.950  0.00  0.00    +0.000 NA
ATOM     25  C   UNL     1       5.427   7.252  17.239  0.00  0.00    +0.000 C 
ATOM     26  C   UNL     1       4.547   6.176  16.591  0.00  0.00    +0.000 C 
ATOM     27  C   UNL     1       4.851   4.691  16.774  0.00  0.00    +0.000 C 
ATOM     28  N   UNL     1       5.855   4.269  17.739  0.00  0.00    +0.000 NA
ATOM     29  C   UNL     1       7.181   4.700  17.286  0.00  0.00    +0.000 C 
ATOM     30  C   UNL     1       7.611   6.146  17.561  0.00  0.00    +0.000 C 
BRANCH  24  31
ATOM     31  C   UNL     1       7.434   8.538  17.503  0.00  0.00    +0.000 C 
BRANCH  31  32
ATOM     32  C   UNL     1       8.566   8.398  18.538  0.00  0.00    +0.000 C 
BRANCH  32  34
ATOM     33  C   UNL     1       9.321  10.744  18.075  0.00  0.00    +0.000 C 
ATOM     34  C   UNL     1       9.003   9.723  19.159  0.00  0.00    +0.000 C 
ENDBRANCH  32  34
ENDBRANCH  31  32
ENDBRANCH  24  31
ENDBRANCH  23  28
ENDBRANCH   1  23
TORSDOF 8
ENDMDL
MODEL 2
REMARK VINA RESULT:      -8.8      1.703      3.100
REMARK  Name = 
REMARK  9 active torsions:
REMARK  status: ('A' for Active; 'I' for Inactive)
REMARK    1  A    between atoms: C_1  and  C_2
REMARK    2  A    between atoms: C_2  and  C_3
REMARK    3  A    between atoms: C_3  and  C_4
REMARK    4  A    between atoms: C_4  and  N_5
REMARK    5  A    between atoms: N_9  and  C_10
REMARK    6  A    between atoms: C_10  and  C_11
REMARK    7  A    between atoms: C_15  and  N_16
REMARK    8  A    between atoms: C_17  and  C_19
REMARK    9  A    between atoms: C_22  and  C_23
REMARK                            x       y       z     vdW  Elec       q    Type
REMARK                         _______ _______ _______ _____ _____    ______ ____
ROOT
ATOM      1  C   UNL     1       3.490   4.369  19.371  0.00  0.00    +0.000 A 
ATOM      2  C   UNL     1       2.857   3.125  19.535  0.00  0.00    +0.000 A 
ATOM      3  C   UNL     1       1.633   3.033  20.198  0.00  0.00    +0.000 A 
ATOM      4  C   UNL     1       1.021   4.181  20.700  0.00  0.00    +0.000 A 
ATOM      5  C   UNL     1       1.613   5.437  20.545  0.00  0.00    +0.000 A 
ATOM      6  C   UNL     1       2.846   5.518  19.876  0.00  0.00    +0.000 A 
ENDROOT
BRANCH   5   7
ATOM      7  N   UNL     1       1.026   6.640  21.007  0.00  0.00    +0.000 N 
ATOM      8  C   UNL     1       1.278   7.907  20.510  0.00  0.00    +0.000 C 
ATOM      9  O   UNL     1       2.029   8.185  19.583  0.00  0.00    +0.000 OA
ATOM     10  H   UNL     1       0.410   6.567  21.803  0.00  0.00    +0.000 HD
BRANCH   8  11
ATOM     11  C   UNL     1       0.604   9.044  21.192  0.00  0.00    +0.000 A 
ATOM     12  C   UNL     1       0.111  10.053  20.360  0.00  0.00    +0.000 A 
ATOM     13  C   UNL     1      -0.602  11.125  20.894  0.00  0.00    +0.000 A 
ATOM     14  C   UNL     1      -0.872  11.213  22.266  0.00  0.00    +0.000 A 
ATOM     15  C   UNL     1      -0.343  10.204  23.096  0.00  0.00    +0.000 A 
ATOM     16  C   UNL     1       0.391   9.128  22.569  0.00  0.00    +0.000 A 
BRANCH  14  17
ATOM     17  C   UNL     1      -1.708  12.320  22.787  0.00  0.00    +0.000 A 
ATOM     18  C   UNL     1      -3.105  12.323  22.585  0.00  0.00    +0.000 A 
ATOM     19  C   UNL     1      -3.908  13.376  23.036  0.00  0.00    +0.000 A 
ATOM     20  C   UNL     1      -3.333  14.435  23.713  0.00  0.00    +0.000 A 
ATOM     21  C   UNL     1      -1.961  14.453  23.946  0.00  0.00    +0.000 A 
ATOM     22  C   UNL     1      -1.156  13.407  23.485  0.00  0.00    +0.000 A 
ENDBRANCH  14  17
ENDBRANCH   8  11
ENDBRANCH   5   7
BRANCH   1  23
ATOM     23  C   UNL     1       4.779   4.469  18.561  0.00  0.00    +0.000 C 
BRANCH  23  28
ATOM     24  N   UNL     1       7.125   5.520  15.828  0.00  0.00    +0.000 NA
ATOM     25  C   UNL     1       7.599   4.516  16.799  0.00  0.00    +0.000 C 
ATOM     26  C   UNL     1       7.928   4.957  18.230  0.00  0.00    +0.000 C 
ATOM     27  C   UNL     1       6.891   5.665  19.098  0.00  0.00    +0.000 C 
ATOM     28  N   UNL     1       5.507   5.745  18.655  0.00  0.00    +0.000 NA
ATOM     29  C   UNL     1       5.419   6.609  17.475  0.00  0.00    +0.000 C 
ATOM     30  C   UNL     1       5.760   6.010  16.105  0.00  0.00    +0.000 C 
BRANCH  24  31
ATOM     31  C   UNL     1       7.114   4.880  14.478  0.00  0.00    +0.000 C 
BRANCH  31  32
ATOM     32  C   UNL     1       5.771   4.293  14.004  0.00  0.00    +0.000 C 
BRANCH  32  34
ATOM     33  C   UNL     1       7.037   3.784  11.900  0.00  0.00    +0.000 C 
ATOM     34  C   UNL     1       5.897   3.348  12.811  0.00  0.00    +0.000 C 
ENDBRANCH  32  34
ENDBRANCH  31  32
ENDBRANCH  24  31
ENDBRANCH  23  28
ENDBRANCH   1  23
TORSDOF 8
ENDMDL
MODEL 3
REMARK VINA RESULT:      -8.7      1.752      3.487
REMARK  Name = 
REMARK  9 active torsions:
REMARK  status: ('A' for Active; 'I' for Inactive)
REMARK    1  A    between atoms: C_1  and  C_2
REMARK    2  A    between atoms: C_2  and  C_3
REMARK    3  A    between atoms: C_3  and  C_4
REMARK    4  A    between atoms: C_4  and  N_5
REMARK    5  A    between atoms: N_9  and  C_10
REMARK    6  A    between atoms: C_10  and  C_11
REMARK    7  A    between atoms: C_15  and  N_16
REMARK    8  A    between atoms: C_17  and  C_19
REMARK    9  A    between atoms: C_22  and  C_23
REMARK                            x       y       z     vdW  Elec       q    Type
REMARK                         _______ _______ _______ _____ _____    ______ ____
ROOT
ATOM      1  C   UNL     1       3.518   4.491  19.153  0.00  0.00    +0.000 A 
ATOM      2  C   UNL     1       3.086   3.214  19.548  0.00  0.00    +0.000 A 
ATOM      3  C   UNL     1       2.060   3.068  20.482  0.00  0.00    +0.000 A 
ATOM      4  C   UNL     1       1.447   4.196  21.029  0.00  0.00    +0.000 A 
ATOM      5  C   UNL     1       1.841   5.481  20.651  0.00  0.00    +0.000 A 
ATOM      6  C   UNL     1       2.875   5.616  19.710  0.00  0.00    +0.000 A 
ENDROOT
BRANCH   5   7
ATOM      7  N   UNL     1       1.237   6.662  21.150  0.00  0.00    +0.000 N 
ATOM      8  C   UNL     1       1.326   7.920  20.580  0.00  0.00    +0.000 C 
ATOM      9  O   UNL     1       1.920   8.206  19.549  0.00  0.00    +0.000 OA
ATOM     10  H   UNL     1       0.742   6.581  22.026  0.00  0.00    +0.000 HD
BRANCH   8  11
ATOM     11  C   UNL     1       0.671   9.038  21.311  0.00  0.00    +0.000 A 
ATOM     12  C   UNL     1       0.691  10.282  20.675  0.00  0.00    +0.000 A 
ATOM     13  C   UNL     1       0.041  11.377  21.241  0.00  0.00    +0.000 A 
ATOM     14  C   UNL     1      -0.673  11.264  22.441  0.00  0.00    +0.000 A 
ATOM     15  C   UNL     1      -0.660  10.011  23.086  0.00  0.00    +0.000 A 
ATOM     16  C   UNL     1       0.006   8.905  22.531  0.00  0.00    +0.000 A 
BRANCH  14  17
ATOM     17  C   UNL     1      -1.426  12.426  22.968  0.00  0.00    +0.000 A 
ATOM     18  C   UNL     1      -0.829  13.703  23.026  0.00  0.00    +0.000 A 
ATOM     19  C   UNL     1      -1.509  14.806  23.555  0.00  0.00    +0.000 A 
ATOM     20  C   UNL     1      -2.803  14.657  24.017  0.00  0.00    +0.000 A 
ATOM     21  C   UNL     1      -3.427  13.413  23.955  0.00  0.00    +0.000 A 
ATOM     22  C   UNL     1      -2.745  12.309  23.439  0.00  0.00    +0.000 A 
ENDBRANCH  14  17
ENDBRANCH   8  11
ENDBRANCH   5   7
BRANCH   1  23
ATOM     23  C   UNL     1       4.573   4.637  18.060  0.00  0.00    +0.000 C 
BRANCH  23  28
ATOM     24  N   UNL     1       6.813   5.362  15.139  0.00  0.00    +0.000 NA
ATOM     25  C   UNL     1       7.400   4.684  16.309  0.00  0.00    +0.000 C 
ATOM     26  C   UNL     1       7.629   5.481  17.599  0.00  0.00    +0.000 C 
ATOM     27  C   UNL     1       6.482   6.212  18.291  0.00  0.00    +0.000 C 
ATOM     28  N   UNL     1       5.111   5.990  17.854  0.00  0.00    +0.000 NA
ATOM     29  C   UNL     1       4.931   6.543  16.508  0.00  0.00    +0.000 C 
ATOM     30  C   UNL     1       5.386   5.703  15.309  0.00  0.00    +0.000 C 
BRANCH  24  31
ATOM     31  C   UNL     1       6.925   4.438  13.971  0.00  0.00    +0.000 C 
BRANCH  31  32
ATOM     32  C   UNL     1       5.615   3.808  13.462  0.00  0.00    +0.000 C 
BRANCH  32  34
ATOM     33  C   UNL     1       4.428   2.886  11.455  0.00  0.00    +0.000 C 
ATOM     34  C   UNL     1       5.414   3.934  11.954  0.00  0.00    +0.000 C 
ENDBRANCH  32  34
ENDBRANCH  31  32
ENDBRANCH  24  31
ENDBRANCH  23  28
ENDBRANCH   1  23
TORSDOF 8
ENDMDL
MODEL 4
REMARK VINA RESULT:      -8.2      2.574      8.393
REMARK  Name = 
REMARK  9 active torsions:
REMARK  status: ('A' for Active; 'I' for Inactive)
REMARK    1  A    between atoms: C_1  and  C_2
REMARK    2  A    between atoms: C_2  and  C_3
REMARK    3  A    between atoms: C_3  and  C_4
REMARK    4  A    between atoms: C_4  and  N_5
REMARK    5  A    between atoms: N_9  and  C_10
REMARK    6  A    between atoms: C_10  and  C_11
REMARK    7  A    between atoms: C_15  and  N_16
REMARK    8  A    between atoms: C_17  and  C_19
REMARK    9  A    between atoms: C_22  and  C_23
REMARK                            x       y       z     vdW  Elec       q    Type
REMARK                         _______ _______ _______ _____ _____    ______ ____
ROOT
ATOM      1  C   UNL     1       5.268   4.590  17.603  0.00  0.00    +0.000 A 
ATOM      2  C   UNL     1       5.582   3.885  16.428  0.00  0.00    +0.000 A 
ATOM      3  C   UNL     1       6.454   4.430  15.484  0.00  0.00    +0.000 A 
ATOM      4  C   UNL     1       7.029   5.681  15.704  0.00  0.00    +0.000 A 
ATOM      5  C   UNL     1       6.751   6.405  16.865  0.00  0.00    +0.000 A 
ATOM      6  C   UNL     1       5.872   5.848  17.809  0.00  0.00    +0.000 A 
ENDROOT
BRANCH   5   7
ATOM      7  N   UNL     1       7.327   7.667  17.156  0.00  0.00    +0.000 N 
ATOM      8  C   UNL     1       8.156   7.951  18.228  0.00  0.00    +0.000 C 
ATOM      9  O   UNL     1       8.537   7.156  19.078  0.00  0.00    +0.000 OA
ATOM     10  H   UNL     1       7.065   8.433  16.554  0.00  0.00    +0.000 HD
BRANCH   8  11
ATOM     11  C   UNL     1       8.592   9.364  18.385  0.00  0.00    +0.000 A 
ATOM     12  C   UNL     1       8.027  10.283  17.496  0.00  0.00    +0.000 A 
ATOM     13  C   UNL     1       8.313  11.642  17.607  0.00  0.00    +0.000 A 
ATOM     14  C   UNL     1       9.145  12.135  18.621  0.00  0.00    +0.000 A 
ATOM     15  C   UNL     1       9.731  11.193  19.491  0.00  0.00    +0.000 A 
ATOM     16  C   UNL     1       9.462   9.819  19.378  0.00  0.00    +0.000 A 
BRANCH  14  17
ATOM     17  C   UNL     1       9.357  13.595  18.763  0.00  0.00    +0.000 A 
ATOM     18  C   UNL     1      10.332  14.097  19.651  0.00  0.00    +0.000 A 
ATOM     19  C   UNL     1      10.521  15.472  19.829  0.00  0.00    +0.000 A 
ATOM     20  C   UNL     1       9.754  16.368  19.109  0.00  0.00    +0.000 A 
ATOM     21  C   UNL     1       8.797  15.904  18.211  0.00  0.00    +0.000 A 
ATOM     22  C   UNL     1       8.598  14.532  18.042  0.00  0.00    +0.000 A 
ENDBRANCH  14  17
ENDBRANCH   8  11
ENDBRANCH   5   7
BRANCH   1  23
ATOM     23  C   UNL     1       4.391   3.943  18.671  0.00  0.00    +0.000 C 
BRANCH  23  28
ATOM     24  N   UNL     1       1.611   5.967  20.169  0.00  0.00    +0.000 NA
ATOM     25  C   UNL     1       2.195   4.885  20.983  0.00  0.00    +0.000 C 
ATOM     26  C   UNL     1       1.897   3.427  20.614  0.00  0.00    +0.000 C 
ATOM     27  C   UNL     1       2.211   2.883  19.223  0.00  0.00    +0.000 C 
ATOM     28  N   UNL     1       2.994   3.682  18.291  0.00  0.00    +0.000 NA
ATOM     29  C   UNL     1       2.220   4.859  17.886  0.00  0.00    +0.000 C 
ATOM     30  C   UNL     1       2.201   6.075  18.820  0.00  0.00    +0.000 C 
BRANCH  24  31
ATOM     31  C   UNL     1       1.858   7.257  20.880  0.00  0.00    +0.000 C 
BRANCH  31  32
ATOM     32  C   UNL     1       0.614   8.036  21.348  0.00  0.00    +0.000 C 
BRANCH  32  34
ATOM     33  C   UNL     1      -0.064   9.516  23.255  0.00  0.00    +0.000 C 
ATOM     34  C   UNL     1       0.939   9.307  22.128  0.00  0.00    +0.000 C 
ENDBRANCH  32  34
ENDBRANCH  31  32
ENDBRANCH  24  31
ENDBRANCH  23  28
ENDBRANCH   1  23
TORSDOF 8
ENDMDL
MODEL 5
REMARK VINA RESULT:      -8.2      0.895      1.553
REMARK  Name = 
REMARK  9 active torsions:
REMARK  status: ('A' for Active; 'I' for Inactive)
REMARK    1  A    between atoms: C_1  and  C_2
REMARK    2  A    between atoms: C_2  and  C_3
REMARK    3  A    between atoms: C_3  and  C_4
REMARK    4  A    between atoms: C_4  and  N_5
REMARK    5  A    between atoms: N_9  and  C_10
REMARK    6  A    between atoms: C_10  and  C_11
REMARK    7  A    between atoms: C_15  and  N_16
REMARK    8  A    between atoms: C_17  and  C_19
REMARK    9  A    between atoms: C_22  and  C_23
REMARK                            x       y       z     vdW  Elec       q    Type
REMARK                         _______ _______ _______ _____ _____    ______ ____
ROOT
ATOM      1  C   UNL     1       3.583   4.843  18.924  0.00  0.00    +0.000 A 
ATOM      2  C   UNL     1       3.508   3.631  19.631  0.00  0.00    +0.000 A 
ATOM      3  C   UNL     1       2.697   3.517  20.761  0.00  0.00    +0.000 A 
ATOM      4  C   UNL     1       1.944   4.608  21.195  0.00  0.00    +0.000 A 
ATOM      5  C   UNL     1       1.983   5.824  20.510  0.00  0.00    +0.000 A 
ATOM      6  C   UNL     1       2.803   5.929  19.374  0.00  0.00    +0.000 A 
ENDROOT
BRANCH   5   7
ATOM      7  N   UNL     1       1.220   6.957  20.886  0.00  0.00    +0.000 N 
ATOM      8  C   UNL     1       1.235   8.190  20.256  0.00  0.00    +0.000 C 
ATOM      9  O   UNL     1       1.892   8.488  19.266  0.00  0.00    +0.000 OA
ATOM     10  H   UNL     1       0.655   6.867  21.718  0.00  0.00    +0.000 HD
BRANCH   8  11
ATOM     11  C   UNL     1       0.406   9.266  20.861  0.00  0.00    +0.000 A 
ATOM     12  C   UNL     1       0.090   9.109  22.214  0.00  0.00    +0.000 A 
ATOM     13  C   UNL     1      -0.619  10.097  22.894  0.00  0.00    +0.000 A 
ATOM     14  C   UNL     1      -1.011  11.284  22.261  0.00  0.00    +0.000 A 
ATOM     15  C   UNL     1      -0.712  11.415  20.890  0.00  0.00    +0.000 A 
ATOM     16  C   UNL     1      -0.012  10.417  20.191  0.00  0.00    +0.000 A 
BRANCH  14  17
ATOM     17  C   UNL     1      -1.685  12.351  23.037  0.00  0.00    +0.000 A 
ATOM     18  C   UNL     1      -1.030  13.573  23.299  0.00  0.00    +0.000 A 
ATOM     19  C   UNL     1      -1.634  14.579  24.062  0.00  0.00    +0.000 A 
ATOM     20  C   UNL     1      -2.909  14.389  24.560  0.00  0.00    +0.000 A 
ATOM     21  C   UNL     1      -3.590  13.202  24.302  0.00  0.00    +0.000 A 
ATOM     22  C   UNL     1      -2.983  12.192  23.551  0.00  0.00    +0.000 A 
ENDBRANCH  14  17
ENDBRANCH   8  11
ENDBRANCH   5   7
BRANCH   1  23
ATOM     23  C   UNL     1       4.397   4.927  17.636  0.00  0.00    +0.000 C 
BRANCH  23  28
ATOM     24  N   UNL     1       7.602   6.828  17.194  0.00  0.00    +0.000 NA
ATOM     25  C   UNL     1       6.794   6.545  15.993  0.00  0.00    +0.000 C 
ATOM     26  C   UNL     1       6.735   5.111  15.453  0.00  0.00    +0.000 C 
ATOM     27  C   UNL     1       6.277   3.952  16.334  0.00  0.00    +0.000 C 
ATOM     28  N   UNL     1       5.687   4.220  17.638  0.00  0.00    +0.000 NA
ATOM     29  C   UNL     1       6.709   4.773  18.532  0.00  0.00    +0.000 C 
ATOM     30  C   UNL     1       7.030   6.269  18.435  0.00  0.00    +0.000 C 
BRANCH  24  31
ATOM     31  C   UNL     1       7.677   8.311  17.355  0.00  0.00    +0.000 C 
BRANCH  31  32
ATOM     32  C   UNL     1       8.580   8.837  18.486  0.00  0.00    +0.000 C 
BRANCH  32  34
ATOM     33  C   UNL     1       9.754  10.780  19.551  0.00  0.00    +0.000 C 
ATOM     34  C   UNL     1       8.955  10.310  18.343  0.00  0.00    +0.000 C 
ENDBRANCH  32  34
ENDBRANCH  31  32
ENDBRANCH  24  31
ENDBRANCH  23  28
ENDBRANCH   1  23
TORSDOF 8
ENDMDL
MODEL 6
REMARK VINA RESULT:      -8.2      0.906      1.089
REMARK  Name = 
REMARK  9 active torsions:
REMARK  status: ('A' for Active; 'I' for Inactive)
REMARK    1  A    between atoms: C_1  and  C_2
REMARK    2  A    between atoms: C_2  and  C_3
REMARK    3  A    between atoms: C_3  and  C_4
REMARK    4  A    between atoms: C_4  and  N_5
REMARK    5  A    between atoms: N_9  and  C_10
REMARK    6  A    between atoms: C_10  and  C_11
REMARK    7  A    between atoms: C_15  and  N_16
REMARK    8  A    between atoms: C_17  and  C_19
REMARK    9  A    between atoms: C_22  and  C_23
REMARK                            x       y       z     vdW  Elec       q    Type
REMARK                         _______ _______ _______ _____ _____    ______ ____
ROOT
ATOM      1  C   UNL     1       3.319   4.925  18.658  0.00  0.00    +0.000 A 
ATOM      2  C   UNL     1       3.079   3.623  19.128  0.00  0.00    +0.000 A 
ATOM      3  C   UNL     1       2.231   3.405  20.214  0.00  0.00    +0.000 A 
ATOM      4  C   UNL     1       1.605   4.482  20.841  0.00  0.00    +0.000 A 
ATOM      5  C   UNL     1       1.809   5.790  20.394  0.00  0.00    +0.000 A 
ATOM      6  C   UNL     1       2.665   5.998  19.300  0.00  0.00    +0.000 A 
ENDROOT
BRANCH   5   7
ATOM      7  N   UNL     1       1.180   6.920  20.971  0.00  0.00    +0.000 N 
ATOM      8  C   UNL     1       1.234   8.214  20.483  0.00  0.00    +0.000 C 
ATOM      9  O   UNL     1       1.815   8.582  19.470  0.00  0.00    +0.000 OA
ATOM     10  H   UNL     1       0.693   6.771  21.842  0.00  0.00    +0.000 HD
BRANCH   8  11
ATOM     11  C   UNL     1       0.557   9.266  21.288  0.00  0.00    +0.000 A 
ATOM     12  C   UNL     1       0.346  10.489  20.646  0.00  0.00    +0.000 A 
ATOM     13  C   UNL     1      -0.347  11.515  21.287  0.00  0.00    +0.000 A 
ATOM     14  C   UNL     1      -0.875  11.348  22.574  0.00  0.00    +0.000 A 
ATOM     15  C   UNL     1      -0.628  10.120  23.220  0.00  0.00    +0.000 A 
ATOM     16  C   UNL     1       0.082   9.086  22.589  0.00  0.00    +0.000 A 
BRANCH  14  17
ATOM     17  C   UNL     1      -1.681  12.428  23.190  0.00  0.00    +0.000 A 
ATOM     18  C   UNL     1      -3.011  12.189  23.597  0.00  0.00    +0.000 A 
ATOM     19  C   UNL     1      -3.802  13.204  24.145  0.00  0.00    +0.000 A 
ATOM     20  C   UNL     1      -3.273  14.470  24.316  0.00  0.00    +0.000 A 
ATOM     21  C   UNL     1      -1.958  14.732  23.942  0.00  0.00    +0.000 A 
ATOM     22  C   UNL     1      -1.171  13.723  23.382  0.00  0.00    +0.000 A 
ENDBRANCH  14  17
ENDBRANCH   8  11
ENDBRANCH   5   7
BRANCH   1  23
ATOM     23  C   UNL     1       4.170   5.142  17.410  0.00  0.00    +0.000 C 
BRANCH  23  28
ATOM     24  N   UNL     1       7.752   6.164  17.863  0.00  0.00    +0.000 NA
ATOM     25  C   UNL     1       7.072   6.560  16.616  0.00  0.00    +0.000 C 
ATOM     26  C   UNL     1       6.763   5.491  15.561  0.00  0.00    +0.000 C 
ATOM     27  C   UNL     1       5.939   4.253  15.907  0.00  0.00    +0.000 C 
ATOM     28  N   UNL     1       5.254   4.172  17.188  0.00  0.00    +0.000 NA
ATOM     29  C   UNL     1       6.243   4.074  18.266  0.00  0.00    +0.000 C 
ATOM     30  C   UNL     1       6.905   5.363  18.768  0.00  0.00    +0.000 C 
BRANCH  24  31
ATOM     31  C   UNL     1       8.139   7.412  18.588  0.00  0.00    +0.000 C 
BRANCH  31  32
ATOM     32  C   UNL     1       8.060   8.726  17.789  0.00  0.00    +0.000 C 
BRANCH  32  34
ATOM     33  C   UNL     1       8.449  11.203  17.817  0.00  0.00    +0.000 C 
ATOM     34  C   UNL     1       8.893   9.860  18.381  0.00  0.00    +0.000 C 
ENDBRANCH  32  34
ENDBRANCH  31  32
ENDBRANCH  24  31
ENDBRANCH  23  28
ENDBRANCH   1  23
TORSDOF 8
ENDMDL
MODEL 7
REMARK VINA RESULT:      -8.0      4.369     11.036
REMARK  Name = 
REMARK  9 active torsions:
REMARK  status: ('A' for Active; 'I' for Inactive)
REMARK    1  A    between atoms: C_1  and  C_2
REMARK    2  A    between atoms: C_2  and  C_3
REMARK    3  A    between atoms: C_3  and  C_4
REMARK    4  A    between atoms: C_4  and  N_5
REMARK    5  A    between atoms: N_9  and  C_10
REMARK    6  A    between atoms: C_10  and  C_11
REMARK    7  A    between atoms: C_15  and  N_16
REMARK    8  A    between atoms: C_17  and  C_19
REMARK    9  A    between atoms: C_22  and  C_23
REMARK                            x       y       z     vdW  Elec       q    Type
REMARK                         _______ _______ _______ _____ _____    ______ ____
ROOT
ATOM      1  C   UNL     1      -3.449  13.508  21.507  0.00  0.00    +0.000 A 
ATOM      2  C   UNL     1      -3.219  13.970  22.814  0.00  0.00    +0.000 A 
ATOM      3  C   UNL     1      -2.147  13.482  23.562  0.00  0.00    +0.000 A 
ATOM      4  C   UNL     1      -1.286  12.533  23.013  0.00  0.00    +0.000 A 
ATOM      5  C   UNL     1      -1.475  12.059  21.713  0.00  0.00    +0.000 A 
ATOM      6  C   UNL     1      -2.558  12.556  20.969  0.00  0.00    +0.000 A 
ENDROOT
BRANCH   5   7
ATOM      7  N   UNL     1      -0.618  11.117  21.092  0.00  0.00    +0.000 N 
ATOM      8  C   UNL     1       0.204  11.363  20.005  0.00  0.00    +0.000 C 
ATOM      9  O   UNL     1       0.334  12.432  19.424  0.00  0.00    +0.000 OA
ATOM     10  H   UNL     1      -0.651  10.172  21.446  0.00  0.00    +0.000 HD
BRANCH   8  11
ATOM     11  C   UNL     1       0.970  10.208  19.466  0.00  0.00    +0.000 A 
ATOM     12  C   UNL     1       1.094   9.104  20.315  0.00  0.00    +0.000 A 
ATOM     13  C   UNL     1       1.729   7.943  19.878  0.00  0.00    +0.000 A 
ATOM     14  C   UNL     1       2.235   7.831  18.577  0.00  0.00    +0.000 A 
ATOM     15  C   UNL     1       2.130   8.962  17.742  0.00  0.00    +0.000 A 
ATOM     16  C   UNL     1       1.505  10.142  18.179  0.00  0.00    +0.000 A 
BRANCH  14  17
ATOM     17  C   UNL     1       2.825   6.551  18.118  0.00  0.00    +0.000 A 
ATOM     18  C   UNL     1       4.084   6.528  17.480  0.00  0.00    +0.000 A 
ATOM     19  C   UNL     1       4.641   5.335  17.005  0.00  0.00    +0.000 A 
ATOM     20  C   UNL     1       3.961   4.144  17.176  0.00  0.00    +0.000 A 
ATOM     21  C   UNL     1       2.726   4.132  17.819  0.00  0.00    +0.000 A 
ATOM     22  C   UNL     1       2.162   5.324  18.282  0.00  0.00    +0.000 A 
ENDBRANCH  14  17
ENDBRANCH   8  11
ENDBRANCH   5   7
BRANCH   1  23
ATOM     23  C   UNL     1      -4.566  14.119  20.666  0.00  0.00    +0.000 C 
BRANCH  23  28
ATOM     24  N   UNL     1      -6.172  11.995  18.023  0.00  0.00    +0.000 NA
ATOM     25  C   UNL     1      -6.178  13.457  17.834  0.00  0.00    +0.000 C 
ATOM     26  C   UNL     1      -7.094  14.321  18.708  0.00  0.00    +0.000 C 
ATOM     27  C   UNL     1      -7.009  14.273  20.232  0.00  0.00    +0.000 C 
ATOM     28  N   UNL     1      -5.913  13.563  20.876  0.00  0.00    +0.000 NA
ATOM     29  C   UNL     1      -6.047  12.125  20.627  0.00  0.00    +0.000 C 
ATOM     30  C   UNL     1      -5.546  11.566  19.290  0.00  0.00    +0.000 C 
BRANCH  24  31
ATOM     31  C   UNL     1      -5.391  11.392  16.902  0.00  0.00    +0.000 C 
BRANCH  31  32
ATOM     32  C   UNL     1      -3.857  11.419  17.037  0.00  0.00    +0.000 C 
BRANCH  32  34
ATOM     33  C   UNL     1      -2.894  10.161  15.093  0.00  0.00    +0.000 C 
ATOM     34  C   UNL     1      -3.175  10.128  16.589  0.00  0.00    +0.000 C 
ENDBRANCH  32  34
ENDBRANCH  31  32
ENDBRANCH  24  31
ENDBRANCH  23  28
ENDBRANCH   1  23
TORSDOF 8
ENDMDL
MODEL 8
REMARK VINA RESULT:      -7.9      1.984      3.577
REMARK  Name = 
REMARK  9 active torsions:
REMARK  status: ('A' for Active; 'I' for Inactive)
REMARK    1  A    between atoms: C_1  and  C_2
REMARK    2  A    between atoms: C_2  and  C_3
REMARK    3  A    between atoms: C_3  and  C_4
REMARK    4  A    between atoms: C_4  and  N_5
REMARK    5  A    between atoms: N_9  and  C_10
REMARK    6  A    between atoms: C_10  and  C_11
REMARK    7  A    between atoms: C_15  and  N_16
REMARK    8  A    between atoms: C_17  and  C_19
REMARK    9  A    between atoms: C_22  and  C_23
REMARK                            x       y       z     vdW  Elec       q    Type
REMARK                         _______ _______ _______ _____ _____    ______ ____
ROOT
ATOM      1  C   UNL     1       3.485   5.097  19.176  0.00  0.00    +0.000 A 
ATOM      2  C   UNL     1       3.218   3.914  19.887  0.00  0.00    +0.000 A 
ATOM      3  C   UNL     1       2.205   3.876  20.845  0.00  0.00    +0.000 A 
ATOM      4  C   UNL     1       1.440   5.014  21.101  0.00  0.00    +0.000 A 
ATOM      5  C   UNL     1       1.668   6.203  20.406  0.00  0.00    +0.000 A 
ATOM      6  C   UNL     1       2.691   6.232  19.443  0.00  0.00    +0.000 A 
ENDROOT
BRANCH   5   7
ATOM      7  N   UNL     1       0.907   7.382  20.602  0.00  0.00    +0.000 N 
ATOM      8  C   UNL     1       1.199   8.395  21.499  0.00  0.00    +0.000 C 
ATOM      9  O   UNL     1       2.168   8.442  22.246  0.00  0.00    +0.000 OA
ATOM     10  H   UNL     1       0.050   7.460  20.075  0.00  0.00    +0.000 HD
BRANCH   8  11
ATOM     11  C   UNL     1       0.223   9.513  21.593  0.00  0.00    +0.000 A 
ATOM     12  C   UNL     1      -0.314   9.753  22.861  0.00  0.00    +0.000 A 
ATOM     13  C   UNL     1      -1.181  10.824  23.071  0.00  0.00    +0.000 A 
ATOM     14  C   UNL     1      -1.518  11.706  22.036  0.00  0.00    +0.000 A 
ATOM     15  C   UNL     1      -0.993  11.434  20.757  0.00  0.00    +0.000 A 
ATOM     16  C   UNL     1      -0.132  10.347  20.531  0.00  0.00    +0.000 A 
BRANCH  14  17
ATOM     17  C   UNL     1      -2.372  12.885  22.315  0.00  0.00    +0.000 A 
ATOM     18  C   UNL     1      -2.775  13.185  23.634  0.00  0.00    +0.000 A 
ATOM     19  C   UNL     1      -3.611  14.271  23.915  0.00  0.00    +0.000 A 
ATOM     20  C   UNL     1      -4.043  15.088  22.887  0.00  0.00    +0.000 A 
ATOM     21  C   UNL     1      -3.647  14.830  21.577  0.00  0.00    +0.000 A 
ATOM     22  C   UNL     1      -2.822  13.738  21.294  0.00  0.00    +0.000 A 
ENDBRANCH  14  17
ENDBRANCH   8  11
ENDBRANCH   5   7
BRANCH   1  23
ATOM     23  C   UNL     1       4.530   5.100  18.064  0.00  0.00    +0.000 C 
BRANCH  23  28
ATOM     24  N   UNL     1       7.128   5.420  15.376  0.00  0.00    +0.000 NA
ATOM     25  C   UNL     1       7.283   4.335  16.362  0.00  0.00    +0.000 C 
ATOM     26  C   UNL     1       7.696   4.681  17.797  0.00  0.00    +0.000 C 
ATOM     27  C   UNL     1       6.882   5.661  18.639  0.00  0.00    +0.000 C 
ATOM     28  N   UNL     1       5.584   6.121  18.167  0.00  0.00    +0.000 NA
ATOM     29  C   UNL     1       5.765   6.962  16.980  0.00  0.00    +0.000 C 
ATOM     30  C   UNL     1       5.950   6.277  15.621  0.00  0.00    +0.000 C 
BRANCH  24  31
ATOM     31  C   UNL     1       6.963   4.795  14.029  0.00  0.00    +0.000 C 
BRANCH  31  32
ATOM     32  C   UNL     1       5.806   3.790  13.872  0.00  0.00    +0.000 C 
BRANCH  32  34
ATOM     33  C   UNL     1       5.670   2.471  11.744  0.00  0.00    +0.000 C 
ATOM     34  C   UNL     1       5.222   3.737  12.463  0.00  0.00    +0.000 C 
ENDBRANCH  32  34
ENDBRANCH  31  32
ENDBRANCH  24  31
ENDBRANCH  23  28
ENDBRANCH   1  23
TORSDOF 8
ENDMDL
MODEL 9
REMARK VINA RESULT:      -7.9      1.815      3.424
REMARK  Name = 
REMARK  9 active torsions:
REMARK  status: ('A' for Active; 'I' for Inactive)
REMARK    1  A    between atoms: C_1  and  C_2
REMARK    2  A    between atoms: C_2  and  C_3
REMARK    3  A    between atoms: C_3  and  C_4
REMARK    4  A    between atoms: C_4  and  N_5
REMARK    5  A    between atoms: N_9  and  C_10
REMARK    6  A    between atoms: C_10  and  C_11
REMARK    7  A    between atoms: C_15  and  N_16
REMARK    8  A    between atoms: C_17  and  C_19
REMARK    9  A    between atoms: C_22  and  C_23
REMARK                            x       y       z     vdW  Elec       q    Type
REMARK                         _______ _______ _______ _____ _____    ______ ____
ROOT
ATOM      1  C   UNL     1       3.982   4.132  19.799  0.00  0.00    +0.000 A 
ATOM      2  C   UNL     1       3.312   2.909  19.975  0.00  0.00    +0.000 A 
ATOM      3  C   UNL     1       2.010   2.878  20.476  0.00  0.00    +0.000 A 
ATOM      4  C   UNL     1       1.356   4.067  20.798  0.00  0.00    +0.000 A 
ATOM      5  C   UNL     1       1.984   5.302  20.624  0.00  0.00    +0.000 A 
ATOM      6  C   UNL     1       3.295   5.322  20.121  0.00  0.00    +0.000 A 
ENDROOT
BRANCH   5   7
ATOM      7  N   UNL     1       1.361   6.542  20.908  0.00  0.00    +0.000 N 
ATOM      8  C   UNL     1       1.616   7.742  20.265  0.00  0.00    +0.000 C 
ATOM      9  O   UNL     1       2.401   7.915  19.341  0.00  0.00    +0.000 OA
ATOM     10  H   UNL     1       0.712   6.557  21.680  0.00  0.00    +0.000 HD
BRANCH   8  11
ATOM     11  C   UNL     1       0.897   8.942  20.771  0.00  0.00    +0.000 A 
ATOM     12  C   UNL     1       0.874  10.048  19.917  0.00  0.00    +0.000 A 
ATOM     13  C   UNL     1       0.165  11.196  20.265  0.00  0.00    +0.000 A 
ATOM     14  C   UNL     1      -0.567  11.271  21.458  0.00  0.00    +0.000 A 
ATOM     15  C   UNL     1      -0.510  10.159  22.322  0.00  0.00    +0.000 A 
ATOM     16  C   UNL     1       0.215   9.003  21.987  0.00  0.00    +0.000 A 
BRANCH  14  17
ATOM     17  C   UNL     1      -1.381  12.473  21.754  0.00  0.00    +0.000 A 
ATOM     18  C   UNL     1      -1.913  12.681  23.045  0.00  0.00    +0.000 A 
ATOM     19  C   UNL     1      -2.716  13.789  23.336  0.00  0.00    +0.000 A 
ATOM     20  C   UNL     1      -2.985  14.719  22.349  0.00  0.00    +0.000 A 
ATOM     21  C   UNL     1      -2.460  14.552  21.070  0.00  0.00    +0.000 A 
ATOM     22  C   UNL     1      -1.669  13.439  20.775  0.00  0.00    +0.000 A 
ENDBRANCH  14  17
ENDBRANCH   8  11
ENDBRANCH   5   7
BRANCH   1  23
ATOM     23  C   UNL     1       5.368   4.159  19.162  0.00  0.00    +0.000 C 
BRANCH  23  28
ATOM     24  N   UNL     1       6.090   4.973  15.571  0.00  0.00    +0.000 NA
ATOM     25  C   UNL     1       7.075   4.160  16.308  0.00  0.00    +0.000 C 
ATOM     26  C   UNL     1       7.945   4.828  17.379  0.00  0.00    +0.000 C 
ATOM     27  C   UNL     1       7.318   5.576  18.554  0.00  0.00    +0.000 C 
ATOM     28  N   UNL     1       5.884   5.486  18.790  0.00  0.00    +0.000 NA
ATOM     29  C   UNL     1       5.167   6.160  17.704  0.00  0.00    +0.000 C 
ATOM     30  C   UNL     1       4.939   5.395  16.394  0.00  0.00    +0.000 C 
BRANCH  24  31
ATOM     31  C   UNL     1       5.565   4.145  14.445  0.00  0.00    +0.000 C 
BRANCH  31  32
ATOM     32  C   UNL     1       6.573   3.753  13.348  0.00  0.00    +0.000 C 
BRANCH  32  34
ATOM     33  C   UNL     1       4.549   3.661  11.871  0.00  0.00    +0.000 C 
ATOM     34  C   UNL     1       5.935   3.086  12.132  0.00  0.00    +0.000 C 
ENDBRANCH  32  34
ENDBRANCH  31  32
ENDBRANCH  24  31
ENDBRANCH  23  28
ENDBRANCH   1  23
TORSDOF 8
ENDMDL
