MODEL 1
REMARK VINA RESULT:      -7.8      0.000      0.000
REMARK  Name = 
REMARK  6 active torsions:
REMARK  status: ('A' for Active; 'I' for Inactive)
REMARK    1  A    between atoms: C_1  and  C_2
REMARK    2  A    between atoms: C_5  and  C_6
REMARK    3  A    between atoms: N_8  and  C_9
REMARK    4  A    between atoms: C_9  and  C_10
REMARK    5  A    between atoms: C_10  and  C_11
REMARK    6  A    between atoms: C_10  and  C_12
REMARK                            x       y       z     vdW  Elec       q    Type
REMARK                         _______ _______ _______ _____ _____    ______ ____
ROOT
ATOM      1  C   UNL     1       6.081   4.965  17.705  0.00  0.00    +0.000 C 
ATOM      2  O   UNL     1       6.920   4.728  18.567  0.00  0.00    +0.000 OA
ATOM      3  N   UNL     1       4.784   5.355  17.975  0.00  0.00    +0.000 N 
ATOM      4  H   UNL     1       4.177   5.552  17.183  0.00  0.00    +0.000 HD
ENDROOT
BRANCH   1   9
ATOM      5  C   UNL     1       7.458   4.772  12.187  0.00  0.00    +0.000 C 
ATOM      6  C   UNL     1       7.068   4.744  13.631  0.00  0.00    +0.000 A 
ATOM      7  C   UNL     1       6.003   3.975  14.081  0.00  0.00    +0.000 A 
ATOM      8  C   UNL     1       5.674   4.016  15.431  0.00  0.00    +0.000 A 
ATOM      9  C   UNL     1       6.425   4.830  16.261  0.00  0.00    +0.000 A 
ATOM     10  N   UNL     1       7.474   5.558  15.808  0.00  0.00    +0.000 NA
ATOM     11  N   UNL     1       7.794   5.512  14.478  0.00  0.00    +0.000 NA
ENDBRANCH   1   9
BRANCH   3  12
ATOM     12  C   UNL     1       4.319   5.606  19.325  0.00  0.00    +0.000 C 
BRANCH  12  13
ATOM     13  C   UNL     1       2.780   5.604  19.473  0.00  0.00    +0.000 C 
ATOM     14  C   UNL     1       2.134   4.752  18.369  0.00  0.00    +0.000 C 
BRANCH  13  15
ATOM     15  C   UNL     1       2.193   7.007  19.585  0.00  0.00    +0.000 A 
ATOM     16  C   UNL     1       2.205   7.860  18.466  0.00  0.00    +0.000 A 
ATOM     17  C   UNL     1       1.637   9.136  18.532  0.00  0.00    +0.000 A 
ATOM     18  C   UNL     1       1.047   9.570  19.717  0.00  0.00    +0.000 A 
ATOM     19 BR   UNL     1       0.274  11.292  19.810  0.00  0.00    +0.000 Br
ATOM     20  C   UNL     1       1.014   8.742  20.832  0.00  0.00    +0.000 A 
ATOM     21  C   UNL     1       1.582   7.465  20.763  0.00  0.00    +0.000 A 
ENDBRANCH  13  15
ENDBRANCH  12  13
ENDBRANCH   3  12
TORSDOF 4
ENDMDL
MODEL 2
REMARK VINA RESULT:      -7.7      0.386      1.143
REMARK  Name = 
REMARK  6 active torsions:
REMARK  status: ('A' for Active; 'I' for Inactive)
REMARK    1  A    between atoms: C_1  and  C_2
REMARK    2  A    between atoms: C_5  and  C_6
REMARK    3  A    between atoms: N_8  and  C_9
REMARK    4  A    between atoms: C_9  and  C_10
REMARK    5  A    between atoms: C_10  and  C_11
REMARK    6  A    between atoms: C_10  and  C_12
REMARK                            x       y       z     vdW  Elec       q    Type
REMARK                         _______ _______ _______ _____ _____    ______ ____
ROOT
ATOM      1  C   UNL     1       6.169   5.137  17.590  0.00  0.00    +0.000 C 
ATOM      2  O   UNL     1       7.075   5.148  18.416  0.00  0.00    +0.000 OA
ATOM      3  N   UNL     1       4.837   5.330  17.903  0.00  0.00    +0.000 N 
ATOM      4  H   UNL     1       4.169   5.327  17.136  0.00  0.00    +0.000 HD
ENDROOT
BRANCH   1   9
ATOM      5  C   UNL     1       7.340   4.538  12.054  0.00  0.00    +0.000 C 
ATOM      6  C   UNL     1       7.008   4.615  13.511  0.00  0.00    +0.000 A 
ATOM      7  C   UNL     1       6.007   3.834  14.070  0.00  0.00    +0.000 A 
ATOM      8  C   UNL     1       5.727   3.975  15.425  0.00  0.00    +0.000 A 
ATOM      9  C   UNL     1       6.463   4.895  16.150  0.00  0.00    +0.000 A 
ATOM     10  N   UNL     1       7.452   5.635  15.591  0.00  0.00    +0.000 NA
ATOM     11  N   UNL     1       7.723   5.491  14.258  0.00  0.00    +0.000 NA
ENDBRANCH   1   9
BRANCH   3  12
ATOM     12  C   UNL     1       4.398   5.654  19.246  0.00  0.00    +0.000 C 
BRANCH  12  13
ATOM     13  C   UNL     1       2.862   5.675  19.420  0.00  0.00    +0.000 C 
ATOM     14  C   UNL     1       2.203   4.632  18.504  0.00  0.00    +0.000 C 
BRANCH  13  15
ATOM     15  C   UNL     1       2.269   7.072  19.283  0.00  0.00    +0.000 A 
ATOM     16  C   UNL     1       1.671   7.689  20.398  0.00  0.00    +0.000 A 
ATOM     17  C   UNL     1       1.156   8.986  20.308  0.00  0.00    +0.000 A 
ATOM     18  C   UNL     1       1.236   9.680  19.103  0.00  0.00    +0.000 A 
ATOM     19 BR   UNL     1       0.544  11.435  18.978  0.00  0.00    +0.000 Br
ATOM     20  C   UNL     1       1.830   9.096  17.992  0.00  0.00    +0.000 A 
ATOM     21  C   UNL     1       2.346   7.799  18.084  0.00  0.00    +0.000 A 
ENDBRANCH  13  15
ENDBRANCH  12  13
ENDBRANCH   3  12
TORSDOF 4
ENDMDL
MODEL 3
REMARK VINA RESULT:      -7.2      1.564      1.929
REMARK  Name = 
REMARK  6 active torsions:
REMARK  status: ('A' for Active; 'I' for Inactive)
REMARK    1  A    between atoms: C_1  and  C_2
REMARK    2  A    between atoms: C_5  and  C_6
REMARK    3  A    between atoms: N_8  and  C_9
REMARK    4  A    between atoms: C_9  and  C_10
REMARK    5  A    between atoms: C_10  and  C_11
REMARK    6  A    between atoms: C_10  and  C_12
REMARK                            x       y       z     vdW  Elec       q    Type
REMARK                         _______ _______ _______ _____ _____    ______ ____
ROOT
ATOM      1  C   UNL     1       5.243   4.305  18.681  0.00  0.00    +0.000 C 
ATOM      2  O   UNL     1       5.624   5.055  19.573  0.00  0.00    +0.000 OA
ATOM      3  N   UNL     1       4.300   3.310  18.859  0.00  0.00    +0.000 N 
ATOM      4  H   UNL     1       4.036   2.761  18.045  0.00  0.00    +0.000 HD
ENDROOT
BRANCH   1   9
ATOM      5  C   UNL     1       7.616   4.951  13.550  0.00  0.00    +0.000 C 
ATOM      6  C   UNL     1       6.929   4.741  14.862  0.00  0.00    +0.000 A 
ATOM      7  C   UNL     1       5.546   4.661  14.953  0.00  0.00    +0.000 A 
ATOM      8  C   UNL     1       4.968   4.494  16.207  0.00  0.00    +0.000 A 
ATOM      9  C   UNL     1       5.804   4.420  17.306  0.00  0.00    +0.000 A 
ATOM     10  N   UNL     1       7.153   4.480  17.196  0.00  0.00    +0.000 NA
ATOM     11  N   UNL     1       7.717   4.643  15.960  0.00  0.00    +0.000 NA
ENDBRANCH   1   9
BRANCH   3  12
ATOM     12  C   UNL     1       3.604   3.122  20.117  0.00  0.00    +0.000 C 
BRANCH  12  13
ATOM     13  C   UNL     1       2.175   3.712  20.141  0.00  0.00    +0.000 C 
ATOM     14  C   UNL     1       1.199   2.791  19.395  0.00  0.00    +0.000 C 
BRANCH  13  15
ATOM     15  C   UNL     1       2.126   5.163  19.675  0.00  0.00    +0.000 A 
ATOM     16  C   UNL     1       2.090   5.452  18.298  0.00  0.00    +0.000 A 
ATOM     17  C   UNL     1       2.003   6.772  17.845  0.00  0.00    +0.000 A 
ATOM     18  C   UNL     1       1.948   7.816  18.765  0.00  0.00    +0.000 A 
ATOM     19 BR   UNL     1       1.826   9.603  18.160  0.00  0.00    +0.000 Br
ATOM     20  C   UNL     1       1.971   7.556  20.130  0.00  0.00    +0.000 A 
ATOM     21  C   UNL     1       2.057   6.234  20.580  0.00  0.00    +0.000 A 
ENDBRANCH  13  15
ENDBRANCH  12  13
ENDBRANCH   3  12
TORSDOF 4
ENDMDL
MODEL 4
REMARK VINA RESULT:      -7.0      4.191      8.313
REMARK  Name = 
REMARK  6 active torsions:
REMARK  status: ('A' for Active; 'I' for Inactive)
REMARK    1  A    between atoms: C_1  and  C_2
REMARK    2  A    between atoms: C_5  and  C_6
REMARK    3  A    between atoms: N_8  and  C_9
REMARK    4  A    between atoms: C_9  and  C_10
REMARK    5  A    between atoms: C_10  and  C_11
REMARK    6  A    between atoms: C_10  and  C_12
REMARK                            x       y       z     vdW  Elec       q    Type
REMARK                         _______ _______ _______ _____ _____    ______ ____
ROOT
ATOM      1  C   UNL     1       1.645   8.169  20.109  0.00  0.00    +0.000 C 
ATOM      2  O   UNL     1       2.073   8.542  19.022  0.00  0.00    +0.000 OA
ATOM      3  N   UNL     1       1.929   6.938  20.669  0.00  0.00    +0.000 N 
ATOM      4  H   UNL     1       1.544   6.739  21.589  0.00  0.00    +0.000 HD
ENDROOT
BRANCH   1   9
ATOM      5  C   UNL     1      -1.669  11.787  22.990  0.00  0.00    +0.000 C 
ATOM      6  C   UNL     1      -0.815  10.778  22.290  0.00  0.00    +0.000 A 
ATOM      7  C   UNL     1      -0.159   9.773  22.988  0.00  0.00    +0.000 A 
ATOM      8  C   UNL     1       0.644   8.884  22.282  0.00  0.00    +0.000 A 
ATOM      9  C   UNL     1       0.752   9.050  20.912  0.00  0.00    +0.000 A 
ATOM     10  N   UNL     1       0.088  10.024  20.245  0.00  0.00    +0.000 NA
ATOM     11  N   UNL     1      -0.701  10.896  20.945  0.00  0.00    +0.000 NA
ENDBRANCH   1   9
BRANCH   3  12
ATOM     12  C   UNL     1       2.845   6.000  20.048  0.00  0.00    +0.000 C 
BRANCH  12  13
ATOM     13  C   UNL     1       2.351   5.437  18.696  0.00  0.00    +0.000 C 
ATOM     14  C   UNL     1       1.542   4.148  18.913  0.00  0.00    +0.000 C 
BRANCH  13  15
ATOM     15  C   UNL     1       3.469   5.292  17.670  0.00  0.00    +0.000 A 
ATOM     16  C   UNL     1       3.805   4.017  17.179  0.00  0.00    +0.000 A 
ATOM     17  C   UNL     1       4.799   3.862  16.208  0.00  0.00    +0.000 A 
ATOM     18  C   UNL     1       5.464   4.982  15.714  0.00  0.00    +0.000 A 
ATOM     19 BR   UNL     1       6.805   4.780  14.398  0.00  0.00    +0.000 Br
ATOM     20  C   UNL     1       5.143   6.252  16.176  0.00  0.00    +0.000 A 
ATOM     21  C   UNL     1       4.147   6.405  17.147  0.00  0.00    +0.000 A 
ENDBRANCH  13  15
ENDBRANCH  12  13
ENDBRANCH   3  12
TORSDOF 4
ENDMDL
MODEL 5
REMARK VINA RESULT:      -7.0      2.469      3.299
REMARK  Name = 
REMARK  6 active torsions:
REMARK  status: ('A' for Active; 'I' for Inactive)
REMARK    1  A    between atoms: C_1  and  C_2
REMARK    2  A    between atoms: C_5  and  C_6
REMARK    3  A    between atoms: N_8  and  C_9
REMARK    4  A    between atoms: C_9  and  C_10
REMARK    5  A    between atoms: C_10  and  C_11
REMARK    6  A    between atoms: C_10  and  C_12
REMARK                            x       y       z     vdW  Elec       q    Type
REMARK                         _______ _______ _______ _____ _____    ______ ____
ROOT
ATOM      1  C   UNL     1       5.972   5.893  16.193  0.00  0.00    +0.000 C 
ATOM      2  O   UNL     1       6.777   5.923  17.118  0.00  0.00    +0.000 OA
ATOM      3  N   UNL     1       4.745   6.528  16.216  0.00  0.00    +0.000 N 
ATOM      4  H   UNL     1       4.165   6.460  15.384  0.00  0.00    +0.000 HD
ENDROOT
BRANCH   1   9
ATOM      5  C   UNL     1       7.256   3.267  11.311  0.00  0.00    +0.000 C 
ATOM      6  C   UNL     1       6.880   3.888  12.619  0.00  0.00    +0.000 A 
ATOM      7  C   UNL     1       5.721   3.520  13.290  0.00  0.00    +0.000 A 
ATOM      8  C   UNL     1       5.413   4.156  14.488  0.00  0.00    +0.000 A 
ATOM      9  C   UNL     1       6.279   5.132  14.950  0.00  0.00    +0.000 A 
ATOM     10  N   UNL     1       7.416   5.463  14.291  0.00  0.00    +0.000 NA
ATOM     11  N   UNL     1       7.715   4.833  13.114  0.00  0.00    +0.000 NA
ENDBRANCH   1   9
BRANCH   3  12
ATOM     12  C   UNL     1       4.333   7.372  17.321  0.00  0.00    +0.000 C 
BRANCH  12  13
ATOM     13  C   UNL     1       2.817   7.324  17.619  0.00  0.00    +0.000 C 
ATOM     14  C   UNL     1       2.311   8.705  18.062  0.00  0.00    +0.000 C 
BRANCH  13  15
ATOM     15  C   UNL     1       2.436   6.197  18.573  0.00  0.00    +0.000 A 
ATOM     16  C   UNL     1       2.203   4.905  18.069  0.00  0.00    +0.000 A 
ATOM     17  C   UNL     1       1.891   3.846  18.928  0.00  0.00    +0.000 A 
ATOM     18  C   UNL     1       1.813   4.069  20.301  0.00  0.00    +0.000 A 
ATOM     19 BR   UNL     1       1.397   2.641  21.467  0.00  0.00    +0.000 Br
ATOM     20  C   UNL     1       2.049   5.335  20.824  0.00  0.00    +0.000 A 
ATOM     21  C   UNL     1       2.361   6.392  19.962  0.00  0.00    +0.000 A 
ENDBRANCH  13  15
ENDBRANCH  12  13
ENDBRANCH   3  12
TORSDOF 4
ENDMDL
MODEL 6
REMARK VINA RESULT:      -6.9      4.150      8.221
REMARK  Name = 
REMARK  6 active torsions:
REMARK  status: ('A' for Active; 'I' for Inactive)
REMARK    1  A    between atoms: C_1  and  C_2
REMARK    2  A    between atoms: C_5  and  C_6
REMARK    3  A    between atoms: N_8  and  C_9
REMARK    4  A    between atoms: C_9  and  C_10
REMARK    5  A    between atoms: C_10  and  C_11
REMARK    6  A    between atoms: C_10  and  C_12
REMARK                            x       y       z     vdW  Elec       q    Type
REMARK                         _______ _______ _______ _____ _____    ______ ____
ROOT
ATOM      1  C   UNL     1       1.714   8.109  20.019  0.00  0.00    +0.000 C 
ATOM      2  O   UNL     1       2.134   8.451  18.918  0.00  0.00    +0.000 OA
ATOM      3  N   UNL     1       1.983   6.886  20.602  0.00  0.00    +0.000 N 
ATOM      4  H   UNL     1       1.606   6.714  21.531  0.00  0.00    +0.000 HD
ENDROOT
BRANCH   1   9
ATOM      5  C   UNL     1      -1.372  11.843  23.003  0.00  0.00    +0.000 C 
ATOM      6  C   UNL     1      -0.612  10.801  22.246  0.00  0.00    +0.000 A 
ATOM      7  C   UNL     1      -0.534   9.490  22.694  0.00  0.00    +0.000 A 
ATOM      8  C   UNL     1       0.213   8.576  21.959  0.00  0.00    +0.000 A 
ATOM      9  C   UNL     1       0.848   9.024  20.814  0.00  0.00    +0.000 A 
ATOM     10  N   UNL     1       0.744  10.303  20.381  0.00  0.00    +0.000 NA
ATOM     11  N   UNL     1       0.007  11.198  21.107  0.00  0.00    +0.000 NA
ENDBRANCH   1   9
BRANCH   3  12
ATOM     12  C   UNL     1       2.873   5.917  19.990  0.00  0.00    +0.000 C 
BRANCH  12  13
ATOM     13  C   UNL     1       2.352   5.338  18.655  0.00  0.00    +0.000 C 
ATOM     14  C   UNL     1       1.546   4.054  18.902  0.00  0.00    +0.000 C 
BRANCH  13  15
ATOM     15  C   UNL     1       3.450   5.179  17.609  0.00  0.00    +0.000 A 
ATOM     16  C   UNL     1       4.143   6.313  17.146  0.00  0.00    +0.000 A 
ATOM     17  C   UNL     1       5.181   6.189  16.218  0.00  0.00    +0.000 A 
ATOM     18  C   UNL     1       5.539   4.929  15.746  0.00  0.00    +0.000 A 
ATOM     19 BR   UNL     1       6.945   4.754  14.494  0.00  0.00    +0.000 Br
ATOM     20  C   UNL     1       4.877   3.793  16.195  0.00  0.00    +0.000 A 
ATOM     21  C   UNL     1       3.839   3.920  17.125  0.00  0.00    +0.000 A 
ENDBRANCH  13  15
ENDBRANCH  12  13
ENDBRANCH   3  12
TORSDOF 4
ENDMDL
MODEL 7
REMARK VINA RESULT:      -6.9      0.900      1.563
REMARK  Name = 
REMARK  6 active torsions:
REMARK  status: ('A' for Active; 'I' for Inactive)
REMARK    1  A    between atoms: C_1  and  C_2
REMARK    2  A    between atoms: C_5  and  C_6
REMARK    3  A    between atoms: N_8  and  C_9
REMARK    4  A    between atoms: C_9  and  C_10
REMARK    5  A    between atoms: C_10  and  C_11
REMARK    6  A    between atoms: C_10  and  C_12
REMARK                            x       y       z     vdW  Elec       q    Type
REMARK                         _______ _______ _______ _____ _____    ______ ____
ROOT
ATOM      1  C   UNL     1       4.819   4.491  17.561  0.00  0.00    +0.000 C 
ATOM      2  O   UNL     1       5.327   4.232  18.647  0.00  0.00    +0.000 OA
ATOM      3  N   UNL     1       3.462   4.661  17.364  0.00  0.00    +0.000 N 
ATOM      4  H   UNL     1       3.149   4.900  16.426  0.00  0.00    +0.000 HD
ENDROOT
BRANCH   1   9
ATOM      5  C   UNL     1       8.107   5.341  12.996  0.00  0.00    +0.000 C 
ATOM      6  C   UNL     1       7.223   5.042  14.165  0.00  0.00    +0.000 A 
ATOM      7  C   UNL     1       6.114   4.217  14.045  0.00  0.00    +0.000 A 
ATOM      8  C   UNL     1       5.316   4.003  15.163  0.00  0.00    +0.000 A 
ATOM      9  C   UNL     1       5.668   4.630  16.345  0.00  0.00    +0.000 A 
ATOM     10  N   UNL     1       6.767   5.417  16.449  0.00  0.00    +0.000 NA
ATOM     11  N   UNL     1       7.549   5.623  15.345  0.00  0.00    +0.000 NA
ENDBRANCH   1   9
BRANCH   3  12
ATOM     12  C   UNL     1       2.513   4.635  18.460  0.00  0.00    +0.000 C 
BRANCH  12  13
ATOM     13  C   UNL     1       2.850   5.612  19.609  0.00  0.00    +0.000 C 
ATOM     14  C   UNL     1       2.502   4.985  20.968  0.00  0.00    +0.000 C 
BRANCH  13  15
ATOM     15  C   UNL     1       2.251   6.999  19.404  0.00  0.00    +0.000 A 
ATOM     16  C   UNL     1       1.638   7.661  20.483  0.00  0.00    +0.000 A 
ATOM     17  C   UNL     1       1.118   8.950  20.330  0.00  0.00    +0.000 A 
ATOM     18  C   UNL     1       1.208   9.590  19.097  0.00  0.00    +0.000 A 
ATOM     19 BR   UNL     1       0.510  11.334  18.885  0.00  0.00    +0.000 Br
ATOM     20  C   UNL     1       1.818   8.961  18.019  0.00  0.00    +0.000 A 
ATOM     21  C   UNL     1       2.339   7.672  18.174  0.00  0.00    +0.000 A 
ENDBRANCH  13  15
ENDBRANCH  12  13
ENDBRANCH   3  12
TORSDOF 4
ENDMDL
MODEL 8
REMARK VINA RESULT:      -6.8      3.521      7.381
REMARK  Name = 
REMARK  6 active torsions:
REMARK  status: ('A' for Active; 'I' for Inactive)
REMARK    1  A    between atoms: C_1  and  C_2
REMARK    2  A    between atoms: C_5  and  C_6
REMARK    3  A    between atoms: N_8  and  C_9
REMARK    4  A    between atoms: C_9  and  C_10
REMARK    5  A    between atoms: C_10  and  C_11
REMARK    6  A    between atoms: C_10  and  C_12
REMARK                            x       y       z     vdW  Elec       q    Type
REMARK                         _______ _______ _______ _____ _____    ______ ____
ROOT
ATOM      1  C   UNL     1       3.313   5.990  18.518  0.00  0.00    +0.000 C 
ATOM      2  O   UNL     1       2.845   5.143  17.765  0.00  0.00    +0.000 OA
ATOM      3  N   UNL     1       4.504   5.842  19.202  0.00  0.00    +0.000 N 
ATOM      4  H   UNL     1       4.814   6.618  19.781  0.00  0.00    +0.000 HD
ENDROOT
BRANCH   1   9
ATOM      5  C   UNL     1       0.328  10.710  19.608  0.00  0.00    +0.000 C 
ATOM      6  C   UNL     1       1.158   9.513  19.267  0.00  0.00    +0.000 A 
ATOM      7  C   UNL     1       1.726   9.357  18.010  0.00  0.00    +0.000 A 
ATOM      8  C   UNL     1       2.462   8.208  17.748  0.00  0.00    +0.000 A 
ATOM      9  C   UNL     1       2.589   7.270  18.757  0.00  0.00    +0.000 A 
ATOM     10  N   UNL     1       2.045   7.449  19.985  0.00  0.00    +0.000 NA
ATOM     11  N   UNL     1       1.322   8.583  20.238  0.00  0.00    +0.000 NA
ENDBRANCH   1   9
BRANCH   3  12
ATOM     12  C   UNL     1       5.363   4.688  19.015  0.00  0.00    +0.000 C 
BRANCH  12  13
ATOM     13  C   UNL     1       6.642   4.980  18.197  0.00  0.00    +0.000 C 
ATOM     14  C   UNL     1       7.096   6.432  18.407  0.00  0.00    +0.000 C 
BRANCH  13  15
ATOM     15  C   UNL     1       6.509   4.587  16.729  0.00  0.00    +0.000 A 
ATOM     16  C   UNL     1       5.465   3.733  16.328  0.00  0.00    +0.000 A 
ATOM     17  C   UNL     1       5.297   3.390  14.982  0.00  0.00    +0.000 A 
ATOM     18  C   UNL     1       6.171   3.901  14.025  0.00  0.00    +0.000 A 
ATOM     19 BR   UNL     1       5.947   3.445  12.204  0.00  0.00    +0.000 Br
ATOM     20  C   UNL     1       7.203   4.754  14.395  0.00  0.00    +0.000 A 
ATOM     21  C   UNL     1       7.368   5.096  15.742  0.00  0.00    +0.000 A 
ENDBRANCH  13  15
ENDBRANCH  12  13
ENDBRANCH   3  12
TORSDOF 4
ENDMDL
MODEL 9
REMARK VINA RESULT:      -6.7      1.823      2.600
REMARK  Name = 
REMARK  6 active torsions:
REMARK  status: ('A' for Active; 'I' for Inactive)
REMARK    1  A    between atoms: C_1  and  C_2
REMARK    2  A    between atoms: C_5  and  C_6
REMARK    3  A    between atoms: N_8  and  C_9
REMARK    4  A    between atoms: C_9  and  C_10
REMARK    5  A    between atoms: C_10  and  C_11
REMARK    6  A    between atoms: C_10  and  C_12
REMARK                            x       y       z     vdW  Elec       q    Type
REMARK                         _______ _______ _______ _____ _____    ______ ____
ROOT
ATOM      1  C   UNL     1       5.307   3.905  18.444  0.00  0.00    +0.000 C 
ATOM      2  O   UNL     1       5.736   4.487  19.434  0.00  0.00    +0.000 OA
ATOM      3  N   UNL     1       4.333   2.926  18.485  0.00  0.00    +0.000 N 
ATOM      4  H   UNL     1       4.030   2.526  17.600  0.00  0.00    +0.000 HD
ENDROOT
BRANCH   1   9
ATOM      5  C   UNL     1       7.190   4.857  13.159  0.00  0.00    +0.000 C 
ATOM      6  C   UNL     1       6.747   4.666  14.575  0.00  0.00    +0.000 A 
ATOM      7  C   UNL     1       7.600   4.910  15.642  0.00  0.00    +0.000 A 
ATOM      8  C   UNL     1       7.136   4.685  16.934  0.00  0.00    +0.000 A 
ATOM      9  C   UNL     1       5.841   4.224  17.090  0.00  0.00    +0.000 A 
ATOM     10  N   UNL     1       5.015   4.011  16.037  0.00  0.00    +0.000 NA
ATOM     11  N   UNL     1       5.477   4.235  14.769  0.00  0.00    +0.000 NA
ENDBRANCH   1   9
BRANCH   3  12
ATOM     12  C   UNL     1       3.658   2.559  19.715  0.00  0.00    +0.000 C 
BRANCH  12  13
ATOM     13  C   UNL     1       2.239   3.155  19.859  0.00  0.00    +0.000 C 
ATOM     14  C   UNL     1       1.201   2.244  19.187  0.00  0.00    +0.000 C 
BRANCH  13  15
ATOM     15  C   UNL     1       2.159   4.610  19.408  0.00  0.00    +0.000 A 
ATOM     16  C   UNL     1       2.286   5.642  20.355  0.00  0.00    +0.000 A 
ATOM     17  C   UNL     1       2.256   6.984  19.962  0.00  0.00    +0.000 A 
ATOM     18  C   UNL     1       2.104   7.306  18.616  0.00  0.00    +0.000 A 
ATOM     19 BR   UNL     1       2.067   9.117  18.077  0.00  0.00    +0.000 Br
ATOM     20  C   UNL     1       1.987   6.305  17.660  0.00  0.00    +0.000 A 
ATOM     21  C   UNL     1       2.017   4.963  18.056  0.00  0.00    +0.000 A 
ENDBRANCH  13  15
ENDBRANCH  12  13
ENDBRANCH   3  12
TORSDOF 4
ENDMDL
