MODEL 1
REMARK VINA RESULT:      -7.8      0.000      0.000
REMARK  Name = 
REMARK  14 active torsions:
REMARK  status: ('A' for Active; 'I' for Inactive)
REMARK    1  A    between atoms: C_1  and  C_2
REMARK    2  A    between atoms: C_7  and  C_8
REMARK    3  A    between atoms: C_8  and  O_9
REMARK    4  A    between atoms: C_8  and  C_29
REMARK    5  A    between atoms: O_9  and  C_10
REMARK    6  A    between atoms: C_10  and  C_11
REMARK    7  A    between atoms: C_11  and  O_12
REMARK    8  A    between atoms: C_11  and  C_13
REMARK    9  A    between atoms: C_13  and  N_14
REMARK   10  A    between atoms: N_14  and  C_15
REMARK   11  A    between atoms: C_15  and  C_16
REMARK   12  A    between atoms: C_15  and  C_17
REMARK   13  A    between atoms: C_15  and  C_18
REMARK   14  A    between atoms: C_18  and  C_19
REMARK                            x       y       z     vdW  Elec       q    Type
REMARK                         _______ _______ _______ _____ _____    ______ ____
ROOT
ATOM      1  C   UNL     1       7.444   8.316  17.477  0.00  0.00    +0.000 C 
ENDROOT
BRANCH   1   2
ATOM      2  N   UNL     1       7.618   7.099  16.682  0.00  0.00    +0.000 NA
ATOM      3  H   UNL     1       8.582   6.775  16.764  0.00  0.00    +0.000 HD
BRANCH   2   4
ATOM      4  C   UNL     1       6.651   6.023  17.009  0.00  0.00    +0.000 C 
ATOM      5  C   UNL     1       7.129   4.710  16.348  0.00  0.00    +0.000 C 
ATOM      6  C   UNL     1       6.644   5.744  18.533  0.00  0.00    +0.000 C 
BRANCH   4   7
ATOM      7  C   UNL     1       5.185   6.356  16.566  0.00  0.00    +0.000 C 
BRANCH   7   8
ATOM      8  C   UNL     1       3.988   5.830  17.341  0.00  0.00    +0.000 A 
ATOM      9  C   UNL     1       3.372   6.702  18.253  0.00  0.00    +0.000 A 
ATOM     10  C   UNL     1       2.427   6.232  19.166  0.00  0.00    +0.000 A 
ATOM     11  C   UNL     1       2.085   4.875  19.201  0.00  0.00    +0.000 A 
ATOM     12  C   UNL     1       1.280   4.342  20.218  0.00  0.00    +0.000 A 
ATOM     13  C   UNL     1       0.969   2.983  20.243  0.00  0.00    +0.000 A 
ATOM     14  C   UNL     1       1.403   2.148  19.217  0.00  0.00    +0.000 A 
ATOM     15  C   UNL     1       2.199   2.667  18.191  0.00  0.00    +0.000 A 
ATOM     16  C   UNL     1       2.589   4.013  18.202  0.00  0.00    +0.000 A 
ATOM     17  C   UNL     1       3.513   4.519  17.262  0.00  0.00    +0.000 A 
ENDBRANCH   7   8
ENDBRANCH   4   7
ENDBRANCH   2   4
ENDBRANCH   1   2
BRANCH   1  18
ATOM     18  C   UNL     1       8.750   8.946  18.031  0.00  0.00    +0.000 C 
BRANCH  18  19
ATOM     19  O   UNL     1       8.911   8.562  19.401  0.00  0.00    +0.000 OA
ATOM     20  H   UNL     1       8.763   9.349  19.952  0.00  0.00    +0.000 HD
ENDBRANCH  18  19
BRANCH  18  21
ATOM     21  C   UNL     1       8.552  10.467  17.878  0.00  0.00    +0.000 C 
BRANCH  21  22
ATOM     22  O   UNL     1       8.605  11.257  19.070  0.00  0.00    +0.000 OA
BRANCH  22  23
ATOM     23  C   UNL     1       9.566  12.346  18.953  0.00  0.00    +0.000 C 
BRANCH  23  30
ATOM     24  C   UNL     1      10.541  14.762  20.626  0.00  0.00    +0.000 C 
ATOM     25  C   UNL     1       9.387  14.848  19.658  0.00  0.00    +0.000 A 
ATOM     26  C   UNL     1       8.816  16.125  19.469  0.00  0.00    +0.000 A 
ATOM     27  C   UNL     1       7.768  16.330  18.576  0.00  0.00    +0.000 A 
ATOM     28  C   UNL     1       7.256  15.250  17.880  0.00  0.00    +0.000 A 
ATOM     29  C   UNL     1       7.800  13.976  18.069  0.00  0.00    +0.000 A 
ATOM     30  C   UNL     1       8.881  13.728  18.944  0.00  0.00    +0.000 A 
ENDBRANCH  23  30
BRANCH  23  31
ATOM     31  C   UNL     1      10.438  12.069  17.725  0.00  0.00    +0.000 C 
ATOM     32  C   UNL     1      11.308  13.026  16.928  0.00  0.00    +0.000 C 
ATOM     33  C   UNL     1      11.952  12.138  17.934  0.00  0.00    +0.000 C 
ENDBRANCH  23  31
ENDBRANCH  22  23
ENDBRANCH  21  22
ENDBRANCH  18  21
ENDBRANCH   1  18
TORSDOF 11
ENDMDL
MODEL 2
REMARK VINA RESULT:      -7.6      1.863      3.455
REMARK  Name = 
REMARK  14 active torsions:
REMARK  status: ('A' for Active; 'I' for Inactive)
REMARK    1  A    between atoms: C_1  and  C_2
REMARK    2  A    between atoms: C_7  and  C_8
REMARK    3  A    between atoms: C_8  and  O_9
REMARK    4  A    between atoms: C_8  and  C_29
REMARK    5  A    between atoms: O_9  and  C_10
REMARK    6  A    between atoms: C_10  and  C_11
REMARK    7  A    between atoms: C_11  and  O_12
REMARK    8  A    between atoms: C_11  and  C_13
REMARK    9  A    between atoms: C_13  and  N_14
REMARK   10  A    between atoms: N_14  and  C_15
REMARK   11  A    between atoms: C_15  and  C_16
REMARK   12  A    between atoms: C_15  and  C_17
REMARK   13  A    between atoms: C_15  and  C_18
REMARK   14  A    between atoms: C_18  and  C_19
REMARK                            x       y       z     vdW  Elec       q    Type
REMARK                         _______ _______ _______ _____ _____    ______ ____
ROOT
ATOM      1  C   UNL     1       6.600   7.284  17.790  0.00  0.00    +0.000 C 
ENDROOT
BRANCH   1   2
ATOM      2  N   UNL     1       6.152   6.895  16.451  0.00  0.00    +0.000 NA
ATOM      3  H   UNL     1       6.886   7.107  15.774  0.00  0.00    +0.000 HD
BRANCH   2   4
ATOM      4  C   UNL     1       5.707   5.484  16.351  0.00  0.00    +0.000 C 
ATOM      5  C   UNL     1       5.774   5.048  14.869  0.00  0.00    +0.000 C 
ATOM      6  C   UNL     1       6.688   4.550  17.104  0.00  0.00    +0.000 C 
BRANCH   4   7
ATOM      7  C   UNL     1       4.268   5.249  16.926  0.00  0.00    +0.000 C 
BRANCH   7   8
ATOM      8  C   UNL     1       3.629   6.241  17.883  0.00  0.00    +0.000 A 
ATOM      9  C   UNL     1       3.384   5.809  19.197  0.00  0.00    +0.000 A 
ATOM     10  C   UNL     1       2.595   6.566  20.064  0.00  0.00    +0.000 A 
ATOM     11  C   UNL     1       2.018   7.767  19.635  0.00  0.00    +0.000 A 
ATOM     12  C   UNL     1       1.080   8.457  20.417  0.00  0.00    +0.000 A 
ATOM     13  C   UNL     1       0.504   9.641  19.961  0.00  0.00    +0.000 A 
ATOM     14  C   UNL     1       0.905  10.190  18.746  0.00  0.00    +0.000 A 
ATOM     15  C   UNL     1       1.846   9.519  17.959  0.00  0.00    +0.000 A 
ATOM     16  C   UNL     1       2.368   8.284  18.369  0.00  0.00    +0.000 A 
ATOM     17  C   UNL     1       3.202   7.520  17.522  0.00  0.00    +0.000 A 
ENDBRANCH   7   8
ENDBRANCH   4   7
ENDBRANCH   2   4
ENDBRANCH   1   2
BRANCH   1  18
ATOM     18  C   UNL     1       8.065   7.783  17.887  0.00  0.00    +0.000 C 
BRANCH  18  19
ATOM     19  O   UNL     1       8.651   7.287  19.096  0.00  0.00    +0.000 OA
ATOM     20  H   UNL     1       8.453   7.919  19.806  0.00  0.00    +0.000 HD
ENDBRANCH  18  19
BRANCH  18  21
ATOM     21  C   UNL     1       7.961   9.322  17.887  0.00  0.00    +0.000 C 
BRANCH  21  22
ATOM     22  O   UNL     1       9.184  10.061  17.825  0.00  0.00    +0.000 OA
BRANCH  22  23
ATOM     23  C   UNL     1       9.121  11.276  18.627  0.00  0.00    +0.000 C 
BRANCH  23  30
ATOM     24  C   UNL     1       8.043  14.178  18.608  0.00  0.00    +0.000 C 
ATOM     25  C   UNL     1       9.379  13.796  18.020  0.00  0.00    +0.000 A 
ATOM     26  C   UNL     1      10.180  14.852  17.533  0.00  0.00    +0.000 A 
ATOM     27  C   UNL     1      11.444  14.622  16.998  0.00  0.00    +0.000 A 
ATOM     28  C   UNL     1      11.913  13.323  16.915  0.00  0.00    +0.000 A 
ATOM     29  C   UNL     1      11.126  12.265  17.378  0.00  0.00    +0.000 A 
ATOM     30  C   UNL     1       9.849  12.457  17.952  0.00  0.00    +0.000 A 
ENDBRANCH  23  30
BRANCH  23  31
ATOM     31  C   UNL     1       9.638  10.937  20.028  0.00  0.00    +0.000 C 
ATOM     32  C   UNL     1      10.381  11.818  21.018  0.00  0.00    +0.000 C 
ATOM     33  C   UNL     1       8.919  11.606  21.201  0.00  0.00    +0.000 C 
ENDBRANCH  23  31
ENDBRANCH  22  23
ENDBRANCH  21  22
ENDBRANCH  18  21
ENDBRANCH   1  18
TORSDOF 11
ENDMDL
MODEL 3
REMARK VINA RESULT:      -7.3      1.351      2.022
REMARK  Name = 
REMARK  14 active torsions:
REMARK  status: ('A' for Active; 'I' for Inactive)
REMARK    1  A    between atoms: C_1  and  C_2
REMARK    2  A    between atoms: C_7  and  C_8
REMARK    3  A    between atoms: C_8  and  O_9
REMARK    4  A    between atoms: C_8  and  C_29
REMARK    5  A    between atoms: O_9  and  C_10
REMARK    6  A    between atoms: C_10  and  C_11
REMARK    7  A    between atoms: C_11  and  O_12
REMARK    8  A    between atoms: C_11  and  C_13
REMARK    9  A    between atoms: C_13  and  N_14
REMARK   10  A    between atoms: N_14  and  C_15
REMARK   11  A    between atoms: C_15  and  C_16
REMARK   12  A    between atoms: C_15  and  C_17
REMARK   13  A    between atoms: C_15  and  C_18
REMARK   14  A    between atoms: C_18  and  C_19
REMARK                            x       y       z     vdW  Elec       q    Type
REMARK                         _______ _______ _______ _____ _____    ______ ____
ROOT
ATOM      1  C   UNL     1       7.462   8.485  17.446  0.00  0.00    +0.000 C 
ENDROOT
BRANCH   1   2
ATOM      2  N   UNL     1       7.814   7.180  16.882  0.00  0.00    +0.000 NA
ATOM      3  H   UNL     1       8.822   7.037  16.961  0.00  0.00    +0.000 HD
BRANCH   2   4
ATOM      4  C   UNL     1       7.054   6.048  17.464  0.00  0.00    +0.000 C 
ATOM      5  C   UNL     1       7.319   4.784  16.613  0.00  0.00    +0.000 C 
ATOM      6  C   UNL     1       7.579   5.712  18.883  0.00  0.00    +0.000 C 
BRANCH   4   7
ATOM      7  C   UNL     1       5.515   6.325  17.565  0.00  0.00    +0.000 C 
BRANCH   7   8
ATOM      8  C   UNL     1       4.540   5.229  17.964  0.00  0.00    +0.000 A 
ATOM      9  C   UNL     1       4.014   4.425  16.939  0.00  0.00    +0.000 A 
ATOM     10  C   UNL     1       2.946   3.561  17.184  0.00  0.00    +0.000 A 
ATOM     11  C   UNL     1       2.366   3.490  18.456  0.00  0.00    +0.000 A 
ATOM     12  C   UNL     1       1.185   2.771  18.691  0.00  0.00    +0.000 A 
ATOM     13  C   UNL     1       0.615   2.730  19.962  0.00  0.00    +0.000 A 
ATOM     14  C   UNL     1       1.252   3.352  21.033  0.00  0.00    +0.000 A 
ATOM     15  C   UNL     1       2.435   4.065  20.817  0.00  0.00    +0.000 A 
ATOM     16  C   UNL     1       2.971   4.184  19.527  0.00  0.00    +0.000 A 
ATOM     17  C   UNL     1       4.077   5.022  19.264  0.00  0.00    +0.000 A 
ENDBRANCH   7   8
ENDBRANCH   4   7
ENDBRANCH   2   4
ENDBRANCH   1   2
BRANCH   1  18
ATOM     18  C   UNL     1       8.642   9.295  18.044  0.00  0.00    +0.000 C 
BRANCH  18  19
ATOM     19  O   UNL     1       8.955   8.780  19.342  0.00  0.00    +0.000 OA
ATOM     20  H   UNL     1       8.190   8.939  19.920  0.00  0.00    +0.000 HD
ENDBRANCH  18  19
BRANCH  18  21
ATOM     21  C   UNL     1       8.132  10.749  18.109  0.00  0.00    +0.000 C 
BRANCH  21  22
ATOM     22  O   UNL     1       9.095  11.790  17.925  0.00  0.00    +0.000 OA
BRANCH  22  23
ATOM     23  C   UNL     1       9.779  12.118  19.170  0.00  0.00    +0.000 C 
BRANCH  23  30
ATOM     24  C   UNL     1       8.674  14.776  18.032  0.00  0.00    +0.000 C 
ATOM     25  C   UNL     1       8.431  14.329  19.452  0.00  0.00    +0.000 A 
ATOM     26  C   UNL     1       7.580  15.141  20.233  0.00  0.00    +0.000 A 
ATOM     27  C   UNL     1       7.259  14.810  21.546  0.00  0.00    +0.000 A 
ATOM     28  C   UNL     1       7.811  13.672  22.107  0.00  0.00    +0.000 A 
ATOM     29  C   UNL     1       8.668  12.866  21.352  0.00  0.00    +0.000 A 
ATOM     30  C   UNL     1       8.999  13.151  20.008  0.00  0.00    +0.000 A 
ENDBRANCH  23  30
BRANCH  23  31
ATOM     31  C   UNL     1      11.208  12.542  18.819  0.00  0.00    +0.000 C 
ATOM     32  C   UNL     1      12.298  13.091  19.724  0.00  0.00    +0.000 C 
ATOM     33  C   UNL     1      12.333  11.652  19.347  0.00  0.00    +0.000 C 
ENDBRANCH  23  31
ENDBRANCH  22  23
ENDBRANCH  21  22
ENDBRANCH  18  21
ENDBRANCH   1  18
TORSDOF 11
ENDMDL
MODEL 4
REMARK VINA RESULT:      -7.3      5.415      7.406
REMARK  Name = 
REMARK  14 active torsions:
REMARK  status: ('A' for Active; 'I' for Inactive)
REMARK    1  A    between atoms: C_1  and  C_2
REMARK    2  A    between atoms: C_7  and  C_8
REMARK    3  A    between atoms: C_8  and  O_9
REMARK    4  A    between atoms: C_8  and  C_29
REMARK    5  A    between atoms: O_9  and  C_10
REMARK    6  A    between atoms: C_10  and  C_11
REMARK    7  A    between atoms: C_11  and  O_12
REMARK    8  A    between atoms: C_11  and  C_13
REMARK    9  A    between atoms: C_13  and  N_14
REMARK   10  A    between atoms: N_14  and  C_15
REMARK   11  A    between atoms: C_15  and  C_16
REMARK   12  A    between atoms: C_15  and  C_17
REMARK   13  A    between atoms: C_15  and  C_18
REMARK   14  A    between atoms: C_18  and  C_19
REMARK                            x       y       z     vdW  Elec       q    Type
REMARK                         _______ _______ _______ _____ _____    ______ ____
ROOT
ATOM      1  C   UNL     1       3.873   7.527  17.351  0.00  0.00    +0.000 C 
ENDROOT
BRANCH   1   2
ATOM      2  N   UNL     1       5.059   6.850  17.880  0.00  0.00    +0.000 NA
ATOM      3  H   UNL     1       4.787   6.247  18.657  0.00  0.00    +0.000 HD
BRANCH   2   4
ATOM      4  C   UNL     1       5.834   6.108  16.857  0.00  0.00    +0.000 C 
ATOM      5  C   UNL     1       5.303   6.495  15.457  0.00  0.00    +0.000 C 
ATOM      6  C   UNL     1       7.320   6.547  16.875  0.00  0.00    +0.000 C 
BRANCH   4   7
ATOM      7  C   UNL     1       5.781   4.553  17.051  0.00  0.00    +0.000 C 
BRANCH   7   8
ATOM      8  C   UNL     1       4.589   3.881  17.712  0.00  0.00    +0.000 A 
ATOM      9  C   UNL     1       3.444   3.674  16.925  0.00  0.00    +0.000 A 
ATOM     10  C   UNL     1       2.237   3.284  17.507  0.00  0.00    +0.000 A 
ATOM     11  C   UNL     1       2.140   3.105  18.892  0.00  0.00    +0.000 A 
ATOM     12  C   UNL     1       0.907   2.890  19.525  0.00  0.00    +0.000 A 
ATOM     13  C   UNL     1       0.832   2.734  20.908  0.00  0.00    +0.000 A 
ATOM     14  C   UNL     1       1.996   2.724  21.673  0.00  0.00    +0.000 A 
ATOM     15  C   UNL     1       3.234   2.928  21.055  0.00  0.00    +0.000 A 
ATOM     16  C   UNL     1       3.312   3.171  19.677  0.00  0.00    +0.000 A 
ATOM     17  C   UNL     1       4.531   3.528  19.061  0.00  0.00    +0.000 A 
ENDBRANCH   7   8
ENDBRANCH   4   7
ENDBRANCH   2   4
ENDBRANCH   1   2
BRANCH   1  18
ATOM     18  C   UNL     1       2.693   7.684  18.347  0.00  0.00    +0.000 C 
BRANCH  18  19
ATOM     19  O   UNL     1       1.850   6.531  18.260  0.00  0.00    +0.000 OA
ATOM     20  H   UNL     1       2.389   5.788  17.941  0.00  0.00    +0.000 HD
ENDBRANCH  18  19
BRANCH  18  21
ATOM     21  C   UNL     1       1.963   8.966  17.898  0.00  0.00    +0.000 C 
BRANCH  21  22
ATOM     22  O   UNL     1       0.552   9.030  18.123  0.00  0.00    +0.000 OA
BRANCH  22  23
ATOM     23  C   UNL     1       0.146  10.329  18.641  0.00  0.00    +0.000 C 
BRANCH  23  30
ATOM     24  C   UNL     1      -0.201  12.890  20.347  0.00  0.00    +0.000 C 
ATOM     25  C   UNL     1      -0.230  11.501  20.937  0.00  0.00    +0.000 A 
ATOM     26  C   UNL     1      -0.523  11.407  22.315  0.00  0.00    +0.000 A 
ATOM     27  C   UNL     1      -0.608  10.177  22.960  0.00  0.00    +0.000 A 
ATOM     28  C   UNL     1      -0.371   9.021  22.239  0.00  0.00    +0.000 A 
ATOM     29  C   UNL     1      -0.064   9.098  20.877  0.00  0.00    +0.000 A 
ATOM     30  C   UNL     1       0.007  10.324  20.178  0.00  0.00    +0.000 A 
ENDBRANCH  23  30
BRANCH  23  31
ATOM     31  C   UNL     1      -1.122  10.753  17.896  0.00  0.00    +0.000 C 
ATOM     32  C   UNL     1      -1.965   9.966  16.907  0.00  0.00    +0.000 C 
ATOM     33  C   UNL     1      -2.423  10.070  18.319  0.00  0.00    +0.000 C 
ENDBRANCH  23  31
ENDBRANCH  22  23
ENDBRANCH  21  22
ENDBRANCH  18  21
ENDBRANCH   1  18
TORSDOF 11
ENDMDL
MODEL 5
REMARK VINA RESULT:      -7.3      4.835      7.219
REMARK  Name = 
REMARK  14 active torsions:
REMARK  status: ('A' for Active; 'I' for Inactive)
REMARK    1  A    between atoms: C_1  and  C_2
REMARK    2  A    between atoms: C_7  and  C_8
REMARK    3  A    between atoms: C_8  and  O_9
REMARK    4  A    between atoms: C_8  and  C_29
REMARK    5  A    between atoms: O_9  and  C_10
REMARK    6  A    between atoms: C_10  and  C_11
REMARK    7  A    between atoms: C_11  and  O_12
REMARK    8  A    between atoms: C_11  and  C_13
REMARK    9  A    between atoms: C_13  and  N_14
REMARK   10  A    between atoms: N_14  and  C_15
REMARK   11  A    between atoms: C_15  and  C_16
REMARK   12  A    between atoms: C_15  and  C_17
REMARK   13  A    between atoms: C_15  and  C_18
REMARK   14  A    between atoms: C_18  and  C_19
REMARK                            x       y       z     vdW  Elec       q    Type
REMARK                         _______ _______ _______ _____ _____    ______ ____
ROOT
ATOM      1  C   UNL     1       3.788   7.515  17.471  0.00  0.00    +0.000 C 
ENDROOT
BRANCH   1   2
ATOM      2  N   UNL     1       5.104   7.133  17.989  0.00  0.00    +0.000 NA
ATOM      3  H   UNL     1       4.990   6.651  18.881  0.00  0.00    +0.000 HD
BRANCH   2   4
ATOM      4  C   UNL     1       5.916   6.336  17.038  0.00  0.00    +0.000 C 
ATOM      5  C   UNL     1       5.325   6.507  15.619  0.00  0.00    +0.000 C 
ATOM      6  C   UNL     1       7.360   6.893  16.957  0.00  0.00    +0.000 C 
BRANCH   4   7
ATOM      7  C   UNL     1       5.997   4.818  17.417  0.00  0.00    +0.000 C 
BRANCH   7   8
ATOM      8  C   UNL     1       4.771   4.057  17.895  0.00  0.00    +0.000 A 
ATOM      9  C   UNL     1       3.871   3.600  16.920  0.00  0.00    +0.000 A 
ATOM     10  C   UNL     1       2.616   3.106  17.279  0.00  0.00    +0.000 A 
ATOM     11  C   UNL     1       2.223   3.071  18.622  0.00  0.00    +0.000 A 
ATOM     12  C   UNL     1       0.911   2.752  19.001  0.00  0.00    +0.000 A 
ATOM     13  C   UNL     1       0.539   2.742  20.344  0.00  0.00    +0.000 A 
ATOM     14  C   UNL     1       1.487   2.988  21.334  0.00  0.00    +0.000 A 
ATOM     15  C   UNL     1       2.801   3.299  20.972  0.00  0.00    +0.000 A 
ATOM     16  C   UNL     1       3.166   3.394  19.623  0.00  0.00    +0.000 A 
ATOM     17  C   UNL     1       4.445   3.854  19.237  0.00  0.00    +0.000 A 
ENDBRANCH   7   8
ENDBRANCH   4   7
ENDBRANCH   2   4
ENDBRANCH   1   2
BRANCH   1  18
ATOM     18  C   UNL     1       2.616   7.412  18.483  0.00  0.00    +0.000 C 
BRANCH  18  19
ATOM     19  O   UNL     1       1.718   6.380  18.057  0.00  0.00    +0.000 OA
ATOM     20  H   UNL     1       1.474   5.855  18.837  0.00  0.00    +0.000 HD
ENDBRANCH  18  19
BRANCH  18  21
ATOM     21  C   UNL     1       1.948   8.802  18.459  0.00  0.00    +0.000 C 
BRANCH  21  22
ATOM     22  O   UNL     1       0.934   9.058  19.434  0.00  0.00    +0.000 OA
BRANCH  22  23
ATOM     23  C   UNL     1       0.450  10.431  19.362  0.00  0.00    +0.000 C 
BRANCH  23  30
ATOM     24  C   UNL     1      -1.833  12.279  20.339  0.00  0.00    +0.000 C 
ATOM     25  C   UNL     1      -1.937  11.436  19.092  0.00  0.00    +0.000 A 
ATOM     26  C   UNL     1      -3.107  11.598  18.316  0.00  0.00    +0.000 A 
ATOM     27  C   UNL     1      -3.297  10.897  17.129  0.00  0.00    +0.000 A 
ATOM     28  C   UNL     1      -2.330   9.999  16.715  0.00  0.00    +0.000 A 
ATOM     29  C   UNL     1      -1.175   9.816  17.481  0.00  0.00    +0.000 A 
ATOM     30  C   UNL     1      -0.929  10.526  18.677  0.00  0.00    +0.000 A 
ENDBRANCH  23  30
BRANCH  23  31
ATOM     31  C   UNL     1       1.542  11.275  18.700  0.00  0.00    +0.000 C 
ATOM     32  C   UNL     1       1.458  12.684  18.136  0.00  0.00    +0.000 C 
ATOM     33  C   UNL     1       2.042  12.485  19.490  0.00  0.00    +0.000 C 
ENDBRANCH  23  31
ENDBRANCH  22  23
ENDBRANCH  21  22
ENDBRANCH  18  21
ENDBRANCH   1  18
TORSDOF 11
ENDMDL
MODEL 6
REMARK VINA RESULT:      -7.3      4.603      6.486
REMARK  Name = 
REMARK  14 active torsions:
REMARK  status: ('A' for Active; 'I' for Inactive)
REMARK    1  A    between atoms: C_1  and  C_2
REMARK    2  A    between atoms: C_7  and  C_8
REMARK    3  A    between atoms: C_8  and  O_9
REMARK    4  A    between atoms: C_8  and  C_29
REMARK    5  A    between atoms: O_9  and  C_10
REMARK    6  A    between atoms: C_10  and  C_11
REMARK    7  A    between atoms: C_11  and  O_12
REMARK    8  A    between atoms: C_11  and  C_13
REMARK    9  A    between atoms: C_13  and  N_14
REMARK   10  A    between atoms: N_14  and  C_15
REMARK   11  A    between atoms: C_15  and  C_16
REMARK   12  A    between atoms: C_15  and  C_17
REMARK   13  A    between atoms: C_15  and  C_18
REMARK   14  A    between atoms: C_18  and  C_19
REMARK                            x       y       z     vdW  Elec       q    Type
REMARK                         _______ _______ _______ _____ _____    ______ ____
ROOT
ATOM      1  C   UNL     1       3.890   7.566  17.412  0.00  0.00    +0.000 C 
ENDROOT
BRANCH   1   2
ATOM      2  N   UNL     1       5.086   6.955  17.996  0.00  0.00    +0.000 NA
ATOM      3  H   UNL     1       4.817   6.382  18.796  0.00  0.00    +0.000 HD
BRANCH   2   4
ATOM      4  C   UNL     1       5.905   6.189  17.026  0.00  0.00    +0.000 C 
ATOM      5  C   UNL     1       5.329   6.412  15.608  0.00  0.00    +0.000 C 
ATOM      6  C   UNL     1       7.352   6.742  16.979  0.00  0.00    +0.000 C 
BRANCH   4   7
ATOM      7  C   UNL     1       5.977   4.658  17.352  0.00  0.00    +0.000 C 
BRANCH   7   8
ATOM      8  C   UNL     1       4.768   3.908  17.889  0.00  0.00    +0.000 A 
ATOM      9  C   UNL     1       3.868   3.375  16.953  0.00  0.00    +0.000 A 
ATOM     10  C   UNL     1       2.625   2.883  17.355  0.00  0.00    +0.000 A 
ATOM     11  C   UNL     1       2.245   2.926  18.701  0.00  0.00    +0.000 A 
ATOM     12  C   UNL     1       0.942   2.609  19.112  0.00  0.00    +0.000 A 
ATOM     13  C   UNL     1       0.580   2.678  20.456  0.00  0.00    +0.000 A 
ATOM     14  C   UNL     1       1.533   3.001  21.420  0.00  0.00    +0.000 A 
ATOM     15  C   UNL     1       2.838   3.311  21.027  0.00  0.00    +0.000 A 
ATOM     16  C   UNL     1       3.190   3.328  19.670  0.00  0.00    +0.000 A 
ATOM     17  C   UNL     1       4.458   3.784  19.245  0.00  0.00    +0.000 A 
ENDBRANCH   7   8
ENDBRANCH   4   7
ENDBRANCH   2   4
ENDBRANCH   1   2
BRANCH   1  18
ATOM     18  C   UNL     1       2.606   7.485  18.279  0.00  0.00    +0.000 C 
BRANCH  18  19
ATOM     19  O   UNL     1       1.992   6.206  18.089  0.00  0.00    +0.000 OA
ATOM     20  H   UNL     1       1.524   5.973  18.908  0.00  0.00    +0.000 HD
ENDBRANCH  18  19
BRANCH  18  21
ATOM     21  C   UNL     1       1.712   8.634  17.771  0.00  0.00    +0.000 C 
BRANCH  21  22
ATOM     22  O   UNL     1       2.035   9.957  18.208  0.00  0.00    +0.000 OA
BRANCH  22  23
ATOM     23  C   UNL     1       0.926  10.577  18.921  0.00  0.00    +0.000 C 
BRANCH  23  30
ATOM     24  C   UNL     1      -1.660  12.265  18.702  0.00  0.00    +0.000 C 
ATOM     25  C   UNL     1      -0.282  12.877  18.738  0.00  0.00    +0.000 A 
ATOM     26  C   UNL     1      -0.219  14.288  18.764  0.00  0.00    +0.000 A 
ATOM     27  C   UNL     1       0.997  14.962  18.831  0.00  0.00    +0.000 A 
ATOM     28  C   UNL     1       2.172  14.232  18.842  0.00  0.00    +0.000 A 
ATOM     29  C   UNL     1       2.126  12.836  18.799  0.00  0.00    +0.000 A 
ATOM     30  C   UNL     1       0.914  12.110  18.759  0.00  0.00    +0.000 A 
ENDBRANCH  23  30
BRANCH  23  31
ATOM     31  C   UNL     1       0.981  10.098  20.374  0.00  0.00    +0.000 C 
ATOM     32  C   UNL     1       0.202  10.595  21.581  0.00  0.00    +0.000 C 
ATOM     33  C   UNL     1      -0.249   9.354  20.895  0.00  0.00    +0.000 C 
ENDBRANCH  23  31
ENDBRANCH  22  23
ENDBRANCH  21  22
ENDBRANCH  18  21
ENDBRANCH   1  18
TORSDOF 11
ENDMDL
MODEL 7
REMARK VINA RESULT:      -7.3      6.882     10.864
REMARK  Name = 
REMARK  14 active torsions:
REMARK  status: ('A' for Active; 'I' for Inactive)
REMARK    1  A    between atoms: C_1  and  C_2
REMARK    2  A    between atoms: C_7  and  C_8
REMARK    3  A    between atoms: C_8  and  O_9
REMARK    4  A    between atoms: C_8  and  C_29
REMARK    5  A    between atoms: O_9  and  C_10
REMARK    6  A    between atoms: C_10  and  C_11
REMARK    7  A    between atoms: C_11  and  O_12
REMARK    8  A    between atoms: C_11  and  C_13
REMARK    9  A    between atoms: C_13  and  N_14
REMARK   10  A    between atoms: N_14  and  C_15
REMARK   11  A    between atoms: C_15  and  C_16
REMARK   12  A    between atoms: C_15  and  C_17
REMARK   13  A    between atoms: C_15  and  C_18
REMARK   14  A    between atoms: C_18  and  C_19
REMARK                            x       y       z     vdW  Elec       q    Type
REMARK                         _______ _______ _______ _____ _____    ______ ____
ROOT
ATOM      1  C   UNL     1       0.460  10.004  18.571  0.00  0.00    +0.000 C 
ENDROOT
BRANCH   1   2
ATOM      2  N   UNL     1      -0.096  11.356  18.481  0.00  0.00    +0.000 NA
ATOM      3  H   UNL     1      -0.939  11.339  17.906  0.00  0.00    +0.000 HD
BRANCH   2   4
ATOM      4  C   UNL     1      -0.345  11.993  19.796  0.00  0.00    +0.000 C 
ATOM      5  C   UNL     1      -0.615  10.884  20.840  0.00  0.00    +0.000 C 
ATOM      6  C   UNL     1       0.923  12.732  20.293  0.00  0.00    +0.000 C 
BRANCH   4   7
ATOM      7  C   UNL     1      -1.530  13.019  19.771  0.00  0.00    +0.000 C 
BRANCH   7   8
ATOM      8  C   UNL     1      -2.962  12.577  20.028  0.00  0.00    +0.000 A 
ATOM      9  C   UNL     1      -3.650  11.961  18.971  0.00  0.00    +0.000 A 
ATOM     10  C   UNL     1      -5.026  11.741  19.045  0.00  0.00    +0.000 A 
ATOM     11  C   UNL     1      -5.752  12.145  20.171  0.00  0.00    +0.000 A 
ATOM     12  C   UNL     1      -7.153  12.103  20.202  0.00  0.00    +0.000 A 
ATOM     13  C   UNL     1      -7.855  12.530  21.327  0.00  0.00    +0.000 A 
ATOM     14  C   UNL     1      -7.167  12.944  22.465  0.00  0.00    +0.000 A 
ATOM     15  C   UNL     1      -5.769  12.983  22.453  0.00  0.00    +0.000 A 
ATOM     16  C   UNL     1      -5.056  12.637  21.297  0.00  0.00    +0.000 A 
ATOM     17  C   UNL     1      -3.657  12.814  21.215  0.00  0.00    +0.000 A 
ENDBRANCH   7   8
ENDBRANCH   4   7
ENDBRANCH   2   4
ENDBRANCH   1   2
BRANCH   1  18
ATOM     18  C   UNL     1       1.979   9.884  18.277  0.00  0.00    +0.000 C 
BRANCH  18  19
ATOM     19  O   UNL     1       2.354  10.892  17.331  0.00  0.00    +0.000 OA
ATOM     20  H   UNL     1       3.323  10.970  17.346  0.00  0.00    +0.000 HD
ENDBRANCH  18  19
BRANCH  18  21
ATOM     21  C   UNL     1       2.161   8.463  17.707  0.00  0.00    +0.000 C 
BRANCH  21  22
ATOM     22  O   UNL     1       1.913   7.366  18.591  0.00  0.00    +0.000 OA
BRANCH  22  23
ATOM     23  C   UNL     1       2.601   6.157  18.157  0.00  0.00    +0.000 C 
BRANCH  23  30
ATOM     24  C   UNL     1       2.475   3.224  17.173  0.00  0.00    +0.000 C 
ATOM     25  C   UNL     1       2.324   3.609  18.624  0.00  0.00    +0.000 A 
ATOM     26  C   UNL     1       2.216   2.549  19.550  0.00  0.00    +0.000 A 
ATOM     27  C   UNL     1       2.105   2.784  20.917  0.00  0.00    +0.000 A 
ATOM     28  C   UNL     1       2.071   4.088  21.376  0.00  0.00    +0.000 A 
ATOM     29  C   UNL     1       2.161   5.149  20.470  0.00  0.00    +0.000 A 
ATOM     30  C   UNL     1       2.301   4.956  19.077  0.00  0.00    +0.000 A 
ENDBRANCH  23  30
BRANCH  23  31
ATOM     31  C   UNL     1       4.089   6.490  18.021  0.00  0.00    +0.000 C 
ATOM     32  C   UNL     1       5.286   5.554  18.001  0.00  0.00    +0.000 C 
ATOM     33  C   UNL     1       4.763   6.081  16.711  0.00  0.00    +0.000 C 
ENDBRANCH  23  31
ENDBRANCH  22  23
ENDBRANCH  21  22
ENDBRANCH  18  21
ENDBRANCH   1  18
TORSDOF 11
ENDMDL
MODEL 8
REMARK VINA RESULT:      -7.2      5.789      9.339
REMARK  Name = 
REMARK  14 active torsions:
REMARK  status: ('A' for Active; 'I' for Inactive)
REMARK    1  A    between atoms: C_1  and  C_2
REMARK    2  A    between atoms: C_7  and  C_8
REMARK    3  A    between atoms: C_8  and  O_9
REMARK    4  A    between atoms: C_8  and  C_29
REMARK    5  A    between atoms: O_9  and  C_10
REMARK    6  A    between atoms: C_10  and  C_11
REMARK    7  A    between atoms: C_11  and  O_12
REMARK    8  A    between atoms: C_11  and  C_13
REMARK    9  A    between atoms: C_13  and  N_14
REMARK   10  A    between atoms: N_14  and  C_15
REMARK   11  A    between atoms: C_15  and  C_16
REMARK   12  A    between atoms: C_15  and  C_17
REMARK   13  A    between atoms: C_15  and  C_18
REMARK   14  A    between atoms: C_18  and  C_19
REMARK                            x       y       z     vdW  Elec       q    Type
REMARK                         _______ _______ _______ _____ _____    ______ ____
ROOT
ATOM      1  C   UNL     1       1.551   6.600  21.122  0.00  0.00    +0.000 C 
ENDROOT
BRANCH   1   2
ATOM      2  N   UNL     1       1.770   7.934  20.556  0.00  0.00    +0.000 NA
ATOM      3  H   UNL     1       1.594   7.908  19.551  0.00  0.00    +0.000 HD
BRANCH   2   4
ATOM      4  C   UNL     1       0.989   9.005  21.220  0.00  0.00    +0.000 C 
ATOM      5  C   UNL     1      -0.470   8.520  21.391  0.00  0.00    +0.000 C 
ATOM      6  C   UNL     1       1.516   9.251  22.657  0.00  0.00    +0.000 C 
BRANCH   4   7
ATOM      7  C   UNL     1       1.025  10.366  20.445  0.00  0.00    +0.000 C 
BRANCH   7   8
ATOM      8  C   UNL     1      -0.160  10.834  19.616  0.00  0.00    +0.000 A 
ATOM      9  C   UNL     1      -0.993  11.817  20.173  0.00  0.00    +0.000 A 
ATOM     10  C   UNL     1      -2.221  12.129  19.588  0.00  0.00    +0.000 A 
ATOM     11  C   UNL     1      -2.654  11.456  18.440  0.00  0.00    +0.000 A 
ATOM     12  C   UNL     1      -3.952  11.616  17.934  0.00  0.00    +0.000 A 
ATOM     13  C   UNL     1      -4.368  10.920  16.801  0.00  0.00    +0.000 A 
ATOM     14  C   UNL     1      -3.472  10.103  16.116  0.00  0.00    +0.000 A 
ATOM     15  C   UNL     1      -2.172   9.939  16.603  0.00  0.00    +0.000 A 
ATOM     16  C   UNL     1      -1.770  10.568  17.790  0.00  0.00    +0.000 A 
ATOM     17  C   UNL     1      -0.514  10.297  18.377  0.00  0.00    +0.000 A 
ENDBRANCH   7   8
ENDBRANCH   4   7
ENDBRANCH   2   4
ENDBRANCH   1   2
BRANCH   1  18
ATOM     18  C   UNL     1       1.366   5.458  20.089  0.00  0.00    +0.000 C 
BRANCH  18  19
ATOM     19  O   UNL     1       1.196   4.218  20.785  0.00  0.00    +0.000 OA
ATOM     20  H   UNL     1       1.825   4.202  21.526  0.00  0.00    +0.000 HD
ENDBRANCH  18  19
BRANCH  18  21
ATOM     21  C   UNL     1       2.658   5.472  19.247  0.00  0.00    +0.000 C 
BRANCH  21  22
ATOM     22  O   UNL     1       3.836   4.921  19.844  0.00  0.00    +0.000 OA
BRANCH  22  23
ATOM     23  C   UNL     1       4.478   3.947  18.972  0.00  0.00    +0.000 C 
BRANCH  23  30
ATOM     24  C   UNL     1       7.086   5.574  19.340  0.00  0.00    +0.000 C 
ATOM     25  C   UNL     1       6.477   5.295  17.988  0.00  0.00    +0.000 A 
ATOM     26  C   UNL     1       7.211   5.734  16.863  0.00  0.00    +0.000 A 
ATOM     27  C   UNL     1       6.763   5.503  15.566  0.00  0.00    +0.000 A 
ATOM     28  C   UNL     1       5.556   4.854  15.375  0.00  0.00    +0.000 A 
ATOM     29  C   UNL     1       4.811   4.429  16.479  0.00  0.00    +0.000 A 
ATOM     30  C   UNL     1       5.241   4.618  17.811  0.00  0.00    +0.000 A 
ENDBRANCH  23  30
BRANCH  23  31
ATOM     31  C   UNL     1       3.410   2.945  18.526  0.00  0.00    +0.000 C 
ATOM     32  C   UNL     1       3.572   1.503  18.076  0.00  0.00    +0.000 C 
ATOM     33  C   UNL     1       3.134   1.775  19.472  0.00  0.00    +0.000 C 
ENDBRANCH  23  31
ENDBRANCH  22  23
ENDBRANCH  21  22
ENDBRANCH  18  21
ENDBRANCH   1  18
TORSDOF 11
ENDMDL
MODEL 9
REMARK VINA RESULT:      -7.2      4.728     10.733
REMARK  Name = 
REMARK  14 active torsions:
REMARK  status: ('A' for Active; 'I' for Inactive)
REMARK    1  A    between atoms: C_1  and  C_2
REMARK    2  A    between atoms: C_7  and  C_8
REMARK    3  A    between atoms: C_8  and  O_9
REMARK    4  A    between atoms: C_8  and  C_29
REMARK    5  A    between atoms: O_9  and  C_10
REMARK    6  A    between atoms: C_10  and  C_11
REMARK    7  A    between atoms: C_11  and  O_12
REMARK    8  A    between atoms: C_11  and  C_13
REMARK    9  A    between atoms: C_13  and  N_14
REMARK   10  A    between atoms: N_14  and  C_15
REMARK   11  A    between atoms: C_15  and  C_16
REMARK   12  A    between atoms: C_15  and  C_17
REMARK   13  A    between atoms: C_15  and  C_18
REMARK   14  A    between atoms: C_18  and  C_19
REMARK                            x       y       z     vdW  Elec       q    Type
REMARK                         _______ _______ _______ _____ _____    ______ ____
ROOT
ATOM      1  C   UNL     1       0.336   9.885  18.412  0.00  0.00    +0.000 C 
ENDROOT
BRANCH   1   2
ATOM      2  N   UNL     1      -0.244  11.126  18.930  0.00  0.00    +0.000 NA
ATOM      3  H   UNL     1      -1.142  11.296  18.476  0.00  0.00    +0.000 HD
BRANCH   2   4
ATOM      4  C   UNL     1      -0.362  11.163  20.407  0.00  0.00    +0.000 C 
ATOM      5  C   UNL     1      -1.745  11.748  20.778  0.00  0.00    +0.000 C 
ATOM      6  C   UNL     1      -0.347   9.728  20.991  0.00  0.00    +0.000 C 
BRANCH   4   7
ATOM      7  C   UNL     1       0.781  11.984  21.097  0.00  0.00    +0.000 C 
BRANCH   7   8
ATOM      8  C   UNL     1       1.272  13.298  20.513  0.00  0.00    +0.000 A 
ATOM      9  C   UNL     1       0.501  14.445  20.759  0.00  0.00    +0.000 A 
ATOM     10  C   UNL     1       0.747  15.635  20.072  0.00  0.00    +0.000 A 
ATOM     11  C   UNL     1       1.762  15.703  19.110  0.00  0.00    +0.000 A 
ATOM     12  C   UNL     1       1.917  16.822  18.278  0.00  0.00    +0.000 A 
ATOM     13  C   UNL     1       2.923  16.860  17.314  0.00  0.00    +0.000 A 
ATOM     14  C   UNL     1       3.830  15.808  17.210  0.00  0.00    +0.000 A 
ATOM     15  C   UNL     1       3.693  14.690  18.038  0.00  0.00    +0.000 A 
ATOM     16  C   UNL     1       2.635  14.605  18.952  0.00  0.00    +0.000 A 
ATOM     17  C   UNL     1       2.391  13.424  19.688  0.00  0.00    +0.000 A 
ENDBRANCH   7   8
ENDBRANCH   4   7
ENDBRANCH   2   4
ENDBRANCH   1   2
BRANCH   1  18
ATOM     18  C   UNL     1       1.882   9.873  18.279  0.00  0.00    +0.000 C 
BRANCH  18  19
ATOM     19  O   UNL     1       2.278  10.858  17.319  0.00  0.00    +0.000 OA
ATOM     20  H   UNL     1       2.848  10.425  16.662  0.00  0.00    +0.000 HD
ENDBRANCH  18  19
BRANCH  18  21
ATOM     21  C   UNL     1       2.229   8.444  17.814  0.00  0.00    +0.000 C 
BRANCH  21  22
ATOM     22  O   UNL     1       2.231   7.414  18.807  0.00  0.00    +0.000 OA
BRANCH  22  23
ATOM     23  C   UNL     1       2.745   6.157  18.280  0.00  0.00    +0.000 C 
BRANCH  23  30
ATOM     24  C   UNL     1       2.277   3.309  17.159  0.00  0.00    +0.000 C 
ATOM     25  C   UNL     1       2.199   3.634  18.630  0.00  0.00    +0.000 A 
ATOM     26  C   UNL     1       1.993   2.547  19.507  0.00  0.00    +0.000 A 
ATOM     27  C   UNL     1       1.936   2.723  20.886  0.00  0.00    +0.000 A 
ATOM     28  C   UNL     1       2.055   3.998  21.407  0.00  0.00    +0.000 A 
ATOM     29  C   UNL     1       2.243   5.087  20.552  0.00  0.00    +0.000 A 
ATOM     30  C   UNL     1       2.333   4.951  19.148  0.00  0.00    +0.000 A 
ENDBRANCH  23  30
BRANCH  23  31
ATOM     31  C   UNL     1       4.257   6.313  18.095  0.00  0.00    +0.000 C 
ATOM     32  C   UNL     1       5.307   5.249  17.823  0.00  0.00    +0.000 C 
ATOM     33  C   UNL     1       4.802   6.068  16.688  0.00  0.00    +0.000 C 
ENDBRANCH  23  31
ENDBRANCH  22  23
ENDBRANCH  21  22
ENDBRANCH  18  21
ENDBRANCH   1  18
TORSDOF 11
ENDMDL
