MODEL 1
REMARK VINA RESULT:      -7.2      0.000      0.000
REMARK  Name = 
REMARK  2 active torsions:
REMARK  status: ('A' for Active; 'I' for Inactive)
REMARK    1  A    between atoms: N_11  and  N_12
REMARK    2  A    between atoms: C_13  and  C_14
REMARK                            x       y       z     vdW  Elec       q    Type
REMARK                         _______ _______ _______ _____ _____    ______ ____
ROOT
ATOM      1  N   UNL     1      -0.209  12.518  21.397  0.00  0.00    +0.000 N 
ATOM      2  C   UNL     1       0.471  13.705  21.741  0.00  0.00    +0.000 A 
ATOM      3  N   UNL     1       0.057  14.485  22.702  0.00  0.00    +0.000 NA
ATOM      4  C   UNL     1      -1.130  14.166  23.369  0.00  0.00    +0.000 A 
ATOM      5  C   UNL     1      -1.637  15.052  24.315  0.00  0.00    +0.000 A 
ATOM      6  C   UNL     1      -2.891  14.833  24.894  0.00  0.00    +0.000 A 
ATOM      7  C   UNL     1      -3.632  13.695  24.577  0.00  0.00    +0.000 A 
ATOM      8  C   UNL     1      -3.121  12.784  23.664  0.00  0.00    +0.000 A 
ATOM      9  C   UNL     1      -1.899  13.059  23.047  0.00  0.00    +0.000 A 
ATOM     10  C   UNL     1      -1.490  12.284  21.891  0.00  0.00    +0.000 A 
ATOM     11  O   UNL     1      -2.329  11.554  21.354  0.00  0.00    +0.000 OA
ENDROOT
BRANCH   1  22
ATOM     12  O   UNL     1       0.491  10.082  23.145  0.00  0.00    +0.000 OA
ATOM     13  C   UNL     1       0.753   9.748  21.989  0.00  0.00    +0.000 C 
ATOM     14  N   UNL     1       1.379   8.587  21.709  0.00  0.00    +0.000 N 
ATOM     15  C   UNL     1       1.610   8.460  20.360  0.00  0.00    +0.000 A 
ATOM     16  C   UNL     1       2.255   7.410  19.766  0.00  0.00    +0.000 A 
ATOM     17  C   UNL     1       2.343   7.441  18.374  0.00  0.00    +0.000 A 
ATOM     18  C   UNL     1       1.804   8.514  17.632  0.00  0.00    +0.000 A 
ATOM     19  C   UNL     1       1.182   9.599  18.262  0.00  0.00    +0.000 A 
ATOM     20  C   UNL     1       1.102   9.547  19.637  0.00  0.00    +0.000 A 
ATOM     21  C   UNL     1       0.598  10.497  20.629  0.00  0.00    +0.000 C 
ATOM     22  N   UNL     1       0.252  11.726  20.358  0.00  0.00    +0.000 NA
ATOM     23  H   UNL     1       1.604   7.952  22.454  0.00  0.00    +0.000 HD
ENDBRANCH   1  22
BRANCH   2  24
ATOM     24  C   UNL     1       1.671  14.107  21.009  0.00  0.00    +0.000 A 
ATOM     25  C   UNL     1       2.998  13.806  21.261  0.00  0.00    +0.000 A 
ATOM     26  C   UNL     1       3.897  14.436  20.355  0.00  0.00    +0.000 A 
ATOM     27  C   UNL     1       3.230  15.171  19.403  0.00  0.00    +0.000 A 
ATOM     28  S   UNL     1       1.533  15.047  19.572  0.00  0.00    +0.000 S 
ENDBRANCH   2  24
TORSDOF 2
ENDMDL
MODEL 2
REMARK VINA RESULT:      -6.9      1.538      6.491
REMARK  Name = 
REMARK  2 active torsions:
REMARK  status: ('A' for Active; 'I' for Inactive)
REMARK    1  A    between atoms: N_11  and  N_12
REMARK    2  A    between atoms: C_13  and  C_14
REMARK                            x       y       z     vdW  Elec       q    Type
REMARK                         _______ _______ _______ _____ _____    ______ ____
ROOT
ATOM      1  N   UNL     1       0.522  11.836  20.885  0.00  0.00    +0.000 N 
ATOM      2  C   UNL     1       0.878  12.342  19.618  0.00  0.00    +0.000 A 
ATOM      3  N   UNL     1       1.294  11.566  18.655  0.00  0.00    +0.000 NA
ATOM      4  C   UNL     1       1.449  10.200  18.906  0.00  0.00    +0.000 A 
ATOM      5  C   UNL     1       1.999   9.385  17.921  0.00  0.00    +0.000 A 
ATOM      6  C   UNL     1       2.298   8.046  18.191  0.00  0.00    +0.000 A 
ATOM      7  C   UNL     1       2.001   7.487  19.433  0.00  0.00    +0.000 A 
ATOM      8  C   UNL     1       1.418   8.277  20.412  0.00  0.00    +0.000 A 
ATOM      9  C   UNL     1       1.191   9.628  20.143  0.00  0.00    +0.000 A 
ATOM     10  C   UNL     1       0.860  10.529  21.230  0.00  0.00    +0.000 A 
ATOM     11  O   UNL     1       1.003  10.122  22.387  0.00  0.00    +0.000 OA
ENDROOT
BRANCH   1  22
ATOM     12  O   UNL     1      -2.459  11.788  20.115  0.00  0.00    +0.000 OA
ATOM     13  C   UNL     1      -2.384  12.508  21.112  0.00  0.00    +0.000 C 
ATOM     14  N   UNL     1      -3.444  13.210  21.563  0.00  0.00    +0.000 N 
ATOM     15  C   UNL     1      -3.104  13.979  22.651  0.00  0.00    +0.000 A 
ATOM     16  C   UNL     1      -3.950  14.826  23.313  0.00  0.00    +0.000 A 
ATOM     17  C   UNL     1      -3.427  15.479  24.429  0.00  0.00    +0.000 A 
ATOM     18  C   UNL     1      -2.090  15.278  24.833  0.00  0.00    +0.000 A 
ATOM     19  C   UNL     1      -1.229  14.437  24.119  0.00  0.00    +0.000 A 
ATOM     20  C   UNL     1      -1.765  13.798  23.022  0.00  0.00    +0.000 A 
ATOM     21  C   UNL     1      -1.178  12.917  22.013  0.00  0.00    +0.000 C 
ATOM     22  N   UNL     1       0.102  12.695  21.888  0.00  0.00    +0.000 NA
ATOM     23  H   UNL     1      -4.332  13.118  21.104  0.00  0.00    +0.000 HD
ENDBRANCH   1  22
BRANCH   2  24
ATOM     24  C   UNL     1       0.803  13.778  19.349  0.00  0.00    +0.000 A 
ATOM     25  C   UNL     1      -0.245  14.524  18.839  0.00  0.00    +0.000 A 
ATOM     26  C   UNL     1       0.082  15.898  18.660  0.00  0.00    +0.000 A 
ATOM     27  C   UNL     1       1.362  16.177  19.079  0.00  0.00    +0.000 A 
ATOM     28  S   UNL     1       2.133  14.801  19.738  0.00  0.00    +0.000 S 
ENDBRANCH   2  24
TORSDOF 2
ENDMDL
MODEL 3
REMARK VINA RESULT:      -6.9      3.404      4.987
REMARK  Name = 
REMARK  2 active torsions:
REMARK  status: ('A' for Active; 'I' for Inactive)
REMARK    1  A    between atoms: N_11  and  N_12
REMARK    2  A    between atoms: C_13  and  C_14
REMARK                            x       y       z     vdW  Elec       q    Type
REMARK                         _______ _______ _______ _____ _____    ______ ____
ROOT
ATOM      1  N   UNL     1       0.474  11.994  19.625  0.00  0.00    +0.000 N 
ATOM      2  C   UNL     1      -0.573  12.407  18.774  0.00  0.00    +0.000 A 
ATOM      3  N   UNL     1      -0.688  13.642  18.369  0.00  0.00    +0.000 NA
ATOM      4  C   UNL     1       0.217  14.597  18.842  0.00  0.00    +0.000 A 
ATOM      5  C   UNL     1       0.031  15.935  18.506  0.00  0.00    +0.000 A 
ATOM      6  C   UNL     1       0.832  16.929  19.077  0.00  0.00    +0.000 A 
ATOM      7  C   UNL     1       1.866  16.595  19.952  0.00  0.00    +0.000 A 
ATOM      8  C   UNL     1       2.086  15.262  20.266  0.00  0.00    +0.000 A 
ATOM      9  C   UNL     1       1.231  14.293  19.738  0.00  0.00    +0.000 A 
ATOM     10  C   UNL     1       1.256  12.946  20.274  0.00  0.00    +0.000 A 
ATOM     11  O   UNL     1       1.874  12.750  21.325  0.00  0.00    +0.000 OA
ENDROOT
BRANCH   1  22
ATOM     12  O   UNL     1       2.383  11.060  17.398  0.00  0.00    +0.000 OA
ATOM     13  C   UNL     1       2.195  10.073  18.110  0.00  0.00    +0.000 C 
ATOM     14  N   UNL     1       2.652   8.851  17.767  0.00  0.00    +0.000 N 
ATOM     15  C   UNL     1       2.272   7.903  18.687  0.00  0.00    +0.000 A 
ATOM     16  C   UNL     1       2.554   6.567  18.603  0.00  0.00    +0.000 A 
ATOM     17  C   UNL     1       2.126   5.774  19.668  0.00  0.00    +0.000 A 
ATOM     18  C   UNL     1       1.427   6.332  20.760  0.00  0.00    +0.000 A 
ATOM     19  C   UNL     1       1.114   7.695  20.808  0.00  0.00    +0.000 A 
ATOM     20  C   UNL     1       1.549   8.463  19.748  0.00  0.00    +0.000 A 
ATOM     21  C   UNL     1       1.364   9.875  19.415  0.00  0.00    +0.000 C 
ATOM     22  N   UNL     1       0.551  10.677  20.048  0.00  0.00    +0.000 NA
ATOM     23  H   UNL     1       3.197   8.742  16.931  0.00  0.00    +0.000 HD
ENDBRANCH   1  22
BRANCH   2  24
ATOM     24  C   UNL     1      -1.582  11.448  18.325  0.00  0.00    +0.000 A 
ATOM     25  C   UNL     1      -1.430  10.303  17.563  0.00  0.00    +0.000 A 
ATOM     26  C   UNL     1      -2.665   9.655  17.276  0.00  0.00    +0.000 A 
ATOM     27  C   UNL     1      -3.728  10.298  17.865  0.00  0.00    +0.000 A 
ATOM     28  S   UNL     1      -3.226  11.636  18.803  0.00  0.00    +0.000 S 
ENDBRANCH   2  24
TORSDOF 2
ENDMDL
MODEL 4
REMARK VINA RESULT:      -6.8      3.602      5.775
REMARK  Name = 
REMARK  2 active torsions:
REMARK  status: ('A' for Active; 'I' for Inactive)
REMARK    1  A    between atoms: N_11  and  N_12
REMARK    2  A    between atoms: C_13  and  C_14
REMARK                            x       y       z     vdW  Elec       q    Type
REMARK                         _______ _______ _______ _____ _____    ______ ____
ROOT
ATOM      1  N   UNL     1      -2.740  14.127  22.439  0.00  0.00    +0.000 N 
ATOM      2  C   UNL     1      -1.660  13.542  23.133  0.00  0.00    +0.000 A 
ATOM      3  N   UNL     1      -1.141  14.094  24.195  0.00  0.00    +0.000 NA
ATOM      4  C   UNL     1      -1.627  15.334  24.620  0.00  0.00    +0.000 A 
ATOM      5  C   UNL     1      -1.002  15.982  25.681  0.00  0.00    +0.000 A 
ATOM      6  C   UNL     1      -1.372  17.283  26.037  0.00  0.00    +0.000 A 
ATOM      7  C   UNL     1      -2.411  17.934  25.372  0.00  0.00    +0.000 A 
ATOM      8  C   UNL     1      -3.068  17.285  24.337  0.00  0.00    +0.000 A 
ATOM      9  C   UNL     1      -2.635  16.014  23.954  0.00  0.00    +0.000 A 
ATOM     10  C   UNL     1      -3.104  15.445  22.705  0.00  0.00    +0.000 A 
ATOM     11  O   UNL     1      -3.695  16.185  21.914  0.00  0.00    +0.000 OA
ENDROOT
BRANCH   1  22
ATOM     12  O   UNL     1      -5.399  13.257  23.722  0.00  0.00    +0.000 OA
ATOM     13  C   UNL     1      -5.462  12.892  22.548  0.00  0.00    +0.000 C 
ATOM     14  N   UNL     1      -6.473  12.122  22.096  0.00  0.00    +0.000 N 
ATOM     15  C   UNL     1      -6.297  11.798  20.772  0.00  0.00    +0.000 A 
ATOM     16  C   UNL     1      -7.133  11.004  20.036  0.00  0.00    +0.000 A 
ATOM     17  C   UNL     1      -6.809  10.839  18.689  0.00  0.00    +0.000 A 
ATOM     18  C   UNL     1      -5.666  11.452  18.133  0.00  0.00    +0.000 A 
ATOM     19  C   UNL     1      -4.801  12.229  18.912  0.00  0.00    +0.000 A 
ATOM     20  C   UNL     1      -5.141  12.384  20.238  0.00  0.00    +0.000 A 
ATOM     21  C   UNL     1      -4.470  13.050  21.354  0.00  0.00    +0.000 C 
ATOM     22  N   UNL     1      -3.252  13.518  21.304  0.00  0.00    +0.000 NA
ATOM     23  H   UNL     1      -7.220  11.869  22.716  0.00  0.00    +0.000 HD
ENDBRANCH   1  22
BRANCH   2  24
ATOM     24  C   UNL     1      -1.077  12.284  22.667  0.00  0.00    +0.000 A 
ATOM     25  C   UNL     1      -1.315  10.990  23.097  0.00  0.00    +0.000 A 
ATOM     26  C   UNL     1      -0.503  10.024  22.438  0.00  0.00    +0.000 A 
ATOM     27  C   UNL     1       0.305  10.600  21.486  0.00  0.00    +0.000 A 
ATOM     28  S   UNL     1       0.037  12.283  21.354  0.00  0.00    +0.000 S 
ENDBRANCH   2  24
TORSDOF 2
ENDMDL
MODEL 5
REMARK VINA RESULT:      -6.7      1.844      1.963
REMARK  Name = 
REMARK  2 active torsions:
REMARK  status: ('A' for Active; 'I' for Inactive)
REMARK    1  A    between atoms: N_11  and  N_12
REMARK    2  A    between atoms: C_13  and  C_14
REMARK                            x       y       z     vdW  Elec       q    Type
REMARK                         _______ _______ _______ _____ _____    ______ ____
ROOT
ATOM      1  N   UNL     1      -0.924  12.463  19.779  0.00  0.00    +0.000 N 
ATOM      2  C   UNL     1      -0.388  13.646  20.331  0.00  0.00    +0.000 A 
ATOM      3  N   UNL     1      -1.133  14.515  20.957  0.00  0.00    +0.000 NA
ATOM      4  C   UNL     1      -2.512  14.298  21.029  0.00  0.00    +0.000 A 
ATOM      5  C   UNL     1      -3.325  15.276  21.593  0.00  0.00    +0.000 A 
ATOM      6  C   UNL     1      -4.718  15.154  21.552  0.00  0.00    +0.000 A 
ATOM      7  C   UNL     1      -5.317  14.025  20.993  0.00  0.00    +0.000 A 
ATOM      8  C   UNL     1      -4.517  13.025  20.461  0.00  0.00    +0.000 A 
ATOM      9  C   UNL     1      -3.132  13.201  20.451  0.00  0.00    +0.000 A 
ATOM     10  C   UNL     1      -2.304  12.320  19.650  0.00  0.00    +0.000 A 
ATOM     11  O   UNL     1      -2.861  11.584  18.830  0.00  0.00    +0.000 OA
ENDROOT
BRANCH   1  22
ATOM     12  O   UNL     1      -0.741  10.411  22.067  0.00  0.00    +0.000 OA
ATOM     13  C   UNL     1      -0.090   9.932  21.138  0.00  0.00    +0.000 C 
ATOM     14  N   UNL     1       0.647   8.812  21.289  0.00  0.00    +0.000 N 
ATOM     15  C   UNL     1       1.326   8.505  20.134  0.00  0.00    +0.000 A 
ATOM     16  C   UNL     1       2.181   7.449  19.980  0.00  0.00    +0.000 A 
ATOM     17  C   UNL     1       2.732   7.274  18.710  0.00  0.00    +0.000 A 
ATOM     18  C   UNL     1       2.425   8.159  17.654  0.00  0.00    +0.000 A 
ATOM     19  C   UNL     1       1.578   9.257  17.842  0.00  0.00    +0.000 A 
ATOM     20  C   UNL     1       1.041   9.410  19.103  0.00  0.00    +0.000 A 
ATOM     21  C   UNL     1       0.189  10.443  19.690  0.00  0.00    +0.000 C 
ATOM     22  N   UNL     1      -0.103  11.572  19.106  0.00  0.00    +0.000 NA
ATOM     23  H   UNL     1       0.638   8.327  22.168  0.00  0.00    +0.000 HD
ENDBRANCH   1  22
BRANCH   2  24
ATOM     24  C   UNL     1       1.038  13.940  20.203  0.00  0.00    +0.000 A 
ATOM     25  C   UNL     1       2.094  13.545  21.006  0.00  0.00    +0.000 A 
ATOM     26  C   UNL     1       3.344  14.085  20.592  0.00  0.00    +0.000 A 
ATOM     27  C   UNL     1       3.220  14.847  19.454  0.00  0.00    +0.000 A 
ATOM     28  S   UNL     1       1.616  14.855  18.863  0.00  0.00    +0.000 S 
ENDBRANCH   2  24
TORSDOF 2
ENDMDL
MODEL 6
REMARK VINA RESULT:      -6.7      2.941      6.073
REMARK  Name = 
REMARK  2 active torsions:
REMARK  status: ('A' for Active; 'I' for Inactive)
REMARK    1  A    between atoms: N_11  and  N_12
REMARK    2  A    between atoms: C_13  and  C_14
REMARK                            x       y       z     vdW  Elec       q    Type
REMARK                         _______ _______ _______ _____ _____    ______ ____
ROOT
ATOM      1  N   UNL     1      -0.630  13.468  20.756  0.00  0.00    +0.000 N 
ATOM      2  C   UNL     1      -0.734  13.564  22.160  0.00  0.00    +0.000 A 
ATOM      3  N   UNL     1      -0.621  12.520  22.934  0.00  0.00    +0.000 NA
ATOM      4  C   UNL     1      -0.453  11.261  22.352  0.00  0.00    +0.000 A 
ATOM      5  C   UNL     1      -0.447  10.131  23.165  0.00  0.00    +0.000 A 
ATOM      6  C   UNL     1      -0.424   8.850  22.603  0.00  0.00    +0.000 A 
ATOM      7  C   UNL     1      -0.351   8.681  21.220  0.00  0.00    +0.000 A 
ATOM      8  C   UNL     1      -0.319   9.799  20.400  0.00  0.00    +0.000 A 
ATOM      9  C   UNL     1      -0.412  11.066  20.980  0.00  0.00    +0.000 A 
ATOM     10  C   UNL     1      -0.673  12.220  20.141  0.00  0.00    +0.000 A 
ATOM     11  O   UNL     1      -1.021  12.023  18.973  0.00  0.00    +0.000 OA
ENDROOT
BRANCH   1  22
ATOM     12  O   UNL     1       2.361  13.774  20.094  0.00  0.00    +0.000 OA
ATOM     13  C   UNL     1       1.792  14.680  19.485  0.00  0.00    +0.000 C 
ATOM     14  N   UNL     1       2.480  15.645  18.840  0.00  0.00    +0.000 N 
ATOM     15  C   UNL     1       1.631  16.573  18.284  0.00  0.00    +0.000 A 
ATOM     16  C   UNL     1       2.023  17.687  17.595  0.00  0.00    +0.000 A 
ATOM     17  C   UNL     1       1.006  18.478  17.061  0.00  0.00    +0.000 A 
ATOM     18  C   UNL     1      -0.352  18.143  17.244  0.00  0.00    +0.000 A 
ATOM     19  C   UNL     1      -0.734  17.019  17.986  0.00  0.00    +0.000 A 
ATOM     20  C   UNL     1       0.285  16.248  18.502  0.00  0.00    +0.000 A 
ATOM     21  C   UNL     1       0.285  15.066  19.364  0.00  0.00    +0.000 C 
ATOM     22  N   UNL     1      -0.774  14.598  19.966  0.00  0.00    +0.000 NA
ATOM     23  H   UNL     1       3.482  15.608  18.816  0.00  0.00    +0.000 HD
ENDBRANCH   1  22
BRANCH   2  24
ATOM     24  C   UNL     1      -0.990  14.857  22.794  0.00  0.00    +0.000 A 
ATOM     25  C   UNL     1      -0.109  15.883  23.086  0.00  0.00    +0.000 A 
ATOM     26  C   UNL     1      -0.724  16.971  23.769  0.00  0.00    +0.000 A 
ATOM     27  C   UNL     1      -2.073  16.767  23.944  0.00  0.00    +0.000 A 
ATOM     28  S   UNL     1      -2.595  15.302  23.234  0.00  0.00    +0.000 S 
ENDBRANCH   2  24
TORSDOF 2
ENDMDL
MODEL 7
REMARK VINA RESULT:      -6.6      2.818      6.265
REMARK  Name = 
REMARK  2 active torsions:
REMARK  status: ('A' for Active; 'I' for Inactive)
REMARK    1  A    between atoms: N_11  and  N_12
REMARK    2  A    between atoms: C_13  and  C_14
REMARK                            x       y       z     vdW  Elec       q    Type
REMARK                         _______ _______ _______ _____ _____    ______ ____
ROOT
ATOM      1  N   UNL     1      -0.220  13.230  20.168  0.00  0.00    +0.000 N 
ATOM      2  C   UNL     1       0.662  12.420  20.915  0.00  0.00    +0.000 A 
ATOM      3  N   UNL     1       1.873  12.806  21.210  0.00  0.00    +0.000 NA
ATOM      4  C   UNL     1       2.331  14.032  20.718  0.00  0.00    +0.000 A 
ATOM      5  C   UNL     1       3.657  14.397  20.932  0.00  0.00    +0.000 A 
ATOM      6  C   UNL     1       4.183  15.547  20.333  0.00  0.00    +0.000 A 
ATOM      7  C   UNL     1       3.376  16.378  19.556  0.00  0.00    +0.000 A 
ATOM      8  C   UNL     1       2.043  16.045  19.367  0.00  0.00    +0.000 A 
ATOM      9  C   UNL     1       1.557  14.857  19.917  0.00  0.00    +0.000 A 
ATOM     10  C   UNL     1       0.267  14.348  19.494  0.00  0.00    +0.000 A 
ATOM     11  O   UNL     1      -0.264  14.859  18.504  0.00  0.00    +0.000 OA
ENDROOT
BRANCH   1  22
ATOM     12  O   UNL     1      -1.600  14.470  22.625  0.00  0.00    +0.000 OA
ATOM     13  C   UNL     1      -2.496  13.926  21.980  0.00  0.00    +0.000 C 
ATOM     14  N   UNL     1      -3.753  13.820  22.458  0.00  0.00    +0.000 N 
ATOM     15  C   UNL     1      -4.560  13.128  21.586  0.00  0.00    +0.000 A 
ATOM     16  C   UNL     1      -5.877  12.827  21.801  0.00  0.00    +0.000 A 
ATOM     17  C   UNL     1      -6.539  12.163  20.768  0.00  0.00    +0.000 A 
ATOM     18  C   UNL     1      -5.868  11.812  19.577  0.00  0.00    +0.000 A 
ATOM     19  C   UNL     1      -4.509  12.094  19.393  0.00  0.00    +0.000 A 
ATOM     20  C   UNL     1      -3.874  12.754  20.423  0.00  0.00    +0.000 A 
ATOM     21  C   UNL     1      -2.481  13.153  20.625  0.00  0.00    +0.000 C 
ATOM     22  N   UNL     1      -1.493  12.777  19.860  0.00  0.00    +0.000 NA
ATOM     23  H   UNL     1      -3.983  14.229  23.346  0.00  0.00    +0.000 HD
ENDBRANCH   1  22
BRANCH   2  24
ATOM     24  C   UNL     1       0.239  11.099  21.376  0.00  0.00    +0.000 A 
ATOM     25  C   UNL     1      -0.383  10.735  22.557  0.00  0.00    +0.000 A 
ATOM     26  C   UNL     1      -0.584   9.331  22.675  0.00  0.00    +0.000 A 
ATOM     27  C   UNL     1      -0.149   8.658  21.558  0.00  0.00    +0.000 A 
ATOM     28  S   UNL     1       0.439   9.723  20.358  0.00  0.00    +0.000 S 
ENDBRANCH   2  24
TORSDOF 2
ENDMDL
MODEL 8
REMARK VINA RESULT:      -6.5      2.528      6.607
REMARK  Name = 
REMARK  2 active torsions:
REMARK  status: ('A' for Active; 'I' for Inactive)
REMARK    1  A    between atoms: N_11  and  N_12
REMARK    2  A    between atoms: C_13  and  C_14
REMARK                            x       y       z     vdW  Elec       q    Type
REMARK                         _______ _______ _______ _____ _____    ______ ____
ROOT
ATOM      1  N   UNL     1       0.079  13.755  19.867  0.00  0.00    +0.000 N 
ATOM      2  C   UNL     1       1.067  12.748  19.856  0.00  0.00    +0.000 A 
ATOM      3  N   UNL     1       2.274  12.970  19.414  0.00  0.00    +0.000 NA
ATOM      4  C   UNL     1       2.579  14.224  18.878  0.00  0.00    +0.000 A 
ATOM      5  C   UNL     1       3.828  14.431  18.300  0.00  0.00    +0.000 A 
ATOM      6  C   UNL     1       4.113  15.626  17.631  0.00  0.00    +0.000 A 
ATOM      7  C   UNL     1       3.170  16.653  17.576  0.00  0.00    +0.000 A 
ATOM      8  C   UNL     1       1.935  16.474  18.180  0.00  0.00    +0.000 A 
ATOM      9  C   UNL     1       1.649  15.247  18.782  0.00  0.00    +0.000 A 
ATOM     10  C   UNL     1       0.283  14.935  19.157  0.00  0.00    +0.000 A 
ATOM     11  O   UNL     1      -0.618  15.667  18.734  0.00  0.00    +0.000 OA
ENDROOT
BRANCH   1  22
ATOM     12  O   UNL     1       0.561  14.734  22.745  0.00  0.00    +0.000 OA
ATOM     13  C   UNL     1      -0.618  14.380  22.708  0.00  0.00    +0.000 C 
ATOM     14  N   UNL     1      -1.378  14.322  23.821  0.00  0.00    +0.000 N 
ATOM     15  C   UNL     1      -2.637  13.848  23.537  0.00  0.00    +0.000 A 
ATOM     16  C   UNL     1      -3.629  13.644  24.457  0.00  0.00    +0.000 A 
ATOM     17  C   UNL     1      -4.858  13.208  23.962  0.00  0.00    +0.000 A 
ATOM     18  C   UNL     1      -5.049  12.979  22.582  0.00  0.00    +0.000 A 
ATOM     19  C   UNL     1      -4.010  13.157  21.661  0.00  0.00    +0.000 A 
ATOM     20  C   UNL     1      -2.805  13.591  22.170  0.00  0.00    +0.000 A 
ATOM     21  C   UNL     1      -1.501  13.822  21.549  0.00  0.00    +0.000 C 
ATOM     22  N   UNL     1      -1.198  13.475  20.328  0.00  0.00    +0.000 NA
ATOM     23  H   UNL     1      -0.994  14.612  24.701  0.00  0.00    +0.000 HD
ENDBRANCH   1  22
BRANCH   2  24
ATOM     24  C   UNL     1       0.755  11.402  20.336  0.00  0.00    +0.000 A 
ATOM     25  C   UNL     1       0.680  10.926  21.633  0.00  0.00    +0.000 A 
ATOM     26  C   UNL     1       0.409   9.530  21.702  0.00  0.00    +0.000 A 
ATOM     27  C   UNL     1       0.239   8.981  20.453  0.00  0.00    +0.000 A 
ATOM     28  S   UNL     1       0.348  10.158  19.218  0.00  0.00    +0.000 S 
ENDBRANCH   2  24
TORSDOF 2
ENDMDL
MODEL 9
REMARK VINA RESULT:      -6.4      2.337      2.546
REMARK  Name = 
REMARK  2 active torsions:
REMARK  status: ('A' for Active; 'I' for Inactive)
REMARK    1  A    between atoms: N_11  and  N_12
REMARK    2  A    between atoms: C_13  and  C_14
REMARK                            x       y       z     vdW  Elec       q    Type
REMARK                         _______ _______ _______ _____ _____    ______ ____
ROOT
ATOM      1  N   UNL     1      -2.038  12.875  19.982  0.00  0.00    +0.000 N 
ATOM      2  C   UNL     1      -1.553  14.114  20.451  0.00  0.00    +0.000 A 
ATOM      3  N   UNL     1      -2.318  14.963  21.080  0.00  0.00    +0.000 NA
ATOM      4  C   UNL     1      -3.674  14.662  21.240  0.00  0.00    +0.000 A 
ATOM      5  C   UNL     1      -4.518  15.611  21.808  0.00  0.00    +0.000 A 
ATOM      6  C   UNL     1      -5.900  15.398  21.852  0.00  0.00    +0.000 A 
ATOM      7  C   UNL     1      -6.452  14.208  21.378  0.00  0.00    +0.000 A 
ATOM      8  C   UNL     1      -5.618  13.238  20.844  0.00  0.00    +0.000 A 
ATOM      9  C   UNL     1      -4.250  13.501  20.747  0.00  0.00    +0.000 A 
ATOM     10  C   UNL     1      -3.410  12.639  19.938  0.00  0.00    +0.000 A 
ATOM     11  O   UNL     1      -3.961  11.831  19.185  0.00  0.00    +0.000 OA
ENDROOT
BRANCH   1  22
ATOM     12  O   UNL     1      -1.281  11.177  22.436  0.00  0.00    +0.000 OA
ATOM     13  C   UNL     1      -0.697  10.662  21.483  0.00  0.00    +0.000 C 
ATOM     14  N   UNL     1       0.200   9.668  21.651  0.00  0.00    +0.000 N 
ATOM     15  C   UNL     1       0.758   9.295  20.452  0.00  0.00    +0.000 A 
ATOM     16  C   UNL     1       1.723   8.338  20.295  0.00  0.00    +0.000 A 
ATOM     17  C   UNL     1       2.122   8.065  18.987  0.00  0.00    +0.000 A 
ATOM     18  C   UNL     1       1.563   8.760  17.893  0.00  0.00    +0.000 A 
ATOM     19  C   UNL     1       0.605   9.765  18.077  0.00  0.00    +0.000 A 
ATOM     20  C   UNL     1       0.221  10.016  19.377  0.00  0.00    +0.000 A 
ATOM     21  C   UNL     1      -0.681  11.008  19.962  0.00  0.00    +0.000 C 
ATOM     22  N   UNL     1      -1.198  12.008  19.301  0.00  0.00    +0.000 NA
ATOM     23  H   UNL     1       0.371   9.305  22.571  0.00  0.00    +0.000 HD
ENDBRANCH   1  22
BRANCH   2  24
ATOM     24  C   UNL     1      -0.158  14.492  20.229  0.00  0.00    +0.000 A 
ATOM     25  C   UNL     1       0.417  15.144  19.152  0.00  0.00    +0.000 A 
ATOM     26  C   UNL     1       1.829  15.283  19.270  0.00  0.00    +0.000 A 
ATOM     27  C   UNL     1       2.294  14.770  20.458  0.00  0.00    +0.000 A 
ATOM     28  S   UNL     1       1.025  14.185  21.442  0.00  0.00    +0.000 S 
ENDBRANCH   2  24
TORSDOF 2
ENDMDL
