MODEL 1
REMARK VINA RESULT:      -7.6      0.000      0.000
REMARK  Name = 
REMARK  6 active torsions:
REMARK  status: ('A' for Active; 'I' for Inactive)
REMARK    1  A    between atoms: C_1  and  C_2
REMARK    2  A    between atoms: C_4  and  N_5
REMARK    3  A    between atoms: N_5  and  C_6
REMARK    4  A    between atoms: N_5  and  C_7
REMARK    5  A    between atoms: N_10  and  C_11
REMARK    6  A    between atoms: C_23  and  N_24
REMARK                            x       y       z     vdW  Elec       q    Type
REMARK                         _______ _______ _______ _____ _____    ______ ____
ROOT
ATOM      1  C   UNL     1       2.249   6.727  18.495  0.00  0.00    +0.000 C 
ATOM      2  C   UNL     1       1.875   5.362  17.914  0.00  0.00    +0.000 C 
ATOM      3  C   UNL     1       3.131   4.505  18.017  0.00  0.00    +0.000 C 
ATOM      4  N   UNL     1       4.234   5.451  18.092  0.00  0.00    +0.000 N 
ATOM      5  C   UNL     1       3.779   6.821  18.296  0.00  0.00    +0.000 C 
ENDROOT
BRANCH   4   6
ATOM      6  C   UNL     1       5.496   5.085  17.684  0.00  0.00    +0.000 A 
ATOM      7  N   UNL     1       6.437   4.851  18.646  0.00  0.00    +0.000 NA
ATOM      8  C   UNL     1       7.687   4.498  18.294  0.00  0.00    +0.000 A 
ATOM      9  N   UNL     1       8.189   4.358  17.059  0.00  0.00    +0.000 NA
ATOM     10  C   UNL     1       7.256   4.605  16.133  0.00  0.00    +0.000 A 
ATOM     11  N   UNL     1       7.494   4.559  14.786  0.00  0.00    +0.000 N 
ATOM     12  C   UNL     1       6.346   4.851  14.103  0.00  0.00    +0.000 A 
ATOM     13  C   UNL     1       5.359   5.090  15.035  0.00  0.00    +0.000 A 
ATOM     14  C   UNL     1       5.923   4.952  16.339  0.00  0.00    +0.000 A 
ATOM     15  H   UNL     1       8.395   4.345  14.385  0.00  0.00    +0.000 HD
ENDBRANCH   4   6
BRANCH   1  16
ATOM     16  N   UNL     1       1.808   6.888  19.909  0.00  0.00    +0.000 N 
ATOM     17  C   UNL     1       1.990   5.763  20.820  0.00  0.00    +0.000 C 
BRANCH  16  21
ATOM     18  C   UNL     1      -0.308   9.835  23.293  0.00  0.00    +0.000 C 
ATOM     19  C   UNL     1       0.271   9.664  21.915  0.00  0.00    +0.000 A 
ATOM     20  C   UNL     1       0.770   8.387  21.555  0.00  0.00    +0.000 A 
ATOM     21  C   UNL     1       1.326   8.128  20.298  0.00  0.00    +0.000 A 
ATOM     22  N   UNL     1       1.380   9.138  19.403  0.00  0.00    +0.000 NA
ATOM     23  C   UNL     1       0.898  10.366  19.728  0.00  0.00    +0.000 A 
ATOM     24  C   UNL     1       0.344  10.679  20.957  0.00  0.00    +0.000 A 
BRANCH  24  25
ATOM     25  N   UNL     1      -0.128  12.050  21.162  0.00  0.00    +0.000 N 
ATOM     26  O   UNL     1       0.610  12.858  21.739  0.00  0.00    +0.000 OA
ATOM     27  O   UNL     1      -1.256  12.337  20.735  0.00  0.00    +0.000 OA
ENDBRANCH  24  25
ENDBRANCH  16  21
ENDBRANCH   1  16
TORSDOF 4
ENDMDL
MODEL 2
REMARK VINA RESULT:      -7.6      4.557      9.002
REMARK  Name = 
REMARK  6 active torsions:
REMARK  status: ('A' for Active; 'I' for Inactive)
REMARK    1  A    between atoms: C_1  and  C_2
REMARK    2  A    between atoms: C_4  and  N_5
REMARK    3  A    between atoms: N_5  and  C_6
REMARK    4  A    between atoms: N_5  and  C_7
REMARK    5  A    between atoms: N_10  and  C_11
REMARK    6  A    between atoms: C_23  and  N_24
REMARK                            x       y       z     vdW  Elec       q    Type
REMARK                         _______ _______ _______ _____ _____    ______ ____
ROOT
ATOM      1  C   UNL     1       1.150   9.790  18.657  0.00  0.00    +0.000 C 
ATOM      2  C   UNL     1       1.145  11.202  19.246  0.00  0.00    +0.000 C 
ATOM      3  C   UNL     1      -0.319  11.547  19.492  0.00  0.00    +0.000 C 
ATOM      4  N   UNL     1      -1.071  10.680  18.598  0.00  0.00    +0.000 N 
ATOM      5  C   UNL     1      -0.239   9.647  17.993  0.00  0.00    +0.000 C 
ENDROOT
BRANCH   4   6
ATOM      6  C   UNL     1      -2.326  11.043  18.166  0.00  0.00    +0.000 A 
ATOM      7  N   UNL     1      -3.137  11.704  19.042  0.00  0.00    +0.000 NA
ATOM      8  C   UNL     1      -4.376  12.073  18.666  0.00  0.00    +0.000 A 
ATOM      9  N   UNL     1      -4.984  11.851  17.492  0.00  0.00    +0.000 NA
ATOM     10  C   UNL     1      -4.177  11.189  16.655  0.00  0.00    +0.000 A 
ATOM     11  N   UNL     1      -4.544  10.807  15.392  0.00  0.00    +0.000 N 
ATOM     12  C   UNL     1      -3.505  10.159  14.784  0.00  0.00    +0.000 A 
ATOM     13  C   UNL     1      -2.457  10.126  15.679  0.00  0.00    +0.000 A 
ATOM     14  C   UNL     1      -2.871  10.767  16.887  0.00  0.00    +0.000 A 
ATOM     15  H   UNL     1      -5.456  10.986  14.998  0.00  0.00    +0.000 HD
ENDBRANCH   4   6
BRANCH   1  16
ATOM     16  N   UNL     1       1.447   8.745  19.677  0.00  0.00    +0.000 N 
ATOM     17  C   UNL     1       0.817   8.862  20.987  0.00  0.00    +0.000 C 
BRANCH  16  21
ATOM     18  C   UNL     1       4.686   6.673  16.542  0.00  0.00    +0.000 C 
ATOM     19  C   UNL     1       3.844   6.563  17.783  0.00  0.00    +0.000 A 
ATOM     20  C   UNL     1       3.057   7.681  18.157  0.00  0.00    +0.000 A 
ATOM     21  C   UNL     1       2.240   7.675  19.293  0.00  0.00    +0.000 A 
ATOM     22  N   UNL     1       2.207   6.556  20.049  0.00  0.00    +0.000 NA
ATOM     23  C   UNL     1       2.949   5.473  19.701  0.00  0.00    +0.000 A 
ATOM     24  C   UNL     1       3.777   5.426  18.593  0.00  0.00    +0.000 A 
BRANCH  24  25
ATOM     25  N   UNL     1       4.519   4.188  18.350  0.00  0.00    +0.000 N 
ATOM     26  O   UNL     1       4.033   3.335  17.597  0.00  0.00    +0.000 OA
ATOM     27  O   UNL     1       5.616   4.057  18.915  0.00  0.00    +0.000 OA
ENDBRANCH  24  25
ENDBRANCH  16  21
ENDBRANCH   1  16
TORSDOF 4
ENDMDL
MODEL 3
REMARK VINA RESULT:      -7.5      3.632      7.645
REMARK  Name = 
REMARK  6 active torsions:
REMARK  status: ('A' for Active; 'I' for Inactive)
REMARK    1  A    between atoms: C_1  and  C_2
REMARK    2  A    between atoms: C_4  and  N_5
REMARK    3  A    between atoms: N_5  and  C_6
REMARK    4  A    between atoms: N_5  and  C_7
REMARK    5  A    between atoms: N_10  and  C_11
REMARK    6  A    between atoms: C_23  and  N_24
REMARK                            x       y       z     vdW  Elec       q    Type
REMARK                         _______ _______ _______ _____ _____    ______ ____
ROOT
ATOM      1  C   UNL     1       3.241   3.578  20.344  0.00  0.00    +0.000 C 
ATOM      2  C   UNL     1       1.780   3.308  20.709  0.00  0.00    +0.000 C 
ATOM      3  C   UNL     1       1.001   4.536  20.252  0.00  0.00    +0.000 C 
ATOM      4  N   UNL     1       1.983   5.608  20.185  0.00  0.00    +0.000 N 
ATOM      5  C   UNL     1       3.350   5.119  20.316  0.00  0.00    +0.000 C 
ENDROOT
BRANCH   4   6
ATOM      6  C   UNL     1       1.592   6.921  20.316  0.00  0.00    +0.000 A 
ATOM      7  N   UNL     1       0.946   7.285  21.461  0.00  0.00    +0.000 NA
ATOM      8  C   UNL     1       0.539   8.557  21.630  0.00  0.00    +0.000 A 
ATOM      9  N   UNL     1       0.657   9.582  20.775  0.00  0.00    +0.000 NA
ATOM     10  C   UNL     1       1.280   9.201  19.654  0.00  0.00    +0.000 A 
ATOM     11  N   UNL     1       1.517  10.037  18.597  0.00  0.00    +0.000 N 
ATOM     12  C   UNL     1       2.175   9.358  17.609  0.00  0.00    +0.000 A 
ATOM     13  C   UNL     1       2.357   8.064  18.046  0.00  0.00    +0.000 A 
ATOM     14  C   UNL     1       1.780   7.938  19.347  0.00  0.00    +0.000 A 
ATOM     15  H   UNL     1       1.231  11.004  18.575  0.00  0.00    +0.000 HD
ENDBRANCH   4   6
BRANCH   1  16
ATOM     16  N   UNL     1       3.645   2.916  19.071  0.00  0.00    +0.000 N 
ATOM     17  C   UNL     1       3.044   1.629  18.742  0.00  0.00    +0.000 C 
BRANCH  16  21
ATOM     18  C   UNL     1       4.924   4.510  14.550  0.00  0.00    +0.000 C 
ATOM     19  C   UNL     1       5.226   4.430  16.021  0.00  0.00    +0.000 A 
ATOM     20  C   UNL     1       4.314   3.734  16.853  0.00  0.00    +0.000 A 
ATOM     21  C   UNL     1       4.509   3.604  18.233  0.00  0.00    +0.000 A 
ATOM     22  N   UNL     1       5.611   4.165  18.778  0.00  0.00    +0.000 NA
ATOM     23  C   UNL     1       6.499   4.829  17.994  0.00  0.00    +0.000 A 
ATOM     24  C   UNL     1       6.353   4.992  16.627  0.00  0.00    +0.000 A 
BRANCH  24  25
ATOM     25  N   UNL     1       7.393   5.739  15.916  0.00  0.00    +0.000 N 
ATOM     26  O   UNL     1       7.830   5.291  14.849  0.00  0.00    +0.000 OA
ATOM     27  O   UNL     1       7.785   6.801  16.425  0.00  0.00    +0.000 OA
ENDBRANCH  24  25
ENDBRANCH  16  21
ENDBRANCH   1  16
TORSDOF 4
ENDMDL
MODEL 4
REMARK VINA RESULT:      -7.5      3.717      7.724
REMARK  Name = 
REMARK  6 active torsions:
REMARK  status: ('A' for Active; 'I' for Inactive)
REMARK    1  A    between atoms: C_1  and  C_2
REMARK    2  A    between atoms: C_4  and  N_5
REMARK    3  A    between atoms: N_5  and  C_6
REMARK    4  A    between atoms: N_5  and  C_7
REMARK    5  A    between atoms: N_10  and  C_11
REMARK    6  A    between atoms: C_23  and  N_24
REMARK                            x       y       z     vdW  Elec       q    Type
REMARK                         _______ _______ _______ _____ _____    ______ ____
ROOT
ATOM      1  C   UNL     1       2.676   3.908  20.123  0.00  0.00    +0.000 C 
ATOM      2  C   UNL     1       1.653   3.803  18.991  0.00  0.00    +0.000 C 
ATOM      3  C   UNL     1       1.707   5.136  18.253  0.00  0.00    +0.000 C 
ATOM      4  N   UNL     1       2.256   6.082  19.213  0.00  0.00    +0.000 N 
ATOM      5  C   UNL     1       2.784   5.425  20.402  0.00  0.00    +0.000 C 
ENDROOT
BRANCH   4   6
ATOM      6  C   UNL     1       1.981   7.426  19.103  0.00  0.00    +0.000 A 
ATOM      7  N   UNL     1       2.272   8.043  17.921  0.00  0.00    +0.000 NA
ATOM      8  C   UNL     1       2.027   9.359  17.770  0.00  0.00    +0.000 A 
ATOM      9  N   UNL     1       1.532  10.216  18.673  0.00  0.00    +0.000 NA
ATOM     10  C   UNL     1       1.268   9.593  19.828  0.00  0.00    +0.000 A 
ATOM     11  N   UNL     1       0.775  10.229  20.935  0.00  0.00    +0.000 N 
ATOM     12  C   UNL     1       0.604   9.326  21.949  0.00  0.00    +0.000 A 
ATOM     13  C   UNL     1       0.999   8.093  21.476  0.00  0.00    +0.000 A 
ATOM     14  C   UNL     1       1.440   8.244  20.125  0.00  0.00    +0.000 A 
ATOM     15  H   UNL     1       0.582  11.219  20.972  0.00  0.00    +0.000 HD
ENDBRANCH   4   6
BRANCH   1  16
ATOM     16  N   UNL     1       3.974   3.259  19.784  0.00  0.00    +0.000 N 
ATOM     17  C   UNL     1       4.361   2.064  20.525  0.00  0.00    +0.000 C 
BRANCH  16  21
ATOM     18  C   UNL     1       7.447   6.337  18.030  0.00  0.00    +0.000 C 
ATOM     19  C   UNL     1       6.404   5.287  17.765  0.00  0.00    +0.000 A 
ATOM     20  C   UNL     1       5.691   4.760  18.871  0.00  0.00    +0.000 A 
ATOM     21  C   UNL     1       4.700   3.782  18.726  0.00  0.00    +0.000 A 
ATOM     22  N   UNL     1       4.422   3.335  17.482  0.00  0.00    +0.000 NA
ATOM     23  C   UNL     1       5.090   3.834  16.410  0.00  0.00    +0.000 A 
ATOM     24  C   UNL     1       6.081   4.797  16.496  0.00  0.00    +0.000 A 
BRANCH  24  25
ATOM     25  N   UNL     1       6.716   5.233  15.251  0.00  0.00    +0.000 N 
ATOM     26  O   UNL     1       7.859   4.839  14.991  0.00  0.00    +0.000 OA
ATOM     27  O   UNL     1       6.064   5.982  14.507  0.00  0.00    +0.000 OA
ENDBRANCH  24  25
ENDBRANCH  16  21
ENDBRANCH   1  16
TORSDOF 4
ENDMDL
MODEL 5
REMARK VINA RESULT:      -7.4      3.659      7.381
REMARK  Name = 
REMARK  6 active torsions:
REMARK  status: ('A' for Active; 'I' for Inactive)
REMARK    1  A    between atoms: C_1  and  C_2
REMARK    2  A    between atoms: C_4  and  N_5
REMARK    3  A    between atoms: N_5  and  C_6
REMARK    4  A    between atoms: N_5  and  C_7
REMARK    5  A    between atoms: N_10  and  C_11
REMARK    6  A    between atoms: C_23  and  N_24
REMARK                            x       y       z     vdW  Elec       q    Type
REMARK                         _______ _______ _______ _____ _____    ______ ____
ROOT
ATOM      1  C   UNL     1       2.691   3.373  20.253  0.00  0.00    +0.000 C 
ATOM      2  C   UNL     1       1.776   3.509  19.035  0.00  0.00    +0.000 C 
ATOM      3  C   UNL     1       1.748   4.994  18.696  0.00  0.00    +0.000 C 
ATOM      4  N   UNL     1       2.118   5.674  19.929  0.00  0.00    +0.000 N 
ATOM      5  C   UNL     1       2.616   4.754  20.943  0.00  0.00    +0.000 C 
ENDROOT
BRANCH   4   6
ATOM      6  C   UNL     1       1.713   6.969  20.160  0.00  0.00    +0.000 A 
ATOM      7  N   UNL     1       1.111   7.247  21.353  0.00  0.00    +0.000 NA
ATOM      8  C   UNL     1       0.693   8.499  21.620  0.00  0.00    +0.000 A 
ATOM      9  N   UNL     1       0.758   9.578  20.829  0.00  0.00    +0.000 NA
ATOM     10  C   UNL     1       1.337   9.280  19.661  0.00  0.00    +0.000 A 
ATOM     11  N   UNL     1       1.516  10.186  18.651  0.00  0.00    +0.000 N 
ATOM     12  C   UNL     1       2.141   9.583  17.594  0.00  0.00    +0.000 A 
ATOM     13  C   UNL     1       2.361   8.267  17.939  0.00  0.00    +0.000 A 
ATOM     14  C   UNL     1       1.843   8.049  19.252  0.00  0.00    +0.000 A 
ATOM     15  H   UNL     1       1.215  11.148  18.703  0.00  0.00    +0.000 HD
ENDBRANCH   4   6
BRANCH   1  16
ATOM     16  N   UNL     1       4.072   2.949  19.888  0.00  0.00    +0.000 N 
ATOM     17  C   UNL     1       4.646   1.800  20.580  0.00  0.00    +0.000 C 
BRANCH  16  21
ATOM     18  C   UNL     1       7.205   6.441  18.275  0.00  0.00    +0.000 C 
ATOM     19  C   UNL     1       6.232   5.338  17.960  0.00  0.00    +0.000 A 
ATOM     20  C   UNL     1       5.620   4.659  19.043  0.00  0.00    +0.000 A 
ATOM     21  C   UNL     1       4.701   3.621  18.852  0.00  0.00    +0.000 A 
ATOM     22  N   UNL     1       4.393   3.266  17.586  0.00  0.00    +0.000 NA
ATOM     23  C   UNL     1       4.965   3.911  16.536  0.00  0.00    +0.000 A 
ATOM     24  C   UNL     1       5.883   4.939  16.667  0.00  0.00    +0.000 A 
BRANCH  24  25
ATOM     25  N   UNL     1       6.417   5.534  15.441  0.00  0.00    +0.000 N 
ATOM     26  O   UNL     1       7.541   5.196  15.050  0.00  0.00    +0.000 OA
ATOM     27  O   UNL     1       5.703   6.355  14.844  0.00  0.00    +0.000 OA
ENDBRANCH  24  25
ENDBRANCH  16  21
ENDBRANCH   1  16
TORSDOF 4
ENDMDL
MODEL 6
REMARK VINA RESULT:      -7.3      4.462      8.830
REMARK  Name = 
REMARK  6 active torsions:
REMARK  status: ('A' for Active; 'I' for Inactive)
REMARK    1  A    between atoms: C_1  and  C_2
REMARK    2  A    between atoms: C_4  and  N_5
REMARK    3  A    between atoms: N_5  and  C_6
REMARK    4  A    between atoms: N_5  and  C_7
REMARK    5  A    between atoms: N_10  and  C_11
REMARK    6  A    between atoms: C_23  and  N_24
REMARK                            x       y       z     vdW  Elec       q    Type
REMARK                         _______ _______ _______ _____ _____    ______ ____
ROOT
ATOM      1  C   UNL     1       1.096   9.891  19.003  0.00  0.00    +0.000 C 
ATOM      2  C   UNL     1       1.093  11.348  19.471  0.00  0.00    +0.000 C 
ATOM      3  C   UNL     1      -0.372  11.727  19.650  0.00  0.00    +0.000 C 
ATOM      4  N   UNL     1      -1.113  10.794  18.815  0.00  0.00    +0.000 N 
ATOM      5  C   UNL     1      -0.278   9.707  18.320  0.00  0.00    +0.000 C 
ENDROOT
BRANCH   4   6
ATOM      6  C   UNL     1      -2.353  11.131  18.322  0.00  0.00    +0.000 A 
ATOM      7  N   UNL     1      -3.204  11.811  19.145  0.00  0.00    +0.000 NA
ATOM      8  C   UNL     1      -4.430  12.155  18.709  0.00  0.00    +0.000 A 
ATOM      9  N   UNL     1      -4.989  11.891  17.520  0.00  0.00    +0.000 NA
ATOM     10  C   UNL     1      -4.144  11.213  16.735  0.00  0.00    +0.000 A 
ATOM     11  N   UNL     1      -4.457  10.789  15.472  0.00  0.00    +0.000 N 
ATOM     12  C   UNL     1      -3.388  10.133  14.926  0.00  0.00    +0.000 A 
ATOM     13  C   UNL     1      -2.377  10.138  15.862  0.00  0.00    +0.000 A 
ATOM     14  C   UNL     1      -2.844  10.811  17.032  0.00  0.00    +0.000 A 
ATOM     15  H   UNL     1      -5.354  10.947  15.037  0.00  0.00    +0.000 HD
ENDBRANCH   4   6
BRANCH   1  16
ATOM     16  N   UNL     1       1.356   8.933  20.115  0.00  0.00    +0.000 N 
ATOM     17  C   UNL     1       0.968   9.323  21.465  0.00  0.00    +0.000 C 
BRANCH  16  21
ATOM     18  C   UNL     1       2.025   4.123  21.130  0.00  0.00    +0.000 C 
ATOM     19  C   UNL     1       2.267   5.293  20.216  0.00  0.00    +0.000 A 
ATOM     20  C   UNL     1       1.707   6.545  20.571  0.00  0.00    +0.000 A 
ATOM     21  C   UNL     1       1.877   7.691  19.787  0.00  0.00    +0.000 A 
ATOM     22  N   UNL     1       2.607   7.588  18.655  0.00  0.00    +0.000 NA
ATOM     23  C   UNL     1       3.158   6.397  18.303  0.00  0.00    +0.000 A 
ATOM     24  C   UNL     1       3.017   5.232  19.037  0.00  0.00    +0.000 A 
BRANCH  24  25
ATOM     25  N   UNL     1       3.667   4.023  18.527  0.00  0.00    +0.000 N 
ATOM     26  O   UNL     1       3.080   3.340  17.679  0.00  0.00    +0.000 OA
ATOM     27  O   UNL     1       4.791   3.745  18.973  0.00  0.00    +0.000 OA
ENDBRANCH  24  25
ENDBRANCH  16  21
ENDBRANCH   1  16
TORSDOF 4
ENDMDL
MODEL 7
REMARK VINA RESULT:      -7.3      4.122      8.629
REMARK  Name = 
REMARK  6 active torsions:
REMARK  status: ('A' for Active; 'I' for Inactive)
REMARK    1  A    between atoms: C_1  and  C_2
REMARK    2  A    between atoms: C_4  and  N_5
REMARK    3  A    between atoms: N_5  and  C_6
REMARK    4  A    between atoms: N_5  and  C_7
REMARK    5  A    between atoms: N_10  and  C_11
REMARK    6  A    between atoms: C_23  and  N_24
REMARK                            x       y       z     vdW  Elec       q    Type
REMARK                         _______ _______ _______ _____ _____    ______ ____
ROOT
ATOM      1  C   UNL     1       4.631   4.840  18.767  0.00  0.00    +0.000 C 
ATOM      2  C   UNL     1       3.624   4.500  19.868  0.00  0.00    +0.000 C 
ATOM      3  C   UNL     1       2.412   5.389  19.615  0.00  0.00    +0.000 C 
ATOM      4  N   UNL     1       2.916   6.509  18.834  0.00  0.00    +0.000 N 
ATOM      5  C   UNL     1       4.276   6.288  18.358  0.00  0.00    +0.000 C 
ENDROOT
BRANCH   4   6
ATOM      6  C   UNL     1       2.270   7.724  18.858  0.00  0.00    +0.000 A 
ATOM      7  N   UNL     1       2.296   8.485  17.725  0.00  0.00    +0.000 NA
ATOM      8  C   UNL     1       1.684   9.684  17.705  0.00  0.00    +0.000 A 
ATOM      9  N   UNL     1       1.032  10.295  18.702  0.00  0.00    +0.000 NA
ATOM     10  C   UNL     1       1.030   9.539  19.806  0.00  0.00    +0.000 A 
ATOM     11  N   UNL     1       0.455   9.924  20.987  0.00  0.00    +0.000 N 
ATOM     12  C   UNL     1       0.612   8.937  21.921  0.00  0.00    +0.000 A 
ATOM     13  C   UNL     1       1.302   7.905  21.322  0.00  0.00    +0.000 A 
ATOM     14  C   UNL     1       1.592   8.276  19.973  0.00  0.00    +0.000 A 
ATOM     15  H   UNL     1      -0.004  10.812  21.122  0.00  0.00    +0.000 HD
ENDBRANCH   4   6
BRANCH   1  16
ATOM     16  N   UNL     1       4.599   3.864  17.641  0.00  0.00    +0.000 N 
ATOM     17  C   UNL     1       3.737   2.695  17.766  0.00  0.00    +0.000 C 
BRANCH  16  21
ATOM     18  C   UNL     1       5.214   3.680  12.721  0.00  0.00    +0.000 C 
ATOM     19  C   UNL     1       5.721   4.118  14.067  0.00  0.00    +0.000 A 
ATOM     20  C   UNL     1       4.942   3.806  15.209  0.00  0.00    +0.000 A 
ATOM     21  C   UNL     1       5.330   4.169  16.503  0.00  0.00    +0.000 A 
ATOM     22  N   UNL     1       6.493   4.839  16.656  0.00  0.00    +0.000 NA
ATOM     23  C   UNL     1       7.257   5.140  15.574  0.00  0.00    +0.000 A 
ATOM     24  C   UNL     1       6.918   4.810  14.273  0.00  0.00    +0.000 A 
BRANCH  24  25
ATOM     25  N   UNL     1       7.842   5.208  13.208  0.00  0.00    +0.000 N 
ATOM     26  O   UNL     1       8.795   5.946  13.486  0.00  0.00    +0.000 OA
ATOM     27  O   UNL     1       7.622   4.773  12.067  0.00  0.00    +0.000 OA
ENDBRANCH  24  25
ENDBRANCH  16  21
ENDBRANCH   1  16
TORSDOF 4
ENDMDL
MODEL 8
REMARK VINA RESULT:      -7.3      3.495      7.721
REMARK  Name = 
REMARK  6 active torsions:
REMARK  status: ('A' for Active; 'I' for Inactive)
REMARK    1  A    between atoms: C_1  and  C_2
REMARK    2  A    between atoms: C_4  and  N_5
REMARK    3  A    between atoms: N_5  and  C_6
REMARK    4  A    between atoms: N_5  and  C_7
REMARK    5  A    between atoms: N_10  and  C_11
REMARK    6  A    between atoms: C_23  and  N_24
REMARK                            x       y       z     vdW  Elec       q    Type
REMARK                         _______ _______ _______ _____ _____    ______ ____
ROOT
ATOM      1  C   UNL     1       2.587   4.013  19.963  0.00  0.00    +0.000 C 
ATOM      2  C   UNL     1       1.624   3.957  18.775  0.00  0.00    +0.000 C 
ATOM      3  C   UNL     1       1.701   5.325  18.109  0.00  0.00    +0.000 C 
ATOM      4  N   UNL     1       2.190   6.226  19.142  0.00  0.00    +0.000 N 
ATOM      5  C   UNL     1       2.664   5.514  20.322  0.00  0.00    +0.000 C 
ENDROOT
BRANCH   4   6
ATOM      6  C   UNL     1       1.906   7.572  19.086  0.00  0.00    +0.000 A 
ATOM      7  N   UNL     1       2.141   8.226  17.911  0.00  0.00    +0.000 NA
ATOM      8  C   UNL     1       1.886   9.544  17.812  0.00  0.00    +0.000 A 
ATOM      9  N   UNL     1       1.430  10.372  18.762  0.00  0.00    +0.000 NA
ATOM     10  C   UNL     1       1.221   9.713  19.908  0.00  0.00    +0.000 A 
ATOM     11  N   UNL     1       0.778  10.313  21.056  0.00  0.00    +0.000 N 
ATOM     12  C   UNL     1       0.656   9.379  22.048  0.00  0.00    +0.000 A 
ATOM     13  C   UNL     1       1.033   8.163  21.520  0.00  0.00    +0.000 A 
ATOM     14  C   UNL     1       1.410   8.356  20.157  0.00  0.00    +0.000 A 
ATOM     15  H   UNL     1       0.584  11.300  21.132  0.00  0.00    +0.000 HD
ENDBRANCH   4   6
BRANCH   1  16
ATOM     16  N   UNL     1       3.907   3.392  19.659  0.00  0.00    +0.000 N 
ATOM     17  C   UNL     1       4.226   2.112  20.279  0.00  0.00    +0.000 C 
BRANCH  16  21
ATOM     18  C   UNL     1       5.429   4.090  14.988  0.00  0.00    +0.000 C 
ATOM     19  C   UNL     1       5.547   4.435  16.447  0.00  0.00    +0.000 A 
ATOM     20  C   UNL     1       4.687   3.778  17.361  0.00  0.00    +0.000 A 
ATOM     21  C   UNL     1       4.723   4.030  18.737  0.00  0.00    +0.000 A 
ATOM     22  N   UNL     1       5.616   4.933  19.197  0.00  0.00    +0.000 NA
ATOM     23  C   UNL     1       6.453   5.567  18.336  0.00  0.00    +0.000 A 
ATOM     24  C   UNL     1       6.457   5.360  16.968  0.00  0.00    +0.000 A 
BRANCH  24  25
ATOM     25  N   UNL     1       7.417   6.123  16.167  0.00  0.00    +0.000 N 
ATOM     26  O   UNL     1       7.851   7.193  16.610  0.00  0.00    +0.000 OA
ATOM     27  O   UNL     1       7.755   5.648  15.072  0.00  0.00    +0.000 OA
ENDBRANCH  24  25
ENDBRANCH  16  21
ENDBRANCH   1  16
TORSDOF 4
ENDMDL
MODEL 9
REMARK VINA RESULT:      -7.3      4.466      9.115
REMARK  Name = 
REMARK  6 active torsions:
REMARK  status: ('A' for Active; 'I' for Inactive)
REMARK    1  A    between atoms: C_1  and  C_2
REMARK    2  A    between atoms: C_4  and  N_5
REMARK    3  A    between atoms: N_5  and  C_6
REMARK    4  A    between atoms: N_5  and  C_7
REMARK    5  A    between atoms: N_10  and  C_11
REMARK    6  A    between atoms: C_23  and  N_24
REMARK                            x       y       z     vdW  Elec       q    Type
REMARK                         _______ _______ _______ _____ _____    ______ ____
ROOT
ATOM      1  C   UNL     1       1.318   9.546  18.564  0.00  0.00    +0.000 C 
ATOM      2  C   UNL     1       1.358  11.046  18.864  0.00  0.00    +0.000 C 
ATOM      3  C   UNL     1      -0.096  11.495  18.949  0.00  0.00    +0.000 C 
ATOM      4  N   UNL     1      -0.847  10.500  18.199  0.00  0.00    +0.000 N 
ATOM      5  C   UNL     1      -0.042   9.334  17.859  0.00  0.00    +0.000 C 
ENDROOT
BRANCH   4   6
ATOM      6  C   UNL     1      -2.058  10.824  17.630  0.00  0.00    +0.000 A 
ATOM      7  N   UNL     1      -2.258  10.493  16.321  0.00  0.00    +0.000 NA
ATOM      8  C   UNL     1      -3.424  10.796  15.720  0.00  0.00    +0.000 A 
ATOM      9  N   UNL     1      -4.478  11.439  16.240  0.00  0.00    +0.000 NA
ATOM     10  C   UNL     1      -4.256  11.766  17.518  0.00  0.00    +0.000 A 
ATOM     11  N   UNL     1      -5.154  12.451  18.292  0.00  0.00    +0.000 N 
ATOM     12  C   UNL     1      -4.642  12.626  19.548  0.00  0.00    +0.000 A 
ATOM     13  C   UNL     1      -3.393  12.043  19.572  0.00  0.00    +0.000 A 
ATOM     14  C   UNL     1      -3.121  11.499  18.279  0.00  0.00    +0.000 A 
ATOM     15  H   UNL     1      -6.050  12.772  17.956  0.00  0.00    +0.000 HD
ENDBRANCH   4   6
BRANCH   1  16
ATOM     16  N   UNL     1       1.506   8.712  19.784  0.00  0.00    +0.000 N 
ATOM     17  C   UNL     1       0.988   9.217  21.051  0.00  0.00    +0.000 C 
BRANCH  16  21
ATOM     18  C   UNL     1       2.139   4.021  21.272  0.00  0.00    +0.000 C 
ATOM     19  C   UNL     1       2.472   5.121  20.302  0.00  0.00    +0.000 A 
ATOM     20  C   UNL     1       1.844   6.380  20.478  0.00  0.00    +0.000 A 
ATOM     21  C   UNL     1       2.090   7.465  19.629  0.00  0.00    +0.000 A 
ATOM     22  N   UNL     1       2.961   7.294  18.611  0.00  0.00    +0.000 NA
ATOM     23  C   UNL     1       3.577   6.097  18.431  0.00  0.00    +0.000 A 
ATOM     24  C   UNL     1       3.367   4.990  19.236  0.00  0.00    +0.000 A 
BRANCH  24  25
ATOM     25  N   UNL     1       4.102   3.765  18.914  0.00  0.00    +0.000 N 
ATOM     26  O   UNL     1       5.239   3.610  19.375  0.00  0.00    +0.000 OA
ATOM     27  O   UNL     1       3.536   2.931  18.191  0.00  0.00    +0.000 OA
ENDBRANCH  24  25
ENDBRANCH  16  21
ENDBRANCH   1  16
TORSDOF 4
ENDMDL
