MODEL 1
REMARK VINA RESULT:      -9.0      0.000      0.000
REMARK  Name = 
REMARK  7 active torsions:
REMARK  status: ('A' for Active; 'I' for Inactive)
REMARK    1  A    between atoms: C_2  and  C_3
REMARK    2  A    between atoms: C_3  and  C_21
REMARK    3  A    between atoms: C_4  and  C_5
REMARK    4  A    between atoms: N_7  and  C_8
REMARK    5  A    between atoms: C_8  and  C_9
REMARK    6  A    between atoms: N_23  and  C_24
REMARK    7  A    between atoms: C_24  and  C_25
REMARK                            x       y       z     vdW  Elec       q    Type
REMARK                         _______ _______ _______ _____ _____    ______ ____
ROOT
ATOM      1  C   UNL     1       2.155   6.283  19.646  0.00  0.00    +0.000 A 
ATOM      2  C   UNL     1       3.017   6.687  18.654  0.00  0.00    +0.000 A 
ATOM      3  N   UNL     1       3.363   5.567  17.929  0.00  0.00    +0.000 N 
ATOM      4  C   UNL     1       2.631   4.475  18.363  0.00  0.00    +0.000 A 
ATOM      5  C   UNL     1       2.646   3.130  17.958  0.00  0.00    +0.000 A 
ATOM      6  C   UNL     1       1.797   2.234  18.616  0.00  0.00    +0.000 A 
ATOM      7  C   UNL     1       0.950   2.662  19.631  0.00  0.00    +0.000 A 
ATOM      8  C   UNL     1       0.956   3.998  20.043  0.00  0.00    +0.000 A 
ATOM      9  C   UNL     1       1.819   4.919  19.414  0.00  0.00    +0.000 A 
ENDROOT
BRANCH   1  11
ATOM     10  C   UNL     1       1.349   8.354  20.668  0.00  0.00    +0.000 C 
ATOM     11  C   UNL     1       1.796   7.084  20.772  0.00  0.00    +0.000 C 
BRANCH  10  12
ATOM     12  C   UNL     1       1.028   9.109  21.922  0.00  0.00    +0.000 C 
ATOM     13  O   UNL     1       1.911   9.469  22.697  0.00  0.00    +0.000 OA
ATOM     14  N   UNL     1      -0.301   9.376  22.149  0.00  0.00    +0.000 N 
ATOM     15  H   UNL     1      -1.037   8.989  21.567  0.00  0.00    +0.000 HD
BRANCH  14  16
ATOM     16  C   UNL     1      -0.753  10.073  23.337  0.00  0.00    +0.000 C 
BRANCH  16  17
ATOM     17  C   UNL     1      -1.177  11.444  22.959  0.00  0.00    +0.000 A 
ATOM     18  C   UNL     1      -2.408  12.056  22.841  0.00  0.00    +0.000 A 
ATOM     19  C   UNL     1      -2.159  13.390  22.432  0.00  0.00    +0.000 A 
ATOM     20  C   UNL     1      -0.793  13.508  22.327  0.00  0.00    +0.000 A 
ATOM     21  O   UNL     1      -0.187  12.334  22.644  0.00  0.00    +0.000 OA
ENDBRANCH  16  17
ENDBRANCH  14  16
ENDBRANCH  10  12
BRANCH  10  23
ATOM     22  N   UNL     1       1.040   9.572  18.410  0.00  0.00    +0.000 NA
ATOM     23  C   UNL     1       1.178   8.988  19.406  0.00  0.00    +0.000 C 
ENDBRANCH  10  23
ENDBRANCH   1  11
BRANCH   3  24
ATOM     24  C   UNL     1       4.425   5.540  16.922  0.00  0.00    +0.000 C 
BRANCH  24  25
ATOM     25  C   UNL     1       5.756   5.935  17.521  0.00  0.00    +0.000 A 
ATOM     26  C   UNL     1       6.293   5.219  18.600  0.00  0.00    +0.000 A 
ATOM     27  C   UNL     1       7.464   5.655  19.227  0.00  0.00    +0.000 A 
ATOM     28  C   UNL     1       8.116   6.800  18.774  0.00  0.00    +0.000 A 
ATOM     29  C   UNL     1       7.624   7.488  17.670  0.00  0.00    +0.000 A 
ATOM     30  C   UNL     1       6.460   7.051  17.038  0.00  0.00    +0.000 A 
ENDBRANCH  24  25
ENDBRANCH   3  24
TORSDOF 7
ENDMDL
MODEL 2
REMARK VINA RESULT:      -8.8      0.637      1.178
REMARK  Name = 
REMARK  7 active torsions:
REMARK  status: ('A' for Active; 'I' for Inactive)
REMARK    1  A    between atoms: C_2  and  C_3
REMARK    2  A    between atoms: C_3  and  C_21
REMARK    3  A    between atoms: C_4  and  C_5
REMARK    4  A    between atoms: N_7  and  C_8
REMARK    5  A    between atoms: C_8  and  C_9
REMARK    6  A    between atoms: N_23  and  C_24
REMARK    7  A    between atoms: C_24  and  C_25
REMARK                            x       y       z     vdW  Elec       q    Type
REMARK                         _______ _______ _______ _____ _____    ______ ____
ROOT
ATOM      1  C   UNL     1       2.165   6.281  19.712  0.00  0.00    +0.000 A 
ATOM      2  C   UNL     1       3.088   6.647  18.761  0.00  0.00    +0.000 A 
ATOM      3  N   UNL     1       3.426   5.512  18.058  0.00  0.00    +0.000 N 
ATOM      4  C   UNL     1       2.634   4.450  18.461  0.00  0.00    +0.000 A 
ATOM      5  C   UNL     1       2.618   3.102  18.063  0.00  0.00    +0.000 A 
ATOM      6  C   UNL     1       1.706   2.242  18.683  0.00  0.00    +0.000 A 
ATOM      7  C   UNL     1       0.828   2.708  19.655  0.00  0.00    +0.000 A 
ATOM      8  C   UNL     1       0.864   4.045  20.061  0.00  0.00    +0.000 A 
ATOM      9  C   UNL     1       1.790   4.930  19.470  0.00  0.00    +0.000 A 
ENDROOT
BRANCH   1  11
ATOM     10  C   UNL     1       1.348   8.373  20.682  0.00  0.00    +0.000 C 
ATOM     11  C   UNL     1       1.782   7.101  20.817  0.00  0.00    +0.000 C 
BRANCH  10  12
ATOM     12  C   UNL     1       1.001   9.149  21.915  0.00  0.00    +0.000 C 
ATOM     13  O   UNL     1       1.861   9.479  22.729  0.00  0.00    +0.000 OA
ATOM     14  N   UNL     1      -0.326   9.472  22.078  0.00  0.00    +0.000 N 
ATOM     15  H   UNL     1      -1.049   9.111  21.465  0.00  0.00    +0.000 HD
BRANCH  14  16
ATOM     16  C   UNL     1      -0.804  10.195  23.240  0.00  0.00    +0.000 C 
BRANCH  16  17
ATOM     17  C   UNL     1      -1.551  11.395  22.787  0.00  0.00    +0.000 A 
ATOM     18  C   UNL     1      -1.376  12.280  21.742  0.00  0.00    +0.000 A 
ATOM     19  C   UNL     1      -2.421  13.232  21.841  0.00  0.00    +0.000 A 
ATOM     20  C   UNL     1      -3.167  12.868  22.937  0.00  0.00    +0.000 A 
ATOM     21  O   UNL     1      -2.648  11.756  23.519  0.00  0.00    +0.000 OA
ENDBRANCH  16  17
ENDBRANCH  14  16
ENDBRANCH  10  12
BRANCH  10  23
ATOM     22  N   UNL     1       1.045   9.455  18.354  0.00  0.00    +0.000 NA
ATOM     23  C   UNL     1       1.216   8.990  19.407  0.00  0.00    +0.000 C 
ENDBRANCH  10  23
ENDBRANCH   1  11
BRANCH   3  24
ATOM     24  C   UNL     1       4.533   5.438  17.104  0.00  0.00    +0.000 C 
BRANCH  24  25
ATOM     25  C   UNL     1       5.800   6.017  17.691  0.00  0.00    +0.000 A 
ATOM     26  C   UNL     1       6.373   7.177  17.149  0.00  0.00    +0.000 A 
ATOM     27  C   UNL     1       7.604   7.644  17.616  0.00  0.00    +0.000 A 
ATOM     28  C   UNL     1       8.269   6.967  18.637  0.00  0.00    +0.000 A 
ATOM     29  C   UNL     1       7.687   5.847  19.220  0.00  0.00    +0.000 A 
ATOM     30  C   UNL     1       6.454   5.383  18.760  0.00  0.00    +0.000 A 
ENDBRANCH  24  25
ENDBRANCH   3  24
TORSDOF 7
ENDMDL
MODEL 3
REMARK VINA RESULT:      -8.7      4.157      8.929
REMARK  Name = 
REMARK  7 active torsions:
REMARK  status: ('A' for Active; 'I' for Inactive)
REMARK    1  A    between atoms: C_2  and  C_3
REMARK    2  A    between atoms: C_3  and  C_21
REMARK    3  A    between atoms: C_4  and  C_5
REMARK    4  A    between atoms: N_7  and  C_8
REMARK    5  A    between atoms: C_8  and  C_9
REMARK    6  A    between atoms: N_23  and  C_24
REMARK    7  A    between atoms: C_24  and  C_25
REMARK                            x       y       z     vdW  Elec       q    Type
REMARK                         _______ _______ _______ _____ _____    ______ ____
ROOT
ATOM      1  C   UNL     1       3.720   5.212  18.187  0.00  0.00    +0.000 A 
ATOM      2  C   UNL     1       3.575   6.280  19.040  0.00  0.00    +0.000 A 
ATOM      3  N   UNL     1       2.477   6.026  19.833  0.00  0.00    +0.000 N 
ATOM      4  C   UNL     1       1.998   4.751  19.587  0.00  0.00    +0.000 A 
ATOM      5  C   UNL     1       0.899   4.055  20.119  0.00  0.00    +0.000 A 
ATOM      6  C   UNL     1       0.642   2.765  19.643  0.00  0.00    +0.000 A 
ATOM      7  C   UNL     1       1.458   2.180  18.682  0.00  0.00    +0.000 A 
ATOM      8  C   UNL     1       2.536   2.886  18.142  0.00  0.00    +0.000 A 
ATOM      9  C   UNL     1       2.805   4.198  18.585  0.00  0.00    +0.000 A 
ENDROOT
BRANCH   1  11
ATOM     10  C   UNL     1       5.905   5.176  17.087  0.00  0.00    +0.000 C 
ATOM     11  C   UNL     1       4.556   5.218  17.029  0.00  0.00    +0.000 C 
BRANCH  10  12
ATOM     12  C   UNL     1       6.681   5.216  15.807  0.00  0.00    +0.000 C 
ATOM     13  O   UNL     1       7.644   5.966  15.663  0.00  0.00    +0.000 OA
ATOM     14  N   UNL     1       6.259   4.366  14.812  0.00  0.00    +0.000 N 
ATOM     15  H   UNL     1       5.405   3.824  14.890  0.00  0.00    +0.000 HD
BRANCH  14  16
ATOM     16  C   UNL     1       6.902   4.323  13.513  0.00  0.00    +0.000 C 
BRANCH  16  17
ATOM     17  C   UNL     1       6.046   3.551  12.577  0.00  0.00    +0.000 A 
ATOM     18  C   UNL     1       4.748   3.708  12.133  0.00  0.00    +0.000 A 
ATOM     19  C   UNL     1       4.494   2.634  11.244  0.00  0.00    +0.000 A 
ATOM     20  C   UNL     1       5.651   1.891  11.200  0.00  0.00    +0.000 A 
ATOM     21  O   UNL     1       6.599   2.439  12.005  0.00  0.00    +0.000 OA
ENDBRANCH  16  17
ENDBRANCH  14  16
ENDBRANCH  10  12
BRANCH  10  23
ATOM     22  N   UNL     1       7.164   5.107  19.343  0.00  0.00    +0.000 NA
ATOM     23  C   UNL     1       6.600   5.097  18.325  0.00  0.00    +0.000 C 
ENDBRANCH  10  23
ENDBRANCH   1  11
BRANCH   3  24
ATOM     24  C   UNL     1       1.865   7.012  20.724  0.00  0.00    +0.000 C 
BRANCH  24  25
ATOM     25  C   UNL     1       1.489   8.269  19.973  0.00  0.00    +0.000 A 
ATOM     26  C   UNL     1       1.823   8.417  18.619  0.00  0.00    +0.000 A 
ATOM     27  C   UNL     1       1.581   9.624  17.957  0.00  0.00    +0.000 A 
ATOM     28  C   UNL     1       0.991  10.689  18.635  0.00  0.00    +0.000 A 
ATOM     29  C   UNL     1       0.605  10.537  19.963  0.00  0.00    +0.000 A 
ATOM     30  C   UNL     1       0.840   9.331  20.624  0.00  0.00    +0.000 A 
ENDBRANCH  24  25
ENDBRANCH   3  24
TORSDOF 7
ENDMDL
MODEL 4
REMARK VINA RESULT:      -8.5      0.949      1.095
REMARK  Name = 
REMARK  7 active torsions:
REMARK  status: ('A' for Active; 'I' for Inactive)
REMARK    1  A    between atoms: C_2  and  C_3
REMARK    2  A    between atoms: C_3  and  C_21
REMARK    3  A    between atoms: C_4  and  C_5
REMARK    4  A    between atoms: N_7  and  C_8
REMARK    5  A    between atoms: C_8  and  C_9
REMARK    6  A    between atoms: N_23  and  C_24
REMARK    7  A    between atoms: C_24  and  C_25
REMARK                            x       y       z     vdW  Elec       q    Type
REMARK                         _______ _______ _______ _____ _____    ______ ____
ROOT
ATOM      1  C   UNL     1       2.154   6.635  19.740  0.00  0.00    +0.000 A 
ATOM      2  C   UNL     1       2.966   6.910  18.665  0.00  0.00    +0.000 A 
ATOM      3  N   UNL     1       3.350   5.704  18.121  0.00  0.00    +0.000 N 
ATOM      4  C   UNL     1       2.689   4.665  18.752  0.00  0.00    +0.000 A 
ATOM      5  C   UNL     1       2.764   3.274  18.573  0.00  0.00    +0.000 A 
ATOM      6  C   UNL     1       1.982   2.459  19.398  0.00  0.00    +0.000 A 
ATOM      7  C   UNL     1       1.142   3.008  20.359  0.00  0.00    +0.000 A 
ATOM      8  C   UNL     1       1.089   4.392  20.547  0.00  0.00    +0.000 A 
ATOM      9  C   UNL     1       1.885   5.237  19.746  0.00  0.00    +0.000 A 
ENDROOT
BRANCH   1  11
ATOM     10  C   UNL     1       1.236   8.791  20.441  0.00  0.00    +0.000 C 
ATOM     11  C   UNL     1       1.785   7.592  20.733  0.00  0.00    +0.000 C 
BRANCH  10  12
ATOM     12  C   UNL     1       0.915   9.728  21.564  0.00  0.00    +0.000 C 
ATOM     13  O   UNL     1       1.365   9.554  22.694  0.00  0.00    +0.000 OA
ATOM     14  N   UNL     1       0.096  10.789  21.256  0.00  0.00    +0.000 N 
ATOM     15  H   UNL     1      -0.360  10.876  20.354  0.00  0.00    +0.000 HD
BRANCH  14  16
ATOM     16  C   UNL     1      -0.318  11.755  22.255  0.00  0.00    +0.000 C 
BRANCH  16  17
ATOM     17  C   UNL     1      -1.723  12.153  21.987  0.00  0.00    +0.000 A 
ATOM     18  C   UNL     1      -2.835  12.302  22.791  0.00  0.00    +0.000 A 
ATOM     19  C   UNL     1      -3.897  12.700  21.941  0.00  0.00    +0.000 A 
ATOM     20  C   UNL     1      -3.367  12.770  20.674  0.00  0.00    +0.000 A 
ATOM     21  O   UNL     1      -2.049  12.440  20.690  0.00  0.00    +0.000 OA
ENDBRANCH  16  17
ENDBRANCH  14  16
ENDBRANCH  10  12
BRANCH  10  23
ATOM     22  N   UNL     1       0.779   9.564  18.017  0.00  0.00    +0.000 NA
ATOM     23  C   UNL     1       0.961   9.184  19.101  0.00  0.00    +0.000 C 
ENDBRANCH  10  23
ENDBRANCH   1  11
BRANCH   3  24
ATOM     24  C   UNL     1       4.384   5.562  17.094  0.00  0.00    +0.000 C 
BRANCH  24  25
ATOM     25  C   UNL     1       5.740   5.970  17.624  0.00  0.00    +0.000 A 
ATOM     26  C   UNL     1       6.327   5.277  18.692  0.00  0.00    +0.000 A 
ATOM     27  C   UNL     1       7.524   5.727  19.256  0.00  0.00    +0.000 A 
ATOM     28  C   UNL     1       8.153   6.862  18.751  0.00  0.00    +0.000 A 
ATOM     29  C   UNL     1       7.610   7.528  17.657  0.00  0.00    +0.000 A 
ATOM     30  C   UNL     1       6.419   7.077  17.088  0.00  0.00    +0.000 A 
ENDBRANCH  24  25
ENDBRANCH   3  24
TORSDOF 7
ENDMDL
MODEL 5
REMARK VINA RESULT:      -8.4      3.996      8.783
REMARK  Name = 
REMARK  7 active torsions:
REMARK  status: ('A' for Active; 'I' for Inactive)
REMARK    1  A    between atoms: C_2  and  C_3
REMARK    2  A    between atoms: C_3  and  C_21
REMARK    3  A    between atoms: C_4  and  C_5
REMARK    4  A    between atoms: N_7  and  C_8
REMARK    5  A    between atoms: C_8  and  C_9
REMARK    6  A    between atoms: N_23  and  C_24
REMARK    7  A    between atoms: C_24  and  C_25
REMARK                            x       y       z     vdW  Elec       q    Type
REMARK                         _______ _______ _______ _____ _____    ______ ____
ROOT
ATOM      1  C   UNL     1       3.622   5.535  18.483  0.00  0.00    +0.000 A 
ATOM      2  C   UNL     1       3.295   6.627  19.251  0.00  0.00    +0.000 A 
ATOM      3  N   UNL     1       2.203   6.279  20.016  0.00  0.00    +0.000 N 
ATOM      4  C   UNL     1       1.910   4.938  19.844  0.00  0.00    +0.000 A 
ATOM      5  C   UNL     1       0.889   4.135  20.380  0.00  0.00    +0.000 A 
ATOM      6  C   UNL     1       0.828   2.794  19.989  0.00  0.00    +0.000 A 
ATOM      7  C   UNL     1       1.761   2.263  19.105  0.00  0.00    +0.000 A 
ATOM      8  C   UNL     1       2.761   3.072  18.559  0.00  0.00    +0.000 A 
ATOM      9  C   UNL     1       2.831   4.434  18.917  0.00  0.00    +0.000 A 
ENDROOT
BRANCH   1  11
ATOM     10  C   UNL     1       5.847   5.474  17.469  0.00  0.00    +0.000 C 
ATOM     11  C   UNL     1       4.505   5.578  17.362  0.00  0.00    +0.000 C 
BRANCH  10  12
ATOM     12  C   UNL     1       6.678   5.562  16.226  0.00  0.00    +0.000 C 
ATOM     13  O   UNL     1       7.594   6.373  16.122  0.00  0.00    +0.000 OA
ATOM     14  N   UNL     1       6.358   4.683  15.217  0.00  0.00    +0.000 N 
ATOM     15  H   UNL     1       5.539   4.087  15.259  0.00  0.00    +0.000 HD
BRANCH  14  16
ATOM     16  C   UNL     1       7.062   4.679  13.950  0.00  0.00    +0.000 C 
BRANCH  16  17
ATOM     17  C   UNL     1       6.293   3.865  12.975  0.00  0.00    +0.000 A 
ATOM     18  C   UNL     1       4.948   3.752  12.687  0.00  0.00    +0.000 A 
ATOM     19  C   UNL     1       4.836   2.794  11.650  0.00  0.00    +0.000 A 
ATOM     20  C   UNL     1       6.118   2.384  11.368  0.00  0.00    +0.000 A 
ATOM     21  O   UNL     1       7.010   3.027  12.166  0.00  0.00    +0.000 OA
ENDBRANCH  16  17
ENDBRANCH  14  16
ENDBRANCH  10  12
BRANCH  10  23
ATOM     22  N   UNL     1       7.034   5.204  19.749  0.00  0.00    +0.000 NA
ATOM     23  C   UNL     1       6.487   5.287  18.726  0.00  0.00    +0.000 C 
ENDBRANCH  10  23
ENDBRANCH   1  11
BRANCH   3  24
ATOM     24  C   UNL     1       1.422   7.230  20.809  0.00  0.00    +0.000 C 
BRANCH  24  25
ATOM     25  C   UNL     1       1.332   8.572  20.120  0.00  0.00    +0.000 A 
ATOM     26  C   UNL     1       0.944   9.716  20.833  0.00  0.00    +0.000 A 
ATOM     27  C   UNL     1       0.748  10.931  20.171  0.00  0.00    +0.000 A 
ATOM     28  C   UNL     1       0.951  11.020  18.795  0.00  0.00    +0.000 A 
ATOM     29  C   UNL     1       1.388   9.907  18.085  0.00  0.00    +0.000 A 
ATOM     30  C   UNL     1       1.592   8.695  18.744  0.00  0.00    +0.000 A 
ENDBRANCH  24  25
ENDBRANCH   3  24
TORSDOF 7
ENDMDL
MODEL 6
REMARK VINA RESULT:      -8.3      0.734      1.320
REMARK  Name = 
REMARK  7 active torsions:
REMARK  status: ('A' for Active; 'I' for Inactive)
REMARK    1  A    between atoms: C_2  and  C_3
REMARK    2  A    between atoms: C_3  and  C_21
REMARK    3  A    between atoms: C_4  and  C_5
REMARK    4  A    between atoms: N_7  and  C_8
REMARK    5  A    between atoms: C_8  and  C_9
REMARK    6  A    between atoms: N_23  and  C_24
REMARK    7  A    between atoms: C_24  and  C_25
REMARK                            x       y       z     vdW  Elec       q    Type
REMARK                         _______ _______ _______ _____ _____    ______ ____
ROOT
ATOM      1  C   UNL     1       2.138   6.541  19.791  0.00  0.00    +0.000 A 
ATOM      2  C   UNL     1       3.013   6.851  18.777  0.00  0.00    +0.000 A 
ATOM      3  N   UNL     1       3.390   5.666  18.184  0.00  0.00    +0.000 N 
ATOM      4  C   UNL     1       2.667   4.615  18.719  0.00  0.00    +0.000 A 
ATOM      5  C   UNL     1       2.710   3.234  18.463  0.00  0.00    +0.000 A 
ATOM      6  C   UNL     1       1.863   2.399  19.198  0.00  0.00    +0.000 A 
ATOM      7  C   UNL     1       0.989   2.920  20.146  0.00  0.00    +0.000 A 
ATOM      8  C   UNL     1       0.967   4.292  20.412  0.00  0.00    +0.000 A 
ATOM      9  C   UNL     1       1.828   5.155  19.702  0.00  0.00    +0.000 A 
ENDROOT
BRANCH   1  11
ATOM     10  C   UNL     1       1.204   8.664  20.569  0.00  0.00    +0.000 C 
ATOM     11  C   UNL     1       1.745   7.452  20.818  0.00  0.00    +0.000 C 
BRANCH  10  12
ATOM     12  C   UNL     1       0.855   9.548  21.726  0.00  0.00    +0.000 C 
ATOM     13  O   UNL     1       1.464   9.480  22.792  0.00  0.00    +0.000 OA
ATOM     14  N   UNL     1      -0.174  10.437  21.525  0.00  0.00    +0.000 N 
ATOM     15  H   UNL     1      -0.744  10.423  20.686  0.00  0.00    +0.000 HD
BRANCH  14  16
ATOM     16  C   UNL     1      -0.633  11.331  22.570  0.00  0.00    +0.000 C 
BRANCH  16  17
ATOM     17  C   UNL     1      -0.434  12.734  22.126  0.00  0.00    +0.000 A 
ATOM     18  C   UNL     1      -1.271  13.828  22.041  0.00  0.00    +0.000 A 
ATOM     19  C   UNL     1      -0.491  14.894  21.528  0.00  0.00    +0.000 A 
ATOM     20  C   UNL     1       0.771  14.385  21.334  0.00  0.00    +0.000 A 
ATOM     21  O   UNL     1       0.817  13.075  21.693  0.00  0.00    +0.000 OA
ENDBRANCH  16  17
ENDBRANCH  14  16
ENDBRANCH  10  12
BRANCH  10  23
ATOM     22  N   UNL     1       0.761   9.559  18.185  0.00  0.00    +0.000 NA
ATOM     23  C   UNL     1       0.960   9.118  19.243  0.00  0.00    +0.000 C 
ENDBRANCH  10  23
ENDBRANCH   1  11
BRANCH   3  24
ATOM     24  C   UNL     1       4.472   5.549  17.205  0.00  0.00    +0.000 C 
BRANCH  24  25
ATOM     25  C   UNL     1       5.773   6.081  17.761  0.00  0.00    +0.000 A 
ATOM     26  C   UNL     1       6.383   7.208  17.193  0.00  0.00    +0.000 A 
ATOM     27  C   UNL     1       7.642   7.629  17.631  0.00  0.00    +0.000 A 
ATOM     28  C   UNL     1       8.296   6.938  18.649  0.00  0.00    +0.000 A 
ATOM     29  C   UNL     1       7.679   5.851  19.258  0.00  0.00    +0.000 A 
ATOM     30  C   UNL     1       6.419   5.434  18.827  0.00  0.00    +0.000 A 
ENDBRANCH  24  25
ENDBRANCH   3  24
TORSDOF 7
ENDMDL
MODEL 7
REMARK VINA RESULT:      -8.3      2.884      5.078
REMARK  Name = 
REMARK  7 active torsions:
REMARK  status: ('A' for Active; 'I' for Inactive)
REMARK    1  A    between atoms: C_2  and  C_3
REMARK    2  A    between atoms: C_3  and  C_21
REMARK    3  A    between atoms: C_4  and  C_5
REMARK    4  A    between atoms: N_7  and  C_8
REMARK    5  A    between atoms: C_8  and  C_9
REMARK    6  A    between atoms: N_23  and  C_24
REMARK    7  A    between atoms: C_24  and  C_25
REMARK                            x       y       z     vdW  Elec       q    Type
REMARK                         _______ _______ _______ _____ _____    ______ ____
ROOT
ATOM      1  C   UNL     1       4.227   6.462  17.684  0.00  0.00    +0.000 A 
ATOM      2  C   UNL     1       4.220   5.626  18.774  0.00  0.00    +0.000 A 
ATOM      3  N   UNL     1       4.726   4.412  18.364  0.00  0.00    +0.000 N 
ATOM      4  C   UNL     1       5.178   4.502  17.059  0.00  0.00    +0.000 A 
ATOM      5  C   UNL     1       5.744   3.540  16.205  0.00  0.00    +0.000 A 
ATOM      6  C   UNL     1       6.080   3.928  14.904  0.00  0.00    +0.000 A 
ATOM      7  C   UNL     1       5.875   5.232  14.470  0.00  0.00    +0.000 A 
ATOM      8  C   UNL     1       5.292   6.179  15.317  0.00  0.00    +0.000 A 
ATOM      9  C   UNL     1       4.921   5.809  16.627  0.00  0.00    +0.000 A 
ENDROOT
BRANCH   1  11
ATOM     10  C   UNL     1       2.522   8.034  18.462  0.00  0.00    +0.000 C 
ATOM     11  C   UNL     1       3.526   7.705  17.621  0.00  0.00    +0.000 C 
BRANCH  10  12
ATOM     12  C   UNL     1       1.839   9.355  18.285  0.00  0.00    +0.000 C 
ATOM     13  O   UNL     1       2.212  10.161  17.436  0.00  0.00    +0.000 OA
ATOM     14  N   UNL     1       0.774   9.607  19.118  0.00  0.00    +0.000 N 
ATOM     15  H   UNL     1       0.532   8.991  19.887  0.00  0.00    +0.000 HD
BRANCH  14  16
ATOM     16  C   UNL     1       0.042  10.857  19.073  0.00  0.00    +0.000 C 
BRANCH  16  17
ATOM     17  C   UNL     1      -1.243  10.637  18.362  0.00  0.00    +0.000 A 
ATOM     18  C   UNL     1      -1.623   9.804  17.330  0.00  0.00    +0.000 A 
ATOM     19  C   UNL     1      -2.995  10.062  17.087  0.00  0.00    +0.000 A 
ATOM     20  C   UNL     1      -3.366  11.035  17.985  0.00  0.00    +0.000 A 
ATOM     21  O   UNL     1      -2.311  11.391  18.764  0.00  0.00    +0.000 OA
ENDBRANCH  16  17
ENDBRANCH  14  16
ENDBRANCH  10  12
BRANCH  10  23
ATOM     22  N   UNL     1       1.753   6.510  20.403  0.00  0.00    +0.000 NA
ATOM     23  C   UNL     1       2.101   7.163  19.505  0.00  0.00    +0.000 C 
ENDBRANCH  10  23
ENDBRANCH   1  11
BRANCH   3  24
ATOM     24  C   UNL     1       4.688   3.193  19.173  0.00  0.00    +0.000 C 
BRANCH  24  25
ATOM     25  C   UNL     1       3.311   2.967  19.756  0.00  0.00    +0.000 A 
ATOM     26  C   UNL     1       2.186   2.897  18.922  0.00  0.00    +0.000 A 
ATOM     27  C   UNL     1       0.903   2.806  19.470  0.00  0.00    +0.000 A 
ATOM     28  C   UNL     1       0.732   2.771  20.852  0.00  0.00    +0.000 A 
ATOM     29  C   UNL     1       1.842   2.787  21.689  0.00  0.00    +0.000 A 
ATOM     30  C   UNL     1       3.124   2.869  21.145  0.00  0.00    +0.000 A 
ENDBRANCH  24  25
ENDBRANCH   3  24
TORSDOF 7
ENDMDL
MODEL 8
REMARK VINA RESULT:      -8.3      1.091      1.426
REMARK  Name = 
REMARK  7 active torsions:
REMARK  status: ('A' for Active; 'I' for Inactive)
REMARK    1  A    between atoms: C_2  and  C_3
REMARK    2  A    between atoms: C_3  and  C_21
REMARK    3  A    between atoms: C_4  and  C_5
REMARK    4  A    between atoms: N_7  and  C_8
REMARK    5  A    between atoms: C_8  and  C_9
REMARK    6  A    between atoms: N_23  and  C_24
REMARK    7  A    between atoms: C_24  and  C_25
REMARK                            x       y       z     vdW  Elec       q    Type
REMARK                         _______ _______ _______ _____ _____    ______ ____
ROOT
ATOM      1  C   UNL     1       2.219   6.555  19.679  0.00  0.00    +0.000 A 
ATOM      2  C   UNL     1       3.065   6.768  18.616  0.00  0.00    +0.000 A 
ATOM      3  N   UNL     1       3.433   5.533  18.130  0.00  0.00    +0.000 N 
ATOM      4  C   UNL     1       2.731   4.535  18.785  0.00  0.00    +0.000 A 
ATOM      5  C   UNL     1       2.776   3.136  18.663  0.00  0.00    +0.000 A 
ATOM      6  C   UNL     1       1.954   2.374  19.499  0.00  0.00    +0.000 A 
ATOM      7  C   UNL     1       1.104   2.981  20.415  0.00  0.00    +0.000 A 
ATOM      8  C   UNL     1       1.079   4.373  20.547  0.00  0.00    +0.000 A 
ATOM      9  C   UNL     1       1.916   5.166  19.733  0.00  0.00    +0.000 A 
ENDROOT
BRANCH   1  11
ATOM     10  C   UNL     1       1.348   8.763  20.269  0.00  0.00    +0.000 C 
ATOM     11  C   UNL     1       1.848   7.560  20.623  0.00  0.00    +0.000 C 
BRANCH  10  12
ATOM     12  C   UNL     1       1.020   9.751  21.346  0.00  0.00    +0.000 C 
ATOM     13  O   UNL     1       1.532   9.680  22.460  0.00  0.00    +0.000 OA
ATOM     14  N   UNL     1       0.122  10.738  21.013  0.00  0.00    +0.000 N 
ATOM     15  H   UNL     1      -0.380  10.738  20.132  0.00  0.00    +0.000 HD
BRANCH  14  16
ATOM     16  C   UNL     1      -0.306  11.742  21.968  0.00  0.00    +0.000 C 
BRANCH  16  17
ATOM     17  C   UNL     1       0.095  13.082  21.471  0.00  0.00    +0.000 A 
ATOM     18  C   UNL     1       0.003  13.703  20.242  0.00  0.00    +0.000 A 
ATOM     19  C   UNL     1       0.574  14.990  20.397  0.00  0.00    +0.000 A 
ATOM     20  C   UNL     1       0.978  15.075  21.708  0.00  0.00    +0.000 A 
ATOM     21  O   UNL     1       0.692  13.923  22.370  0.00  0.00    +0.000 OA
ENDBRANCH  16  17
ENDBRANCH  14  16
ENDBRANCH  10  12
BRANCH  10  23
ATOM     22  N   UNL     1       0.905   9.454  17.818  0.00  0.00    +0.000 NA
ATOM     23  C   UNL     1       1.128   9.113  18.907  0.00  0.00    +0.000 C 
ENDBRANCH  10  23
ENDBRANCH   1  11
BRANCH   3  24
ATOM     24  C   UNL     1       4.489   5.324  17.138  0.00  0.00    +0.000 C 
BRANCH  24  25
ATOM     25  C   UNL     1       5.816   5.853  17.633  0.00  0.00    +0.000 A 
ATOM     26  C   UNL     1       6.469   5.242  18.712  0.00  0.00    +0.000 A 
ATOM     27  C   UNL     1       7.635   5.800  19.243  0.00  0.00    +0.000 A 
ATOM     28  C   UNL     1       8.167   6.965  18.693  0.00  0.00    +0.000 A 
ATOM     29  C   UNL     1       7.559   7.551  17.589  0.00  0.00    +0.000 A 
ATOM     30  C   UNL     1       6.399   6.992  17.052  0.00  0.00    +0.000 A 
ENDBRANCH  24  25
ENDBRANCH   3  24
TORSDOF 7
ENDMDL
MODEL 9
REMARK VINA RESULT:      -8.2      1.248      1.339
REMARK  Name = 
REMARK  7 active torsions:
REMARK  status: ('A' for Active; 'I' for Inactive)
REMARK    1  A    between atoms: C_2  and  C_3
REMARK    2  A    between atoms: C_3  and  C_21
REMARK    3  A    between atoms: C_4  and  C_5
REMARK    4  A    between atoms: N_7  and  C_8
REMARK    5  A    between atoms: C_8  and  C_9
REMARK    6  A    between atoms: N_23  and  C_24
REMARK    7  A    between atoms: C_24  and  C_25
REMARK                            x       y       z     vdW  Elec       q    Type
REMARK                         _______ _______ _______ _____ _____    ______ ____
ROOT
ATOM      1  C   UNL     1       2.474   6.155  19.053  0.00  0.00    +0.000 A 
ATOM      2  C   UNL     1       3.487   6.481  18.182  0.00  0.00    +0.000 A 
ATOM      3  N   UNL     1       3.890   5.315  17.567  0.00  0.00    +0.000 N 
ATOM      4  C   UNL     1       3.059   4.271  17.936  0.00  0.00    +0.000 A 
ATOM      5  C   UNL     1       3.078   2.907  17.599  0.00  0.00    +0.000 A 
ATOM      6  C   UNL     1       2.108   2.074  18.163  0.00  0.00    +0.000 A 
ATOM      7  C   UNL     1       1.139   2.581  19.022  0.00  0.00    +0.000 A 
ATOM      8  C   UNL     1       1.138   3.935  19.370  0.00  0.00    +0.000 A 
ATOM      9  C   UNL     1       2.121   4.794  18.835  0.00  0.00    +0.000 A 
ENDROOT
BRANCH   1  11
ATOM     10  C   UNL     1       1.614   8.302  19.853  0.00  0.00    +0.000 C 
ATOM     11  C   UNL     1       1.986   7.023  20.077  0.00  0.00    +0.000 C 
BRANCH  10  12
ATOM     12  C   UNL     1       1.145   9.128  21.010  0.00  0.00    +0.000 C 
ATOM     13  O   UNL     1       1.231   8.721  22.166  0.00  0.00    +0.000 OA
ATOM     14  N   UNL     1       0.619  10.362  20.704  0.00  0.00    +0.000 N 
ATOM     15  H   UNL     1       0.450  10.655  19.748  0.00  0.00    +0.000 HD
BRANCH  14  16
ATOM     16  C   UNL     1       0.101  11.251  21.725  0.00  0.00    +0.000 C 
BRANCH  16  17
ATOM     17  C   UNL     1      -1.051  12.003  21.168  0.00  0.00    +0.000 A 
ATOM     18  C   UNL     1      -1.713  13.150  21.561  0.00  0.00    +0.000 A 
ATOM     19  C   UNL     1      -2.747  13.362  20.616  0.00  0.00    +0.000 A 
ATOM     20  C   UNL     1      -2.652  12.335  19.707  0.00  0.00    +0.000 A 
ATOM     21  O   UNL     1      -1.627  11.505  20.032  0.00  0.00    +0.000 OA
ENDBRANCH  16  17
ENDBRANCH  14  16
ENDBRANCH  10  12
BRANCH  10  23
ATOM     22  N   UNL     1       1.708   9.416  17.522  0.00  0.00    +0.000 NA
ATOM     23  C   UNL     1       1.659   8.879  18.553  0.00  0.00    +0.000 C 
ENDBRANCH  10  23
ENDBRANCH   1  11
BRANCH   3  24
ATOM     24  C   UNL     1       5.085   5.202  16.731  0.00  0.00    +0.000 C 
BRANCH  24  25
ATOM     25  C   UNL     1       6.272   5.879  17.378  0.00  0.00    +0.000 A 
ATOM     26  C   UNL     1       6.932   5.279  18.460  0.00  0.00    +0.000 A 
ATOM     27  C   UNL     1       7.952   5.958  19.132  0.00  0.00    +0.000 A 
ATOM     28  C   UNL     1       8.332   7.234  18.722  0.00  0.00    +0.000 A 
ATOM     29  C   UNL     1       7.723   7.819  17.617  0.00  0.00    +0.000 A 
ATOM     30  C   UNL     1       6.709   7.140  16.940  0.00  0.00    +0.000 A 
ENDBRANCH  24  25
ENDBRANCH   3  24
TORSDOF 7
ENDMDL
