MODEL 1
REMARK VINA RESULT:      -7.6      0.000      0.000
REMARK  Name = 
REMARK  8 active torsions:
REMARK  status: ('A' for Active; 'I' for Inactive)
REMARK    1  A    between atoms: C_1  and  C_2
REMARK    2  A    between atoms: C_2  and  N_3
REMARK    3  A    between atoms: N_3  and  C_4
REMARK    4  A    between atoms: C_4  and  C_5
REMARK    5  A    between atoms: N_8  and  C_9
REMARK    6  A    between atoms: C_18  and  C_19
REMARK    7  A    between atoms: C_19  and  O_21
REMARK    8  A    between atoms: N_23  and  C_24
REMARK                            x       y       z     vdW  Elec       q    Type
REMARK                         _______ _______ _______ _____ _____    ______ ____
ROOT
ATOM      1  C   UNL     1       1.406   8.840  19.448  0.00  0.00    +0.000 A 
ATOM      2  C   UNL     1       1.679   7.539  19.919  0.00  0.00    +0.000 A 
ATOM      3  C   UNL     1       2.589   6.676  19.267  0.00  0.00    +0.000 A 
ATOM      4  C   UNL     1       3.241   7.141  18.105  0.00  0.00    +0.000 A 
ATOM      5  C   UNL     1       2.937   8.421  17.600  0.00  0.00    +0.000 A 
ATOM      6  C   UNL     1       2.035   9.257  18.256  0.00  0.00    +0.000 A 
ATOM      7  F   UNL     1       1.795  10.475  17.709  0.00  0.00    +0.000 F 
ATOM      8  C   UNL     1       4.197   6.327  17.471  0.00  0.00    +0.000 A 
ATOM      9  O   UNL     1       4.770   6.736  16.473  0.00  0.00    +0.000 OA
ATOM     10  C   UNL     1       4.516   5.060  18.003  0.00  0.00    +0.000 A 
ATOM     11  C   UNL     1       3.822   4.635  19.153  0.00  0.00    +0.000 A 
ATOM     12  N   UNL     1       2.872   5.415  19.757  0.00  0.00    +0.000 N 
ENDROOT
BRANCH   1  16
ATOM     13  C   UNL     1      -0.138  11.601  21.489  0.00  0.00    +0.000 C 
ATOM     14  C   UNL     1      -0.877  11.564  20.157  0.00  0.00    +0.000 C 
ATOM     15  C   UNL     1      -0.794  10.090  19.769  0.00  0.00    +0.000 C 
ATOM     16  N   UNL     1       0.539   9.713  20.201  0.00  0.00    +0.000 N 
ATOM     17  C   UNL     1       1.049  10.680  21.163  0.00  0.00    +0.000 C 
BRANCH  13  18
ATOM     18  C   UNL     1      -1.034  11.099  22.646  0.00  0.00    +0.000 C 
BRANCH  18  19
ATOM     19  N   UNL     1      -1.550  12.229  23.430  0.00  0.00    +0.000 NA
ATOM     20  H   UNL     1      -1.142  12.195  24.392  0.00  0.00    +0.000 HD
BRANCH  19  22
ATOM     21  C   UNL     1      -3.671  12.754  22.327  0.00  0.00    +0.000 C 
ATOM     22  C   UNL     1      -3.008  12.156  23.564  0.00  0.00    +0.000 C 
ENDBRANCH  19  22
ENDBRANCH  18  19
ENDBRANCH  13  18
ENDBRANCH   1  16
BRANCH  12  23
ATOM     23  C   UNL     1       2.227   4.861  20.972  0.00  0.00    +0.000 C 
ATOM     24  C   UNL     1       1.075   3.909  20.610  0.00  0.00    +0.000 C 
ATOM     25  C   UNL     1       2.347   3.349  21.193  0.00  0.00    +0.000 C 
ENDBRANCH  12  23
BRANCH  10  26
ATOM     26  C   UNL     1       5.577   4.197  17.369  0.00  0.00    +0.000 C 
ATOM     27  O   UNL     1       5.343   3.617  16.321  0.00  0.00    +0.000 OA
BRANCH  26  28
ATOM     28  O   UNL     1       6.812   4.038  17.902  0.00  0.00    +0.000 OA
ATOM     29  H   UNL     1       7.361   3.252  17.805  0.00  0.00    +0.000 HD
ENDBRANCH  26  28
ENDBRANCH  10  26
TORSDOF 7
ENDMDL
MODEL 2
REMARK VINA RESULT:      -7.5      1.313      1.785
REMARK  Name = 
REMARK  8 active torsions:
REMARK  status: ('A' for Active; 'I' for Inactive)
REMARK    1  A    between atoms: C_1  and  C_2
REMARK    2  A    between atoms: C_2  and  N_3
REMARK    3  A    between atoms: N_3  and  C_4
REMARK    4  A    between atoms: C_4  and  C_5
REMARK    5  A    between atoms: N_8  and  C_9
REMARK    6  A    between atoms: C_18  and  C_19
REMARK    7  A    between atoms: C_19  and  O_21
REMARK    8  A    between atoms: N_23  and  C_24
REMARK                            x       y       z     vdW  Elec       q    Type
REMARK                         _______ _______ _______ _____ _____    ______ ____
ROOT
ATOM      1  C   UNL     1       2.183   8.045  19.156  0.00  0.00    +0.000 A 
ATOM      2  C   UNL     1       2.631   6.732  19.408  0.00  0.00    +0.000 A 
ATOM      3  C   UNL     1       3.528   6.062  18.547  0.00  0.00    +0.000 A 
ATOM      4  C   UNL     1       3.986   6.738  17.396  0.00  0.00    +0.000 A 
ATOM      5  C   UNL     1       3.505   8.032  17.111  0.00  0.00    +0.000 A 
ATOM      6  C   UNL     1       2.618   8.676  17.971  0.00  0.00    +0.000 A 
ATOM      7  F   UNL     1       2.201   9.921  17.628  0.00  0.00    +0.000 F 
ATOM      8  C   UNL     1       4.927   6.120  16.554  0.00  0.00    +0.000 A 
ATOM      9  O   UNL     1       5.332   6.711  15.564  0.00  0.00    +0.000 OA
ATOM     10  C   UNL     1       5.425   4.837  16.866  0.00  0.00    +0.000 A 
ATOM     11  C   UNL     1       4.920   4.197  18.015  0.00  0.00    +0.000 A 
ATOM     12  N   UNL     1       3.985   4.786  18.823  0.00  0.00    +0.000 N 
ENDROOT
BRANCH   1  16
ATOM     13  C   UNL     1      -0.579   9.830  20.989  0.00  0.00    +0.000 C 
ATOM     14  C   UNL     1      -0.348   8.507  21.709  0.00  0.00    +0.000 C 
ATOM     15  C   UNL     1       1.138   8.253  21.474  0.00  0.00    +0.000 C 
ATOM     16  N   UNL     1       1.339   8.716  20.114  0.00  0.00    +0.000 N 
ATOM     17  C   UNL     1       0.243   9.588  19.712  0.00  0.00    +0.000 C 
BRANCH  13  18
ATOM     18  C   UNL     1      -0.094  11.028  21.840  0.00  0.00    +0.000 C 
BRANCH  18  19
ATOM     19  N   UNL     1      -0.867  11.126  23.086  0.00  0.00    +0.000 NA
ATOM     20  H   UNL     1      -1.600  10.380  23.094  0.00  0.00    +0.000 HD
BRANCH  19  22
ATOM     21  C   UNL     1      -3.048  12.203  23.366  0.00  0.00    +0.000 C 
ATOM     22  C   UNL     1      -1.549  12.420  23.182  0.00  0.00    +0.000 C 
ENDBRANCH  19  22
ENDBRANCH  18  19
ENDBRANCH  13  18
ENDBRANCH   1  16
BRANCH  12  23
ATOM     23  C   UNL     1       3.548   4.017  20.012  0.00  0.00    +0.000 C 
ATOM     24  C   UNL     1       2.445   3.008  19.653  0.00  0.00    +0.000 C 
ATOM     25  C   UNL     1       3.824   2.509  20.001  0.00  0.00    +0.000 C 
ENDBRANCH  12  23
BRANCH  10  26
ATOM     26  C   UNL     1       6.474   4.181  16.005  0.00  0.00    +0.000 C 
ATOM     27  O   UNL     1       7.657   4.357  16.250  0.00  0.00    +0.000 OA
BRANCH  26  28
ATOM     28  O   UNL     1       6.171   3.374  14.961  0.00  0.00    +0.000 OA
ATOM     29  H   UNL     1       5.984   3.673  14.064  0.00  0.00    +0.000 HD
ENDBRANCH  26  28
ENDBRANCH  10  26
TORSDOF 7
ENDMDL
MODEL 3
REMARK VINA RESULT:      -7.5      0.987      1.481
REMARK  Name = 
REMARK  8 active torsions:
REMARK  status: ('A' for Active; 'I' for Inactive)
REMARK    1  A    between atoms: C_1  and  C_2
REMARK    2  A    between atoms: C_2  and  N_3
REMARK    3  A    between atoms: N_3  and  C_4
REMARK    4  A    between atoms: C_4  and  C_5
REMARK    5  A    between atoms: N_8  and  C_9
REMARK    6  A    between atoms: C_18  and  C_19
REMARK    7  A    between atoms: C_19  and  O_21
REMARK    8  A    between atoms: N_23  and  C_24
REMARK                            x       y       z     vdW  Elec       q    Type
REMARK                         _______ _______ _______ _____ _____    ______ ____
ROOT
ATOM      1  C   UNL     1       1.373   9.168  19.005  0.00  0.00    +0.000 A 
ATOM      2  C   UNL     1       1.546   7.900  19.596  0.00  0.00    +0.000 A 
ATOM      3  C   UNL     1       2.527   6.987  19.150  0.00  0.00    +0.000 A 
ATOM      4  C   UNL     1       3.357   7.365  18.074  0.00  0.00    +0.000 A 
ATOM      5  C   UNL     1       3.158   8.611  17.445  0.00  0.00    +0.000 A 
ATOM      6  C   UNL     1       2.184   9.498  17.898  0.00  0.00    +0.000 A 
ATOM      7  F   UNL     1       2.053  10.678  17.242  0.00  0.00    +0.000 F 
ATOM      8  C   UNL     1       4.383   6.502  17.648  0.00  0.00    +0.000 A 
ATOM      9  O   UNL     1       5.108   6.836  16.724  0.00  0.00    +0.000 OA
ATOM     10  C   UNL     1       4.593   5.271  18.305  0.00  0.00    +0.000 A 
ATOM     11  C   UNL     1       3.724   4.931  19.360  0.00  0.00    +0.000 A 
ATOM     12  N   UNL     1       2.708   5.759  19.760  0.00  0.00    +0.000 N 
ENDROOT
BRANCH   1  16
ATOM     13  C   UNL     1      -0.472  12.166  20.339  0.00  0.00    +0.000 C 
ATOM     14  C   UNL     1      -1.244  11.673  19.121  0.00  0.00    +0.000 C 
ATOM     15  C   UNL     1      -0.968  10.172  19.136  0.00  0.00    +0.000 C 
ATOM     16  N   UNL     1       0.418  10.098  19.557  0.00  0.00    +0.000 N 
ATOM     17  C   UNL     1       0.820  11.348  20.187  0.00  0.00    +0.000 C 
BRANCH  13  18
ATOM     18  C   UNL     1      -1.249  11.893  21.649  0.00  0.00    +0.000 C 
BRANCH  18  19
ATOM     19  N   UNL     1      -0.339  11.428  22.704  0.00  0.00    +0.000 NA
ATOM     20  H   UNL     1       0.593  11.212  22.283  0.00  0.00    +0.000 HD
BRANCH  19  22
ATOM     21  C   UNL     1      -0.038   9.002  22.829  0.00  0.00    +0.000 C 
ATOM     22  C   UNL     1      -0.840  10.199  23.328  0.00  0.00    +0.000 C 
ENDBRANCH  19  22
ENDBRANCH  18  19
ENDBRANCH  13  18
ENDBRANCH   1  16
BRANCH  12  23
ATOM     23  C   UNL     1       1.875   5.295  20.895  0.00  0.00    +0.000 C 
ATOM     24  C   UNL     1       0.938   4.152  20.472  0.00  0.00    +0.000 C 
ATOM     25  C   UNL     1       2.104   3.860  21.381  0.00  0.00    +0.000 C 
ENDBRANCH  12  23
BRANCH  10  26
ATOM     26  C   UNL     1       5.721   4.357  17.899  0.00  0.00    +0.000 C 
ATOM     27  O   UNL     1       6.678   4.208  18.642  0.00  0.00    +0.000 OA
BRANCH  26  28
ATOM     28  O   UNL     1       5.725   3.662  16.737  0.00  0.00    +0.000 OA
ATOM     29  H   UNL     1       5.102   2.965  16.505  0.00  0.00    +0.000 HD
ENDBRANCH  26  28
ENDBRANCH  10  26
TORSDOF 7
ENDMDL
MODEL 4
REMARK VINA RESULT:      -7.4      2.700      3.842
REMARK  Name = 
REMARK  8 active torsions:
REMARK  status: ('A' for Active; 'I' for Inactive)
REMARK    1  A    between atoms: C_1  and  C_2
REMARK    2  A    between atoms: C_2  and  N_3
REMARK    3  A    between atoms: N_3  and  C_4
REMARK    4  A    between atoms: C_4  and  C_5
REMARK    5  A    between atoms: N_8  and  C_9
REMARK    6  A    between atoms: C_18  and  C_19
REMARK    7  A    between atoms: C_19  and  O_21
REMARK    8  A    between atoms: N_23  and  C_24
REMARK                            x       y       z     vdW  Elec       q    Type
REMARK                         _______ _______ _______ _____ _____    ______ ____
ROOT
ATOM      1  C   UNL     1       1.784   8.296  19.401  0.00  0.00    +0.000 A 
ATOM      2  C   UNL     1       2.689   7.653  18.532  0.00  0.00    +0.000 A 
ATOM      3  C   UNL     1       3.117   6.322  18.738  0.00  0.00    +0.000 A 
ATOM      4  C   UNL     1       2.617   5.622  19.856  0.00  0.00    +0.000 A 
ATOM      5  C   UNL     1       1.751   6.273  20.757  0.00  0.00    +0.000 A 
ATOM      6  C   UNL     1       1.341   7.587  20.538  0.00  0.00    +0.000 A 
ATOM      7  F   UNL     1       0.506   8.145  21.450  0.00  0.00    +0.000 F 
ATOM      8  C   UNL     1       2.977   4.276  20.052  0.00  0.00    +0.000 A 
ATOM      9  O   UNL     1       2.534   3.667  21.014  0.00  0.00    +0.000 OA
ATOM     10  C   UNL     1       3.820   3.624  19.127  0.00  0.00    +0.000 A 
ATOM     11  C   UNL     1       4.308   4.375  18.039  0.00  0.00    +0.000 A 
ATOM     12  N   UNL     1       3.979   5.692  17.860  0.00  0.00    +0.000 N 
ENDROOT
BRANCH   1  16
ATOM     13  C   UNL     1       0.612  11.873  19.465  0.00  0.00    +0.000 C 
ATOM     14  C   UNL     1       1.875  11.833  18.614  0.00  0.00    +0.000 C 
ATOM     15  C   UNL     1       1.825  10.432  18.008  0.00  0.00    +0.000 C 
ATOM     16  N   UNL     1       1.309   9.624  19.096  0.00  0.00    +0.000 N 
ATOM     17  C   UNL     1       0.665  10.470  20.091  0.00  0.00    +0.000 C 
BRANCH  13  18
ATOM     18  C   UNL     1      -0.644  12.137  18.600  0.00  0.00    +0.000 C 
BRANCH  18  19
ATOM     19  N   UNL     1      -1.823  11.485  19.186  0.00  0.00    +0.000 NA
ATOM     20  H   UNL     1      -1.510  10.722  19.827  0.00  0.00    +0.000 HD
BRANCH  19  22
ATOM     21  C   UNL     1      -1.804  10.002  17.239  0.00  0.00    +0.000 C 
ATOM     22  C   UNL     1      -2.661  10.878  18.147  0.00  0.00    +0.000 C 
ENDBRANCH  19  22
ENDBRANCH  18  19
ENDBRANCH  13  18
ENDBRANCH   1  16
BRANCH  12  23
ATOM     23  C   UNL     1       4.542   6.365  16.666  0.00  0.00    +0.000 C 
ATOM     24  C   UNL     1       5.999   6.797  16.900  0.00  0.00    +0.000 C 
ATOM     25  C   UNL     1       5.703   5.660  15.956  0.00  0.00    +0.000 C 
ENDBRANCH  12  23
BRANCH  10  26
ATOM     26  C   UNL     1       4.173   2.168  19.290  0.00  0.00    +0.000 C 
ATOM     27  O   UNL     1       3.660   1.333  18.561  0.00  0.00    +0.000 OA
BRANCH  26  28
ATOM     28  O   UNL     1       5.061   1.724  20.210  0.00  0.00    +0.000 OA
ATOM     29  H   UNL     1       4.987   1.856  21.162  0.00  0.00    +0.000 HD
ENDBRANCH  26  28
ENDBRANCH  10  26
TORSDOF 7
ENDMDL
MODEL 5
REMARK VINA RESULT:      -7.4      0.734      1.130
REMARK  Name = 
REMARK  8 active torsions:
REMARK  status: ('A' for Active; 'I' for Inactive)
REMARK    1  A    between atoms: C_1  and  C_2
REMARK    2  A    between atoms: C_2  and  N_3
REMARK    3  A    between atoms: N_3  and  C_4
REMARK    4  A    between atoms: C_4  and  C_5
REMARK    5  A    between atoms: N_8  and  C_9
REMARK    6  A    between atoms: C_18  and  C_19
REMARK    7  A    between atoms: C_19  and  O_21
REMARK    8  A    between atoms: N_23  and  C_24
REMARK                            x       y       z     vdW  Elec       q    Type
REMARK                         _______ _______ _______ _____ _____    ______ ____
ROOT
ATOM      1  C   UNL     1       1.561   8.652  19.869  0.00  0.00    +0.000 A 
ATOM      2  C   UNL     1       1.802   7.314  20.240  0.00  0.00    +0.000 A 
ATOM      3  C   UNL     1       2.584   6.441  19.451  0.00  0.00    +0.000 A 
ATOM      4  C   UNL     1       3.136   6.934  18.250  0.00  0.00    +0.000 A 
ATOM      5  C   UNL     1       2.859   8.256  17.846  0.00  0.00    +0.000 A 
ATOM      6  C   UNL     1       2.084   9.102  18.638  0.00  0.00    +0.000 A 
ATOM      7  F   UNL     1       1.862  10.360  18.182  0.00  0.00    +0.000 F 
ATOM      8  C   UNL     1       3.969   6.107  17.475  0.00  0.00    +0.000 A 
ATOM      9  O   UNL     1       4.456   6.539  16.442  0.00  0.00    +0.000 OA
ATOM     10  C   UNL     1       4.265   4.795  17.904  0.00  0.00    +0.000 A 
ATOM     11  C   UNL     1       3.671   4.345  19.100  0.00  0.00    +0.000 A 
ATOM     12  N   UNL     1       2.840   5.140  19.843  0.00  0.00    +0.000 N 
ENDROOT
BRANCH   1  16
ATOM     13  C   UNL     1      -1.013  10.727  21.670  0.00  0.00    +0.000 C 
ATOM     14  C   UNL     1      -0.485   9.705  22.669  0.00  0.00    +0.000 C 
ATOM     15  C   UNL     1       0.951   9.490  22.200  0.00  0.00    +0.000 C 
ATOM     16  N   UNL     1       0.832   9.528  20.754  0.00  0.00    +0.000 N 
ATOM     17  C   UNL     1      -0.421  10.161  20.369  0.00  0.00    +0.000 C 
BRANCH  13  18
ATOM     18  C   UNL     1      -0.534  12.157  22.017  0.00  0.00    +0.000 C 
BRANCH  18  19
ATOM     19  N   UNL     1      -1.126  12.608  23.284  0.00  0.00    +0.000 NA
ATOM     20  H   UNL     1      -1.267  11.783  23.910  0.00  0.00    +0.000 HD
BRANCH  19  22
ATOM     21  C   UNL     1      -3.512  12.444  23.807  0.00  0.00    +0.000 C 
ATOM     22  C   UNL     1      -2.436  13.228  23.062  0.00  0.00    +0.000 C 
ENDBRANCH  19  22
ENDBRANCH  18  19
ENDBRANCH  13  18
ENDBRANCH   1  16
BRANCH  12  23
ATOM     23  C   UNL     1       2.294   4.555  21.090  0.00  0.00    +0.000 C 
ATOM     24  C   UNL     1       1.122   3.603  20.798  0.00  0.00    +0.000 C 
ATOM     25  C   UNL     1       2.439   3.039  21.267  0.00  0.00    +0.000 C 
ENDBRANCH  12  23
BRANCH  10  26
ATOM     26  C   UNL     1       5.199   3.912  17.116  0.00  0.00    +0.000 C 
ATOM     27  O   UNL     1       4.760   2.937  16.528  0.00  0.00    +0.000 OA
BRANCH  26  28
ATOM     28  O   UNL     1       6.526   4.156  17.008  0.00  0.00    +0.000 OA
ATOM     29  H   UNL     1       7.124   4.312  17.747  0.00  0.00    +0.000 HD
ENDBRANCH  26  28
ENDBRANCH  10  26
TORSDOF 7
ENDMDL
MODEL 6
REMARK VINA RESULT:      -7.2      1.526      1.946
REMARK  Name = 
REMARK  8 active torsions:
REMARK  status: ('A' for Active; 'I' for Inactive)
REMARK    1  A    between atoms: C_1  and  C_2
REMARK    2  A    between atoms: C_2  and  N_3
REMARK    3  A    between atoms: N_3  and  C_4
REMARK    4  A    between atoms: C_4  and  C_5
REMARK    5  A    between atoms: N_8  and  C_9
REMARK    6  A    between atoms: C_18  and  C_19
REMARK    7  A    between atoms: C_19  and  O_21
REMARK    8  A    between atoms: N_23  and  C_24
REMARK                            x       y       z     vdW  Elec       q    Type
REMARK                         _______ _______ _______ _____ _____    ______ ____
ROOT
ATOM      1  C   UNL     1       2.146   8.023  19.231  0.00  0.00    +0.000 A 
ATOM      2  C   UNL     1       2.570   6.695  19.441  0.00  0.00    +0.000 A 
ATOM      3  C   UNL     1       3.470   6.043  18.568  0.00  0.00    +0.000 A 
ATOM      4  C   UNL     1       3.954   6.754  17.449  0.00  0.00    +0.000 A 
ATOM      5  C   UNL     1       3.497   8.064  17.205  0.00  0.00    +0.000 A 
ATOM      6  C   UNL     1       2.608   8.690  18.076  0.00  0.00    +0.000 A 
ATOM      7  F   UNL     1       2.214   9.953  17.774  0.00  0.00    +0.000 F 
ATOM      8  C   UNL     1       4.898   6.152  16.598  0.00  0.00    +0.000 A 
ATOM      9  O   UNL     1       5.326   6.773  15.637  0.00  0.00    +0.000 OA
ATOM     10  C   UNL     1       5.372   4.851  16.869  0.00  0.00    +0.000 A 
ATOM     11  C   UNL     1       4.841   4.177  17.987  0.00  0.00    +0.000 A 
ATOM     12  N   UNL     1       3.903   4.751  18.803  0.00  0.00    +0.000 N 
ENDROOT
BRANCH   1  16
ATOM     13  C   UNL     1      -0.584   9.845  21.074  0.00  0.00    +0.000 C 
ATOM     14  C   UNL     1      -0.485   8.454  21.686  0.00  0.00    +0.000 C 
ATOM     15  C   UNL     1       0.991   8.112  21.503  0.00  0.00    +0.000 C 
ATOM     16  N   UNL     1       1.298   8.672  20.201  0.00  0.00    +0.000 N 
ATOM     17  C   UNL     1       0.288   9.652  19.823  0.00  0.00    +0.000 C 
BRANCH  13  18
ATOM     18  C   UNL     1      -0.066  10.929  22.050  0.00  0.00    +0.000 C 
BRANCH  18  19
ATOM     19  N   UNL     1       0.657  11.980  21.321  0.00  0.00    +0.000 NA
ATOM     20  H   UNL     1       1.664  11.961  21.600  0.00  0.00    +0.000 HD
BRANCH  19  22
ATOM     21  C   UNL     1      -0.951  13.185  22.719  0.00  0.00    +0.000 C 
ATOM     22  C   UNL     1       0.129  13.308  21.650  0.00  0.00    +0.000 C 
ENDBRANCH  19  22
ENDBRANCH  18  19
ENDBRANCH  13  18
ENDBRANCH   1  16
BRANCH  12  23
ATOM     23  C   UNL     1       3.438   3.946  19.957  0.00  0.00    +0.000 C 
ATOM     24  C   UNL     1       2.513   2.803  19.506  0.00  0.00    +0.000 C 
ATOM     25  C   UNL     1       3.897   2.484  20.011  0.00  0.00    +0.000 C 
ENDBRANCH  12  23
BRANCH  10  26
ATOM     26  C   UNL     1       6.424   4.211  16.000  0.00  0.00    +0.000 C 
ATOM     27  O   UNL     1       6.099   3.386  15.161  0.00  0.00    +0.000 OA
BRANCH  26  28
ATOM     28  O   UNL     1       7.739   4.519  16.088  0.00  0.00    +0.000 OA
ATOM     29  H   UNL     1       8.438   3.905  16.341  0.00  0.00    +0.000 HD
ENDBRANCH  26  28
ENDBRANCH  10  26
TORSDOF 7
ENDMDL
MODEL 7
REMARK VINA RESULT:      -7.2      1.204      1.898
REMARK  Name = 
REMARK  8 active torsions:
REMARK  status: ('A' for Active; 'I' for Inactive)
REMARK    1  A    between atoms: C_1  and  C_2
REMARK    2  A    between atoms: C_2  and  N_3
REMARK    3  A    between atoms: N_3  and  C_4
REMARK    4  A    between atoms: C_4  and  C_5
REMARK    5  A    between atoms: N_8  and  C_9
REMARK    6  A    between atoms: C_18  and  C_19
REMARK    7  A    between atoms: C_19  and  O_21
REMARK    8  A    between atoms: N_23  and  C_24
REMARK                            x       y       z     vdW  Elec       q    Type
REMARK                         _______ _______ _______ _____ _____    ______ ____
ROOT
ATOM      1  C   UNL     1       1.581   8.627  19.909  0.00  0.00    +0.000 A 
ATOM      2  C   UNL     1       1.830   7.287  20.271  0.00  0.00    +0.000 A 
ATOM      3  C   UNL     1       2.603   6.419  19.468  0.00  0.00    +0.000 A 
ATOM      4  C   UNL     1       3.139   6.919  18.263  0.00  0.00    +0.000 A 
ATOM      5  C   UNL     1       2.854   8.242  17.868  0.00  0.00    +0.000 A 
ATOM      6  C   UNL     1       2.088   9.083  18.673  0.00  0.00    +0.000 A 
ATOM      7  F   UNL     1       1.858  10.343  18.226  0.00  0.00    +0.000 F 
ATOM      8  C   UNL     1       3.964   6.096  17.474  0.00  0.00    +0.000 A 
ATOM      9  O   UNL     1       4.437   6.534  16.436  0.00  0.00    +0.000 OA
ATOM     10  C   UNL     1       4.267   4.784  17.893  0.00  0.00    +0.000 A 
ATOM     11  C   UNL     1       3.690   4.327  19.094  0.00  0.00    +0.000 A 
ATOM     12  N   UNL     1       2.866   5.117  19.851  0.00  0.00    +0.000 N 
ENDROOT
BRANCH   1  16
ATOM     13  C   UNL     1      -0.982  10.648  21.783  0.00  0.00    +0.000 C 
ATOM     14  C   UNL     1      -0.366   9.675  22.780  0.00  0.00    +0.000 C 
ATOM     15  C   UNL     1       1.053   9.503  22.245  0.00  0.00    +0.000 C 
ATOM     16  N   UNL     1       0.863   9.497  20.807  0.00  0.00    +0.000 N 
ATOM     17  C   UNL     1      -0.433  10.070  20.469  0.00  0.00    +0.000 C 
BRANCH  13  18
ATOM     18  C   UNL     1      -0.545  12.105  22.070  0.00  0.00    +0.000 C 
BRANCH  18  19
ATOM     19  N   UNL     1      -0.564  12.904  20.838  0.00  0.00    +0.000 NA
ATOM     20  H   UNL     1      -0.508  12.265  20.013  0.00  0.00    +0.000 HD
BRANCH  19  22
ATOM     21  C   UNL     1       1.868  13.001  20.574  0.00  0.00    +0.000 C 
ATOM     22  C   UNL     1       0.589  13.808  20.778  0.00  0.00    +0.000 C 
ENDBRANCH  19  22
ENDBRANCH  18  19
ENDBRANCH  13  18
ENDBRANCH   1  16
BRANCH  12  23
ATOM     23  C   UNL     1       2.337   4.526  21.103  0.00  0.00    +0.000 C 
ATOM     24  C   UNL     1       1.137   3.605  20.825  0.00  0.00    +0.000 C 
ATOM     25  C   UNL     1       2.452   3.004  21.253  0.00  0.00    +0.000 C 
ENDBRANCH  12  23
BRANCH  10  26
ATOM     26  C   UNL     1       5.193   3.906  17.090  0.00  0.00    +0.000 C 
ATOM     27  O   UNL     1       4.748   2.933  16.501  0.00  0.00    +0.000 OA
BRANCH  26  28
ATOM     28  O   UNL     1       6.519   4.151  16.967  0.00  0.00    +0.000 OA
ATOM     29  H   UNL     1       7.221   3.540  17.214  0.00  0.00    +0.000 HD
ENDBRANCH  26  28
ENDBRANCH  10  26
TORSDOF 7
ENDMDL
MODEL 8
REMARK VINA RESULT:      -7.1      2.379      3.599
REMARK  Name = 
REMARK  8 active torsions:
REMARK  status: ('A' for Active; 'I' for Inactive)
REMARK    1  A    between atoms: C_1  and  C_2
REMARK    2  A    between atoms: C_2  and  N_3
REMARK    3  A    between atoms: N_3  and  C_4
REMARK    4  A    between atoms: C_4  and  C_5
REMARK    5  A    between atoms: N_8  and  C_9
REMARK    6  A    between atoms: C_18  and  C_19
REMARK    7  A    between atoms: C_19  and  O_21
REMARK    8  A    between atoms: N_23  and  C_24
REMARK                            x       y       z     vdW  Elec       q    Type
REMARK                         _______ _______ _______ _____ _____    ______ ____
ROOT
ATOM      1  C   UNL     1       1.784   8.206  19.385  0.00  0.00    +0.000 A 
ATOM      2  C   UNL     1       2.708   7.572  18.529  0.00  0.00    +0.000 A 
ATOM      3  C   UNL     1       3.147   6.246  18.740  0.00  0.00    +0.000 A 
ATOM      4  C   UNL     1       2.638   5.539  19.850  0.00  0.00    +0.000 A 
ATOM      5  C   UNL     1       1.752   6.181  20.738  0.00  0.00    +0.000 A 
ATOM      6  C   UNL     1       1.332   7.491  20.514  0.00  0.00    +0.000 A 
ATOM      7  F   UNL     1       0.477   8.040  21.414  0.00  0.00    +0.000 F 
ATOM      8  C   UNL     1       3.008   4.198  20.050  0.00  0.00    +0.000 A 
ATOM      9  O   UNL     1       2.557   3.583  21.005  0.00  0.00    +0.000 OA
ATOM     10  C   UNL     1       3.872   3.555  19.138  0.00  0.00    +0.000 A 
ATOM     11  C   UNL     1       4.368   4.312  18.058  0.00  0.00    +0.000 A 
ATOM     12  N   UNL     1       4.029   5.626  17.875  0.00  0.00    +0.000 N 
ENDROOT
BRANCH   1  16
ATOM     13  C   UNL     1       0.569  11.768  19.433  0.00  0.00    +0.000 C 
ATOM     14  C   UNL     1       1.850  11.746  18.609  0.00  0.00    +0.000 C 
ATOM     15  C   UNL     1       1.830  10.347  17.999  0.00  0.00    +0.000 C 
ATOM     16  N   UNL     1       1.300   9.529  19.073  0.00  0.00    +0.000 N 
ATOM     17  C   UNL     1       0.625  10.364  20.057  0.00  0.00    +0.000 C 
BRANCH  13  18
ATOM     18  C   UNL     1      -0.671  12.020  18.542  0.00  0.00    +0.000 C 
BRANCH  18  19
ATOM     19  N   UNL     1      -1.539  13.044  19.139  0.00  0.00    +0.000 NA
ATOM     20  H   UNL     1      -0.994  13.586  19.848  0.00  0.00    +0.000 HD
BRANCH  19  22
ATOM     21  C   UNL     1      -2.562  12.668  21.331  0.00  0.00    +0.000 C 
ATOM     22  C   UNL     1      -2.679  12.432  19.829  0.00  0.00    +0.000 C 
ENDBRANCH  19  22
ENDBRANCH  18  19
ENDBRANCH  13  18
ENDBRANCH   1  16
BRANCH  12  23
ATOM     23  C   UNL     1       4.603   6.306  16.689  0.00  0.00    +0.000 C 
ATOM     24  C   UNL     1       6.051   6.755  16.948  0.00  0.00    +0.000 C 
ATOM     25  C   UNL     1       5.785   5.615  15.999  0.00  0.00    +0.000 C 
ENDBRANCH  12  23
BRANCH  10  26
ATOM     26  C   UNL     1       4.237   2.102  19.305  0.00  0.00    +0.000 C 
ATOM     27  O   UNL     1       3.734   1.262  18.576  0.00  0.00    +0.000 OA
BRANCH  26  28
ATOM     28  O   UNL     1       5.126   1.668  20.229  0.00  0.00    +0.000 OA
ATOM     29  H   UNL     1       5.037   0.863  20.750  0.00  0.00    +0.000 HD
ENDBRANCH  26  28
ENDBRANCH  10  26
TORSDOF 7
ENDMDL
MODEL 9
REMARK VINA RESULT:      -7.1      2.506      3.912
REMARK  Name = 
REMARK  8 active torsions:
REMARK  status: ('A' for Active; 'I' for Inactive)
REMARK    1  A    between atoms: C_1  and  C_2
REMARK    2  A    between atoms: C_2  and  N_3
REMARK    3  A    between atoms: N_3  and  C_4
REMARK    4  A    between atoms: C_4  and  C_5
REMARK    5  A    between atoms: N_8  and  C_9
REMARK    6  A    between atoms: C_18  and  C_19
REMARK    7  A    between atoms: C_19  and  O_21
REMARK    8  A    between atoms: N_23  and  C_24
REMARK                            x       y       z     vdW  Elec       q    Type
REMARK                         _______ _______ _______ _____ _____    ______ ____
ROOT
ATOM      1  C   UNL     1       1.468   8.406  19.857  0.00  0.00    +0.000 A 
ATOM      2  C   UNL     1       2.401   7.892  18.932  0.00  0.00    +0.000 A 
ATOM      3  C   UNL     1       2.876   6.564  18.998  0.00  0.00    +0.000 A 
ATOM      4  C   UNL     1       2.396   5.729  20.029  0.00  0.00    +0.000 A 
ATOM      5  C   UNL     1       1.502   6.248  20.987  0.00  0.00    +0.000 A 
ATOM      6  C   UNL     1       1.046   7.562  20.907  0.00  0.00    +0.000 A 
ATOM      7  F   UNL     1       0.186   7.989  21.865  0.00  0.00    +0.000 F 
ATOM      8  C   UNL     1       2.803   4.384  20.083  0.00  0.00    +0.000 A 
ATOM      9  O   UNL     1       2.378   3.659  20.969  0.00  0.00    +0.000 OA
ATOM     10  C   UNL     1       3.675   3.866  19.101  0.00  0.00    +0.000 A 
ATOM     11  C   UNL     1       4.141   4.746  18.105  0.00  0.00    +0.000 A 
ATOM     12  N   UNL     1       3.765   6.063  18.065  0.00  0.00    +0.000 N 
ENDROOT
BRANCH   1  16
ATOM     13  C   UNL     1      -0.578  11.471  19.092  0.00  0.00    +0.000 C 
ATOM     14  C   UNL     1      -0.351  11.451  20.598  0.00  0.00    +0.000 C 
ATOM     15  C   UNL     1       1.004  10.759  20.723  0.00  0.00    +0.000 C 
ATOM     16  N   UNL     1       0.947   9.740  19.692  0.00  0.00    +0.000 N 
ATOM     17  C   UNL     1      -0.099  10.056  18.729  0.00  0.00    +0.000 C 
BRANCH  13  18
ATOM     18  C   UNL     1       0.225  12.608  18.414  0.00  0.00    +0.000 C 
BRANCH  18  19
ATOM     19  N   UNL     1      -0.591  13.825  18.305  0.00  0.00    +0.000 NA
ATOM     20  H   UNL     1      -0.658  14.104  17.300  0.00  0.00    +0.000 HD
BRANCH  19  22
ATOM     21  C   UNL     1       1.515  14.678  19.216  0.00  0.00    +0.000 C 
ATOM     22  C   UNL     1       0.023  14.938  19.035  0.00  0.00    +0.000 C 
ENDBRANCH  19  22
ENDBRANCH  18  19
ENDBRANCH  13  18
ENDBRANCH   1  16
BRANCH  12  23
ATOM     23  C   UNL     1       4.310   6.881  16.956  0.00  0.00    +0.000 C 
ATOM     24  C   UNL     1       5.840   7.010  17.054  0.00  0.00    +0.000 C 
ATOM     25  C   UNL     1       5.233   6.170  15.959  0.00  0.00    +0.000 C 
ENDBRANCH  12  23
BRANCH  10  26
ATOM     26  C   UNL     1       4.080   2.414  19.110  0.00  0.00    +0.000 C 
ATOM     27  O   UNL     1       3.615   1.649  18.279  0.00  0.00    +0.000 OA
BRANCH  26  28
ATOM     28  O   UNL     1       4.964   1.901  19.998  0.00  0.00    +0.000 OA
ATOM     29  H   UNL     1       5.923   1.935  19.910  0.00  0.00    +0.000 HD
ENDBRANCH  26  28
ENDBRANCH  10  26
TORSDOF 7
ENDMDL
