MODEL 1
REMARK VINA RESULT:      -6.7      0.000      0.000
REMARK  Name = 
REMARK  16 active torsions:
REMARK  status: ('A' for Active; 'I' for Inactive)
REMARK    1  A    between atoms: C_1  and  C_2
REMARK    2  A    between atoms: C_2  and  O_3
REMARK    3  A    between atoms: O_3  and  C_4
REMARK    4  A    between atoms: C_6  and  C_7
REMARK    5  A    between atoms: N_9  and  C_10
REMARK    6  A    between atoms: C_10  and  C_11
REMARK    7  A    between atoms: C_11  and  N_12
REMARK    8  A    between atoms: C_13  and  C_15
REMARK    9  A    between atoms: C_15  and  C_16
REMARK   10  A    between atoms: C_15  and  C_17
REMARK   11  A    between atoms: C_19  and  O_20
REMARK   12  A    between atoms: O_20  and  C_21
REMARK   13  A    between atoms: C_21  and  C_22
REMARK   14  A    between atoms: C_23  and  O_24
REMARK   15  A    between atoms: O_24  and  C_25
REMARK   16  A    between atoms: C_25  and  C_26
REMARK                            x       y       z     vdW  Elec       q    Type
REMARK                         _______ _______ _______ _____ _____    ______ ____
ROOT
ATOM      1  C   UNL     1       2.570   5.240  19.049  0.00  0.00    +0.000 A 
ATOM      2  C   UNL     1       2.066   6.551  19.029  0.00  0.00    +0.000 A 
ATOM      3  C   UNL     1       2.667   7.545  18.260  0.00  0.00    +0.000 A 
ATOM      4  C   UNL     1       3.845   7.257  17.580  0.00  0.00    +0.000 A 
ATOM      5  C   UNL     1       4.413   5.971  17.647  0.00  0.00    +0.000 A 
ATOM      6  C   UNL     1       3.763   4.929  18.353  0.00  0.00    +0.000 A 
ENDROOT
BRANCH   3   7
ATOM      7  C   UNL     1       1.989   8.870  18.185  0.00  0.00    +0.000 C 
ATOM      8  O   UNL     1       2.203   9.622  17.243  0.00  0.00    +0.000 OA
ATOM      9  N   UNL     1       1.197   9.207  19.263  0.00  0.00    +0.000 N 
ATOM     10  H   UNL     1       1.132   8.580  20.054  0.00  0.00    +0.000 HD
BRANCH   9  11
ATOM     11  C   UNL     1       0.620  10.533  19.406  0.00  0.00    +0.000 C 
BRANCH  11  12
ATOM     12  C   UNL     1      -0.910  10.517  19.455  0.00  0.00    +0.000 C 
BRANCH  12  13
ATOM     13  N   UNL     1      -1.525  11.057  18.250  0.00  0.00    +0.000 N 
ATOM     14  C   UNL     1      -2.519  10.387  17.575  0.00  0.00    +0.000 C 
ATOM     15  O   UNL     1      -2.980   9.318  17.980  0.00  0.00    +0.000 OA
ATOM     16  H   UNL     1      -1.254  11.987  17.954  0.00  0.00    +0.000 HD
BRANCH  14  17
ATOM     17  C   UNL     1      -3.025  11.091  16.312  0.00  0.00    +0.000 C 
ATOM     18  C   UNL     1      -2.907  10.193  15.080  0.00  0.00    +0.000 C 
ATOM     19  C   UNL     1      -4.477  11.542  16.482  0.00  0.00    +0.000 C 
ENDBRANCH  14  17
ENDBRANCH  12  13
ENDBRANCH  11  12
ENDBRANCH   9  11
ENDBRANCH   3   7
BRANCH   1  20
ATOM     20  O   UNL     1       1.927   4.270  19.784  0.00  0.00    +0.000 OA
BRANCH  20  22
ATOM     21  C   UNL     1       1.905   2.859  21.736  0.00  0.00    +0.000 C 
ATOM     22  C   UNL     1       2.270   4.222  21.176  0.00  0.00    +0.000 C 
ENDBRANCH  20  22
ENDBRANCH   1  20
BRANCH   5  23
ATOM     23  O   UNL     1       5.567   5.888  16.906  0.00  0.00    +0.000 OA
BRANCH  23  24
ATOM     24  C   UNL     1       5.445   5.674  15.500  0.00  0.00    +0.000 C 
ATOM     25  C   UNL     1       6.054   4.316  15.184  0.00  0.00    +0.000 C 
ENDBRANCH  23  24
ENDBRANCH   5  23
BRANCH   6  26
ATOM     26  O   UNL     1       4.349   3.686  18.270  0.00  0.00    +0.000 OA
BRANCH  26  27
ATOM     27  C   UNL     1       3.675   2.648  17.559  0.00  0.00    +0.000 C 
ATOM     28  C   UNL     1       3.487   1.446  18.470  0.00  0.00    +0.000 C 
ENDBRANCH  26  27
ENDBRANCH   6  26
TORSDOF 11
ENDMDL
MODEL 2
REMARK VINA RESULT:      -6.7      2.708      4.755
REMARK  Name = 
REMARK  16 active torsions:
REMARK  status: ('A' for Active; 'I' for Inactive)
REMARK    1  A    between atoms: C_1  and  C_2
REMARK    2  A    between atoms: C_2  and  O_3
REMARK    3  A    between atoms: O_3  and  C_4
REMARK    4  A    between atoms: C_6  and  C_7
REMARK    5  A    between atoms: N_9  and  C_10
REMARK    6  A    between atoms: C_10  and  C_11
REMARK    7  A    between atoms: C_11  and  N_12
REMARK    8  A    between atoms: C_13  and  C_15
REMARK    9  A    between atoms: C_15  and  C_16
REMARK   10  A    between atoms: C_15  and  C_17
REMARK   11  A    between atoms: C_19  and  O_20
REMARK   12  A    between atoms: O_20  and  C_21
REMARK   13  A    between atoms: C_21  and  C_22
REMARK   14  A    between atoms: C_23  and  O_24
REMARK   15  A    between atoms: O_24  and  C_25
REMARK   16  A    between atoms: C_25  and  C_26
REMARK                            x       y       z     vdW  Elec       q    Type
REMARK                         _______ _______ _______ _____ _____    ______ ____
ROOT
ATOM      1  C   UNL     1       5.516   6.530  17.061  0.00  0.00    +0.000 A 
ATOM      2  C   UNL     1       4.493   7.375  17.522  0.00  0.00    +0.000 A 
ATOM      3  C   UNL     1       3.274   6.862  17.959  0.00  0.00    +0.000 A 
ATOM      4  C   UNL     1       3.030   5.498  17.841  0.00  0.00    +0.000 A 
ATOM      5  C   UNL     1       4.011   4.641  17.309  0.00  0.00    +0.000 A 
ATOM      6  C   UNL     1       5.287   5.138  16.946  0.00  0.00    +0.000 A 
ENDROOT
BRANCH   3   7
ATOM      7  C   UNL     1       2.297   7.812  18.562  0.00  0.00    +0.000 C 
ATOM      8  O   UNL     1       1.918   7.660  19.717  0.00  0.00    +0.000 OA
ATOM      9  N   UNL     1       1.805   8.790  17.723  0.00  0.00    +0.000 N 
ATOM     10  H   UNL     1       2.088   8.808  16.752  0.00  0.00    +0.000 HD
BRANCH   9  11
ATOM     11  C   UNL     1       0.720   9.671  18.123  0.00  0.00    +0.000 C 
BRANCH  11  12
ATOM     12  C   UNL     1       1.146  10.707  19.167  0.00  0.00    +0.000 C 
BRANCH  12  13
ATOM     13  N   UNL     1       0.642  10.413  20.501  0.00  0.00    +0.000 N 
ATOM     14  C   UNL     1       0.029  11.369  21.277  0.00  0.00    +0.000 C 
ATOM     15  O   UNL     1      -0.175  12.513  20.866  0.00  0.00    +0.000 OA
ATOM     16  H   UNL     1       0.686   9.454  20.825  0.00  0.00    +0.000 HD
BRANCH  14  17
ATOM     17  C   UNL     1      -0.409  10.888  22.664  0.00  0.00    +0.000 C 
ATOM     18  C   UNL     1      -1.758  11.484  23.066  0.00  0.00    +0.000 C 
ATOM     19  C   UNL     1      -0.487   9.361  22.714  0.00  0.00    +0.000 C 
ENDBRANCH  14  17
ENDBRANCH  12  13
ENDBRANCH  11  12
ENDBRANCH   9  11
ENDBRANCH   3   7
BRANCH   1  20
ATOM     20  O   UNL     1       6.726   7.064  16.679  0.00  0.00    +0.000 OA
BRANCH  20  22
ATOM     21  C   UNL     1       8.042   8.709  17.846  0.00  0.00    +0.000 C 
ATOM     22  C   UNL     1       7.684   7.238  17.731  0.00  0.00    +0.000 C 
ENDBRANCH  20  22
ENDBRANCH   1  20
BRANCH   5  23
ATOM     23  O   UNL     1       3.581   3.336  17.281  0.00  0.00    +0.000 OA
BRANCH  23  24
ATOM     24  C   UNL     1       3.474   2.641  18.523  0.00  0.00    +0.000 C 
ATOM     25  C   UNL     1       2.086   2.020  18.588  0.00  0.00    +0.000 C 
ENDBRANCH  23  24
ENDBRANCH   5  23
BRANCH   6  26
ATOM     26  O   UNL     1       6.206   4.199  16.534  0.00  0.00    +0.000 OA
BRANCH  26  27
ATOM     27  C   UNL     1       6.114   3.674  15.211  0.00  0.00    +0.000 C 
ATOM     28  C   UNL     1       6.714   4.664  14.226  0.00  0.00    +0.000 C 
ENDBRANCH  26  27
ENDBRANCH   6  26
TORSDOF 11
ENDMDL
MODEL 3
REMARK VINA RESULT:      -6.7      2.391      3.220
REMARK  Name = 
REMARK  16 active torsions:
REMARK  status: ('A' for Active; 'I' for Inactive)
REMARK    1  A    between atoms: C_1  and  C_2
REMARK    2  A    between atoms: C_2  and  O_3
REMARK    3  A    between atoms: O_3  and  C_4
REMARK    4  A    between atoms: C_6  and  C_7
REMARK    5  A    between atoms: N_9  and  C_10
REMARK    6  A    between atoms: C_10  and  C_11
REMARK    7  A    between atoms: C_11  and  N_12
REMARK    8  A    between atoms: C_13  and  C_15
REMARK    9  A    between atoms: C_15  and  C_16
REMARK   10  A    between atoms: C_15  and  C_17
REMARK   11  A    between atoms: C_19  and  O_20
REMARK   12  A    between atoms: O_20  and  C_21
REMARK   13  A    between atoms: C_21  and  C_22
REMARK   14  A    between atoms: C_23  and  O_24
REMARK   15  A    between atoms: O_24  and  C_25
REMARK   16  A    between atoms: C_25  and  C_26
REMARK                            x       y       z     vdW  Elec       q    Type
REMARK                         _______ _______ _______ _____ _____    ______ ____
ROOT
ATOM      1  C   UNL     1       2.880   5.543  19.639  0.00  0.00    +0.000 A 
ATOM      2  C   UNL     1       2.324   6.830  19.562  0.00  0.00    +0.000 A 
ATOM      3  C   UNL     1       2.581   7.665  18.477  0.00  0.00    +0.000 A 
ATOM      4  C   UNL     1       3.485   7.253  17.504  0.00  0.00    +0.000 A 
ATOM      5  C   UNL     1       4.116   5.999  17.599  0.00  0.00    +0.000 A 
ATOM      6  C   UNL     1       3.794   5.106  18.650  0.00  0.00    +0.000 A 
ENDROOT
BRANCH   3   7
ATOM      7  C   UNL     1       1.842   8.957  18.404  0.00  0.00    +0.000 C 
ATOM      8  O   UNL     1       2.075   9.753  17.503  0.00  0.00    +0.000 OA
ATOM      9  N   UNL     1       0.970   9.215  19.441  0.00  0.00    +0.000 N 
ATOM     10  H   UNL     1       0.889   8.558  20.206  0.00  0.00    +0.000 HD
BRANCH   9  11
ATOM     11  C   UNL     1       0.318  10.506  19.592  0.00  0.00    +0.000 C 
BRANCH  11  12
ATOM     12  C   UNL     1       0.938  11.361  20.701  0.00  0.00    +0.000 C 
BRANCH  12  13
ATOM     13  N   UNL     1      -0.045  12.154  21.426  0.00  0.00    +0.000 N 
ATOM     14  C   UNL     1      -0.607  11.720  22.604  0.00  0.00    +0.000 C 
ATOM     15  O   UNL     1      -0.272  10.661  23.139  0.00  0.00    +0.000 OA
ATOM     16  H   UNL     1      -0.257  13.082  21.079  0.00  0.00    +0.000 HD
BRANCH  14  17
ATOM     17  C   UNL     1      -1.644  12.671  23.210  0.00  0.00    +0.000 C 
ATOM     18  C   UNL     1      -1.298  14.134  22.931  0.00  0.00    +0.000 C 
ATOM     19  C   UNL     1      -3.045  12.364  22.678  0.00  0.00    +0.000 C 
ENDBRANCH  14  17
ENDBRANCH  12  13
ENDBRANCH  11  12
ENDBRANCH   9  11
ENDBRANCH   3   7
BRANCH   1  20
ATOM     20  O   UNL     1       2.571   4.726  20.703  0.00  0.00    +0.000 OA
BRANCH  20  22
ATOM     21  C   UNL     1       1.403   2.764  21.471  0.00  0.00    +0.000 C 
ATOM     22  C   UNL     1       1.344   3.994  20.582  0.00  0.00    +0.000 C 
ENDBRANCH  20  22
ENDBRANCH   1  20
BRANCH   5  23
ATOM     23  O   UNL     1       4.965   5.778  16.542  0.00  0.00    +0.000 OA
BRANCH  23  24
ATOM     24  C   UNL     1       6.359   6.009  16.744  0.00  0.00    +0.000 C 
ATOM     25  C   UNL     1       7.085   4.691  16.517  0.00  0.00    +0.000 C 
ENDBRANCH  23  24
ENDBRANCH   5  23
BRANCH   6  26
ATOM     26  O   UNL     1       4.390   3.866  18.593  0.00  0.00    +0.000 OA
BRANCH  26  27
ATOM     27  C   UNL     1       3.821   2.861  17.755  0.00  0.00    +0.000 C 
ATOM     28  C   UNL     1       3.512   1.623  18.581  0.00  0.00    +0.000 C 
ENDBRANCH  26  27
ENDBRANCH   6  26
TORSDOF 11
ENDMDL
MODEL 4
REMARK VINA RESULT:      -6.6      1.823      3.689
REMARK  Name = 
REMARK  16 active torsions:
REMARK  status: ('A' for Active; 'I' for Inactive)
REMARK    1  A    between atoms: C_1  and  C_2
REMARK    2  A    between atoms: C_2  and  O_3
REMARK    3  A    between atoms: O_3  and  C_4
REMARK    4  A    between atoms: C_6  and  C_7
REMARK    5  A    between atoms: N_9  and  C_10
REMARK    6  A    between atoms: C_10  and  C_11
REMARK    7  A    between atoms: C_11  and  N_12
REMARK    8  A    between atoms: C_13  and  C_15
REMARK    9  A    between atoms: C_15  and  C_16
REMARK   10  A    between atoms: C_15  and  C_17
REMARK   11  A    between atoms: C_19  and  O_20
REMARK   12  A    between atoms: O_20  and  C_21
REMARK   13  A    between atoms: C_21  and  C_22
REMARK   14  A    between atoms: C_23  and  O_24
REMARK   15  A    between atoms: O_24  and  C_25
REMARK   16  A    between atoms: C_25  and  C_26
REMARK                            x       y       z     vdW  Elec       q    Type
REMARK                         _______ _______ _______ _____ _____    ______ ____
ROOT
ATOM      1  C   UNL     1       4.987   6.456  17.072  0.00  0.00    +0.000 A 
ATOM      2  C   UNL     1       4.114   7.219  17.865  0.00  0.00    +0.000 A 
ATOM      3  C   UNL     1       2.942   6.671  18.382  0.00  0.00    +0.000 A 
ATOM      4  C   UNL     1       2.581   5.378  18.021  0.00  0.00    +0.000 A 
ATOM      5  C   UNL     1       3.401   4.620  17.165  0.00  0.00    +0.000 A 
ATOM      6  C   UNL     1       4.638   5.133  16.706  0.00  0.00    +0.000 A 
ENDROOT
BRANCH   3   7
ATOM      7  C   UNL     1       2.145   7.504  19.327  0.00  0.00    +0.000 C 
ATOM      8  O   UNL     1       1.815   7.057  20.418  0.00  0.00    +0.000 OA
ATOM      9  N   UNL     1       1.748   8.739  18.859  0.00  0.00    +0.000 N 
ATOM     10  H   UNL     1       1.975   9.015  17.913  0.00  0.00    +0.000 HD
BRANCH   9  11
ATOM     11  C   UNL     1       0.823   9.580  19.601  0.00  0.00    +0.000 C 
BRANCH  11  12
ATOM     12  C   UNL     1       0.598  10.944  18.944  0.00  0.00    +0.000 C 
BRANCH  12  13
ATOM     13  N   UNL     1      -0.416  10.914  17.898  0.00  0.00    +0.000 N 
ATOM     14  C   UNL     1      -1.711  11.319  18.125  0.00  0.00    +0.000 C 
ATOM     15  O   UNL     1      -2.072  11.779  19.210  0.00  0.00    +0.000 OA
ATOM     16  H   UNL     1      -0.126  10.653  16.963  0.00  0.00    +0.000 HD
BRANCH  14  17
ATOM     17  C   UNL     1      -2.646  11.188  16.919  0.00  0.00    +0.000 C 
ATOM     18  C   UNL     1      -2.566   9.796  16.293  0.00  0.00    +0.000 C 
ATOM     19  C   UNL     1      -4.092  11.492  17.312  0.00  0.00    +0.000 C 
ENDBRANCH  14  17
ENDBRANCH  12  13
ENDBRANCH  11  12
ENDBRANCH   9  11
ENDBRANCH   3   7
BRANCH   1  20
ATOM     20  O   UNL     1       6.159   7.012  16.613  0.00  0.00    +0.000 OA
BRANCH  20  22
ATOM     21  C   UNL     1       7.881   8.351  17.634  0.00  0.00    +0.000 C 
ATOM     22  C   UNL     1       7.262   6.969  17.528  0.00  0.00    +0.000 C 
ENDBRANCH  20  22
ENDBRANCH   1  20
BRANCH   5  23
ATOM     23  O   UNL     1       2.874   3.371  16.935  0.00  0.00    +0.000 OA
BRANCH  23  24
ATOM     24  C   UNL     1       2.451   2.606  18.063  0.00  0.00    +0.000 C 
ATOM     25  C   UNL     1       3.543   1.592  18.370  0.00  0.00    +0.000 C 
ENDBRANCH  23  24
ENDBRANCH   5  23
BRANCH   6  26
ATOM     26  O   UNL     1       5.409   4.273  15.957  0.00  0.00    +0.000 OA
BRANCH  26  27
ATOM     27  C   UNL     1       5.996   4.744  14.746  0.00  0.00    +0.000 C 
ATOM     28  C   UNL     1       5.772   3.724  13.641  0.00  0.00    +0.000 C 
ENDBRANCH  26  27
ENDBRANCH   6  26
TORSDOF 11
ENDMDL
MODEL 5
REMARK VINA RESULT:      -6.6      1.811      2.821
REMARK  Name = 
REMARK  16 active torsions:
REMARK  status: ('A' for Active; 'I' for Inactive)
REMARK    1  A    between atoms: C_1  and  C_2
REMARK    2  A    between atoms: C_2  and  O_3
REMARK    3  A    between atoms: O_3  and  C_4
REMARK    4  A    between atoms: C_6  and  C_7
REMARK    5  A    between atoms: N_9  and  C_10
REMARK    6  A    between atoms: C_10  and  C_11
REMARK    7  A    between atoms: C_11  and  N_12
REMARK    8  A    between atoms: C_13  and  C_15
REMARK    9  A    between atoms: C_15  and  C_16
REMARK   10  A    between atoms: C_15  and  C_17
REMARK   11  A    between atoms: C_19  and  O_20
REMARK   12  A    between atoms: O_20  and  C_21
REMARK   13  A    between atoms: C_21  and  C_22
REMARK   14  A    between atoms: C_23  and  O_24
REMARK   15  A    between atoms: O_24  and  C_25
REMARK   16  A    between atoms: C_25  and  C_26
REMARK                            x       y       z     vdW  Elec       q    Type
REMARK                         _______ _______ _______ _____ _____    ______ ____
ROOT
ATOM      1  C   UNL     1       3.575   4.455  17.130  0.00  0.00    +0.000 A 
ATOM      2  C   UNL     1       2.841   5.257  18.019  0.00  0.00    +0.000 A 
ATOM      3  C   UNL     1       3.239   6.559  18.317  0.00  0.00    +0.000 A 
ATOM      4  C   UNL     1       4.441   7.034  17.804  0.00  0.00    +0.000 A 
ATOM      5  C   UNL     1       5.234   6.221  16.973  0.00  0.00    +0.000 A 
ATOM      6  C   UNL     1       4.795   4.930  16.591  0.00  0.00    +0.000 A 
ENDROOT
BRANCH   3   7
ATOM      7  C   UNL     1       2.330   7.388  19.158  0.00  0.00    +0.000 C 
ATOM      8  O   UNL     1       1.910   6.958  20.224  0.00  0.00    +0.000 OA
ATOM      9  N   UNL     1       1.945   8.598  18.621  0.00  0.00    +0.000 N 
ATOM     10  H   UNL     1       2.253   8.858  17.693  0.00  0.00    +0.000 HD
BRANCH   9  11
ATOM     11  C   UNL     1       0.927   9.427  19.247  0.00  0.00    +0.000 C 
BRANCH  11  12
ATOM     12  C   UNL     1       0.476  10.590  18.360  0.00  0.00    +0.000 C 
BRANCH  12  13
ATOM     13  N   UNL     1      -0.777  10.327  17.667  0.00  0.00    +0.000 N 
ATOM     14  C   UNL     1      -1.991  10.720  18.180  0.00  0.00    +0.000 C 
ATOM     15  O   UNL     1      -2.083  11.362  19.227  0.00  0.00    +0.000 OA
ATOM     16  H   UNL     1      -0.731   9.906  16.746  0.00  0.00    +0.000 HD
BRANCH  14  17
ATOM     17  C   UNL     1      -3.205  10.330  17.328  0.00  0.00    +0.000 C 
ATOM     18  C   UNL     1      -4.097  11.536  17.035  0.00  0.00    +0.000 C 
ATOM     19  C   UNL     1      -2.766   9.684  16.014  0.00  0.00    +0.000 C 
ENDBRANCH  14  17
ENDBRANCH  12  13
ENDBRANCH  11  12
ENDBRANCH   9  11
ENDBRANCH   3   7
BRANCH   1  20
ATOM     20  O   UNL     1       3.130   3.190  16.822  0.00  0.00    +0.000 OA
BRANCH  20  22
ATOM     21  C   UNL     1       3.606   1.515  18.486  0.00  0.00    +0.000 C 
ATOM     22  C   UNL     1       2.560   2.454  17.912  0.00  0.00    +0.000 C 
ENDBRANCH  20  22
ENDBRANCH   1  20
BRANCH   5  23
ATOM     23  O   UNL     1       6.374   6.873  16.567  0.00  0.00    +0.000 OA
BRANCH  23  24
ATOM     24  C   UNL     1       7.475   6.922  17.473  0.00  0.00    +0.000 C 
ATOM     25  C   UNL     1       7.881   8.380  17.632  0.00  0.00    +0.000 C 
ENDBRANCH  23  24
ENDBRANCH   5  23
BRANCH   6  26
ATOM     26  O   UNL     1       5.597   4.260  15.694  0.00  0.00    +0.000 OA
BRANCH  26  27
ATOM     27  C   UNL     1       5.801   4.817  14.397  0.00  0.00    +0.000 C 
ATOM     28  C   UNL     1       5.792   3.707  13.359  0.00  0.00    +0.000 C 
ENDBRANCH  26  27
ENDBRANCH   6  26
TORSDOF 11
ENDMDL
MODEL 6
REMARK VINA RESULT:      -6.4      2.760      3.630
REMARK  Name = 
REMARK  16 active torsions:
REMARK  status: ('A' for Active; 'I' for Inactive)
REMARK    1  A    between atoms: C_1  and  C_2
REMARK    2  A    between atoms: C_2  and  O_3
REMARK    3  A    between atoms: O_3  and  C_4
REMARK    4  A    between atoms: C_6  and  C_7
REMARK    5  A    between atoms: N_9  and  C_10
REMARK    6  A    between atoms: C_10  and  C_11
REMARK    7  A    between atoms: C_11  and  N_12
REMARK    8  A    between atoms: C_13  and  C_15
REMARK    9  A    between atoms: C_15  and  C_16
REMARK   10  A    between atoms: C_15  and  C_17
REMARK   11  A    between atoms: C_19  and  O_20
REMARK   12  A    between atoms: O_20  and  C_21
REMARK   13  A    between atoms: C_21  and  C_22
REMARK   14  A    between atoms: C_23  and  O_24
REMARK   15  A    between atoms: O_24  and  C_25
REMARK   16  A    between atoms: C_25  and  C_26
REMARK                            x       y       z     vdW  Elec       q    Type
REMARK                         _______ _______ _______ _____ _____    ______ ____
ROOT
ATOM      1  C   UNL     1       3.249   5.120  17.867  0.00  0.00    +0.000 A 
ATOM      2  C   UNL     1       2.488   6.256  18.186  0.00  0.00    +0.000 A 
ATOM      3  C   UNL     1       2.960   7.540  17.926  0.00  0.00    +0.000 A 
ATOM      4  C   UNL     1       4.251   7.701  17.434  0.00  0.00    +0.000 A 
ATOM      5  C   UNL     1       5.063   6.579  17.178  0.00  0.00    +0.000 A 
ATOM      6  C   UNL     1       4.560   5.267  17.354  0.00  0.00    +0.000 A 
ENDROOT
BRANCH   3   7
ATOM      7  C   UNL     1       2.035   8.683  18.166  0.00  0.00    +0.000 C 
ATOM      8  O   UNL     1       1.905   9.562  17.323  0.00  0.00    +0.000 OA
ATOM      9  N   UNL     1       1.423   8.718  19.402  0.00  0.00    +0.000 N 
ATOM     10  H   UNL     1       1.641   8.010  20.091  0.00  0.00    +0.000 HD
BRANCH   9  11
ATOM     11  C   UNL     1       0.637   9.861  19.837  0.00  0.00    +0.000 C 
BRANCH  11  12
ATOM     12  C   UNL     1       0.844  10.199  21.315  0.00  0.00    +0.000 C 
BRANCH  12  13
ATOM     13  N   UNL     1       0.048  11.336  21.758  0.00  0.00    +0.000 N 
ATOM     14  C   UNL     1      -0.880  11.228  22.767  0.00  0.00    +0.000 C 
ATOM     15  O   UNL     1      -1.053  10.178  23.389  0.00  0.00    +0.000 OA
ATOM     16  H   UNL     1       0.247  12.242  21.350  0.00  0.00    +0.000 HD
BRANCH  14  17
ATOM     17  C   UNL     1      -1.645  12.519  23.077  0.00  0.00    +0.000 C 
ATOM     18  C   UNL     1      -1.623  13.484  21.892  0.00  0.00    +0.000 C 
ATOM     19  C   UNL     1      -3.092  12.217  23.467  0.00  0.00    +0.000 C 
ENDBRANCH  14  17
ENDBRANCH  12  13
ENDBRANCH  11  12
ENDBRANCH   9  11
ENDBRANCH   3   7
BRANCH   1  20
ATOM     20  O   UNL     1       2.734   3.864  18.095  0.00  0.00    +0.000 OA
BRANCH  20  22
ATOM     21  C   UNL     1       1.752   2.198  19.530  0.00  0.00    +0.000 C 
ATOM     22  C   UNL     1       2.266   3.622  19.429  0.00  0.00    +0.000 C 
ENDBRANCH  20  22
ENDBRANCH   1  20
BRANCH   5  23
ATOM     23  O   UNL     1       6.295   6.947  16.693  0.00  0.00    +0.000 OA
BRANCH  23  24
ATOM     24  C   UNL     1       7.397   6.948  17.600  0.00  0.00    +0.000 C 
ATOM     25  C   UNL     1       7.890   8.382  17.728  0.00  0.00    +0.000 C 
ENDBRANCH  23  24
ENDBRANCH   5  23
BRANCH   6  26
ATOM     26  O   UNL     1       5.400   4.243  16.978  0.00  0.00    +0.000 OA
BRANCH  26  27
ATOM     27  C   UNL     1       5.300   3.714  15.658  0.00  0.00    +0.000 C 
ATOM     28  C   UNL     1       6.543   4.082  14.865  0.00  0.00    +0.000 C 
ENDBRANCH  26  27
ENDBRANCH   6  26
TORSDOF 11
ENDMDL
MODEL 7
REMARK VINA RESULT:      -6.3      2.199      3.148
REMARK  Name = 
REMARK  16 active torsions:
REMARK  status: ('A' for Active; 'I' for Inactive)
REMARK    1  A    between atoms: C_1  and  C_2
REMARK    2  A    between atoms: C_2  and  O_3
REMARK    3  A    between atoms: O_3  and  C_4
REMARK    4  A    between atoms: C_6  and  C_7
REMARK    5  A    between atoms: N_9  and  C_10
REMARK    6  A    between atoms: C_10  and  C_11
REMARK    7  A    between atoms: C_11  and  N_12
REMARK    8  A    between atoms: C_13  and  C_15
REMARK    9  A    between atoms: C_15  and  C_16
REMARK   10  A    between atoms: C_15  and  C_17
REMARK   11  A    between atoms: C_19  and  O_20
REMARK   12  A    between atoms: O_20  and  C_21
REMARK   13  A    between atoms: C_21  and  C_22
REMARK   14  A    between atoms: C_23  and  O_24
REMARK   15  A    between atoms: O_24  and  C_25
REMARK   16  A    between atoms: C_25  and  C_26
REMARK                            x       y       z     vdW  Elec       q    Type
REMARK                         _______ _______ _______ _____ _____    ______ ____
ROOT
ATOM      1  C   UNL     1       2.724   5.599  19.789  0.00  0.00    +0.000 A 
ATOM      2  C   UNL     1       2.261   6.914  19.619  0.00  0.00    +0.000 A 
ATOM      3  C   UNL     1       2.614   7.665  18.500  0.00  0.00    +0.000 A 
ATOM      4  C   UNL     1       3.522   7.138  17.588  0.00  0.00    +0.000 A 
ATOM      5  C   UNL     1       4.060   5.852  17.778  0.00  0.00    +0.000 A 
ATOM      6  C   UNL     1       3.640   5.045  18.863  0.00  0.00    +0.000 A 
ENDROOT
BRANCH   3   7
ATOM      7  C   UNL     1       1.969   8.997  18.327  0.00  0.00    +0.000 C 
ATOM      8  O   UNL     1       2.203   9.674  17.333  0.00  0.00    +0.000 OA
ATOM      9  N   UNL     1       1.183   9.431  19.374  0.00  0.00    +0.000 N 
ATOM     10  H   UNL     1       1.101   8.865  20.209  0.00  0.00    +0.000 HD
BRANCH   9  11
ATOM     11  C   UNL     1       0.638  10.778  19.419  0.00  0.00    +0.000 C 
BRANCH  11  12
ATOM     12  C   UNL     1      -0.832  10.813  19.843  0.00  0.00    +0.000 C 
BRANCH  12  13
ATOM     13  N   UNL     1      -1.015  11.181  21.240  0.00  0.00    +0.000 N 
ATOM     14  C   UNL     1      -1.824  12.226  21.621  0.00  0.00    +0.000 C 
ATOM     15  O   UNL     1      -2.481  12.875  20.805  0.00  0.00    +0.000 OA
ATOM     16  H   UNL     1      -0.583  10.595  21.945  0.00  0.00    +0.000 HD
BRANCH  14  17
ATOM     17  C   UNL     1      -1.870  12.486  23.130  0.00  0.00    +0.000 C 
ATOM     18  C   UNL     1      -1.331  13.874  23.478  0.00  0.00    +0.000 C 
ATOM     19  C   UNL     1      -3.295  12.339  23.667  0.00  0.00    +0.000 C 
ENDBRANCH  14  17
ENDBRANCH  12  13
ENDBRANCH  11  12
ENDBRANCH   9  11
ENDBRANCH   3   7
BRANCH   1  20
ATOM     20  O   UNL     1       2.322   4.867  20.884  0.00  0.00    +0.000 OA
BRANCH  20  22
ATOM     21  C   UNL     1       1.448   2.695  21.448  0.00  0.00    +0.000 C 
ATOM     22  C   UNL     1       1.225   3.972  20.657  0.00  0.00    +0.000 C 
ENDBRANCH  20  22
ENDBRANCH   1  20
BRANCH   5  23
ATOM     23  O   UNL     1       4.929   5.513  16.768  0.00  0.00    +0.000 OA
BRANCH  23  24
ATOM     24  C   UNL     1       5.868   6.498  16.337  0.00  0.00    +0.000 C 
ATOM     25  C   UNL     1       7.159   6.277  17.112  0.00  0.00    +0.000 C 
ENDBRANCH  23  24
ENDBRANCH   5  23
BRANCH   6  26
ATOM     26  O   UNL     1       4.151   3.767  18.898  0.00  0.00    +0.000 OA
BRANCH  26  27
ATOM     27  C   UNL     1       3.628   2.787  18.002  0.00  0.00    +0.000 C 
ATOM     28  C   UNL     1       3.657   1.421  18.668  0.00  0.00    +0.000 C 
ENDBRANCH  26  27
ENDBRANCH   6  26
TORSDOF 11
ENDMDL
MODEL 8
REMARK VINA RESULT:      -6.3      0.955      1.206
REMARK  Name = 
REMARK  16 active torsions:
REMARK  status: ('A' for Active; 'I' for Inactive)
REMARK    1  A    between atoms: C_1  and  C_2
REMARK    2  A    between atoms: C_2  and  O_3
REMARK    3  A    between atoms: O_3  and  C_4
REMARK    4  A    between atoms: C_6  and  C_7
REMARK    5  A    between atoms: N_9  and  C_10
REMARK    6  A    between atoms: C_10  and  C_11
REMARK    7  A    between atoms: C_11  and  N_12
REMARK    8  A    between atoms: C_13  and  C_15
REMARK    9  A    between atoms: C_15  and  C_16
REMARK   10  A    between atoms: C_15  and  C_17
REMARK   11  A    between atoms: C_19  and  O_20
REMARK   12  A    between atoms: O_20  and  C_21
REMARK   13  A    between atoms: C_21  and  C_22
REMARK   14  A    between atoms: C_23  and  O_24
REMARK   15  A    between atoms: O_24  and  C_25
REMARK   16  A    between atoms: C_25  and  C_26
REMARK                            x       y       z     vdW  Elec       q    Type
REMARK                         _______ _______ _______ _____ _____    ______ ____
ROOT
ATOM      1  C   UNL     1       2.791   5.583  19.744  0.00  0.00    +0.000 A 
ATOM      2  C   UNL     1       2.291   6.894  19.685  0.00  0.00    +0.000 A 
ATOM      3  C   UNL     1       2.557   7.722  18.597  0.00  0.00    +0.000 A 
ATOM      4  C   UNL     1       3.418   7.275  17.600  0.00  0.00    +0.000 A 
ATOM      5  C   UNL     1       3.994   5.993  17.675  0.00  0.00    +0.000 A 
ATOM      6  C   UNL     1       3.659   5.110  18.731  0.00  0.00    +0.000 A 
ENDROOT
BRANCH   3   7
ATOM      7  C   UNL     1       1.875   9.046  18.547  0.00  0.00    +0.000 C 
ATOM      8  O   UNL     1       2.060   9.802  17.602  0.00  0.00    +0.000 OA
ATOM      9  N   UNL     1       1.114   9.376  19.649  0.00  0.00    +0.000 N 
ATOM     10  H   UNL     1       1.073   8.747  20.439  0.00  0.00    +0.000 HD
BRANCH   9  11
ATOM     11  C   UNL     1       0.538  10.701  19.815  0.00  0.00    +0.000 C 
BRANCH  11  12
ATOM     12  C   UNL     1      -0.045  11.265  18.516  0.00  0.00    +0.000 C 
BRANCH  12  13
ATOM     13  N   UNL     1      -1.500  11.325  18.523  0.00  0.00    +0.000 N 
ATOM     14  C   UNL     1      -2.267  10.527  17.707  0.00  0.00    +0.000 C 
ATOM     15  O   UNL     1      -1.769   9.680  16.963  0.00  0.00    +0.000 OA
ATOM     16  H   UNL     1      -1.948  11.924  19.207  0.00  0.00    +0.000 HD
BRANCH  14  17
ATOM     17  C   UNL     1      -3.779  10.748  17.827  0.00  0.00    +0.000 C 
ATOM     18  C   UNL     1      -4.108  11.835  18.850  0.00  0.00    +0.000 C 
ATOM     19  C   UNL     1      -4.387  11.115  16.473  0.00  0.00    +0.000 C 
ENDBRANCH  14  17
ENDBRANCH  12  13
ENDBRANCH  11  12
ENDBRANCH   9  11
ENDBRANCH   3   7
BRANCH   1  20
ATOM     20  O   UNL     1       2.473   4.776  20.812  0.00  0.00    +0.000 OA
BRANCH  20  22
ATOM     21  C   UNL     1       1.382   2.740  21.495  0.00  0.00    +0.000 C 
ATOM     22  C   UNL     1       1.269   4.009  20.669  0.00  0.00    +0.000 C 
ENDBRANCH  20  22
ENDBRANCH   1  20
BRANCH   5  23
ATOM     23  O   UNL     1       4.806   5.740  16.595  0.00  0.00    +0.000 OA
BRANCH  23  24
ATOM     24  C   UNL     1       6.211   5.928  16.757  0.00  0.00    +0.000 C 
ATOM     25  C   UNL     1       6.906   4.663  16.275  0.00  0.00    +0.000 C 
ENDBRANCH  23  24
ENDBRANCH   5  23
BRANCH   6  26
ATOM     26  O   UNL     1       4.198   3.846  18.654  0.00  0.00    +0.000 OA
BRANCH  26  27
ATOM     27  C   UNL     1       3.593   2.886  17.790  0.00  0.00    +0.000 C 
ATOM     28  C   UNL     1       3.471   1.554  18.513  0.00  0.00    +0.000 C 
ENDBRANCH  26  27
ENDBRANCH   6  26
TORSDOF 11
ENDMDL
MODEL 9
REMARK VINA RESULT:      -6.3      2.367      3.029
REMARK  Name = 
REMARK  16 active torsions:
REMARK  status: ('A' for Active; 'I' for Inactive)
REMARK    1  A    between atoms: C_1  and  C_2
REMARK    2  A    between atoms: C_2  and  O_3
REMARK    3  A    between atoms: O_3  and  C_4
REMARK    4  A    between atoms: C_6  and  C_7
REMARK    5  A    between atoms: N_9  and  C_10
REMARK    6  A    between atoms: C_10  and  C_11
REMARK    7  A    between atoms: C_11  and  N_12
REMARK    8  A    between atoms: C_13  and  C_15
REMARK    9  A    between atoms: C_15  and  C_16
REMARK   10  A    between atoms: C_15  and  C_17
REMARK   11  A    between atoms: C_19  and  O_20
REMARK   12  A    between atoms: O_20  and  C_21
REMARK   13  A    between atoms: C_21  and  C_22
REMARK   14  A    between atoms: C_23  and  O_24
REMARK   15  A    between atoms: O_24  and  C_25
REMARK   16  A    between atoms: C_25  and  C_26
REMARK                            x       y       z     vdW  Elec       q    Type
REMARK                         _______ _______ _______ _____ _____    ______ ____
ROOT
ATOM      1  C   UNL     1       3.045   5.298  19.924  0.00  0.00    +0.000 A 
ATOM      2  C   UNL     1       2.464   6.556  19.694  0.00  0.00    +0.000 A 
ATOM      3  C   UNL     1       2.800   7.314  18.574  0.00  0.00    +0.000 A 
ATOM      4  C   UNL     1       3.804   6.861  17.725  0.00  0.00    +0.000 A 
ATOM      5  C   UNL     1       4.456   5.640  17.978  0.00  0.00    +0.000 A 
ATOM      6  C   UNL     1       4.061   4.819  19.062  0.00  0.00    +0.000 A 
ENDROOT
BRANCH   3   7
ATOM      7  C   UNL     1       2.037   8.570  18.331  0.00  0.00    +0.000 C 
ATOM      8  O   UNL     1       2.108   9.138  17.249  0.00  0.00    +0.000 OA
ATOM      9  N   UNL     1       1.336   9.071  19.409  0.00  0.00    +0.000 N 
ATOM     10  H   UNL     1       1.390   8.604  20.304  0.00  0.00    +0.000 HD
BRANCH   9  11
ATOM     11  C   UNL     1       0.694  10.375  19.367  0.00  0.00    +0.000 C 
BRANCH  11  12
ATOM     12  C   UNL     1       0.819  11.144  20.685  0.00  0.00    +0.000 C 
BRANCH  12  13
ATOM     13  N   UNL     1      -0.269  12.089  20.900  0.00  0.00    +0.000 N 
ATOM     14  C   UNL     1      -0.886  12.225  22.121  0.00  0.00    +0.000 C 
ATOM     15  O   UNL     1      -0.520  11.594  23.115  0.00  0.00    +0.000 OA
ATOM     16  H   UNL     1      -0.517  12.708  20.137  0.00  0.00    +0.000 HD
BRANCH  14  17
ATOM     17  C   UNL     1      -2.030  13.244  22.153  0.00  0.00    +0.000 C 
ATOM     18  C   UNL     1      -3.293  12.694  21.492  0.00  0.00    +0.000 C 
ATOM     19  C   UNL     1      -2.344  13.669  23.588  0.00  0.00    +0.000 C 
ENDBRANCH  14  17
ENDBRANCH  12  13
ENDBRANCH  11  12
ENDBRANCH   9  11
ENDBRANCH   3   7
BRANCH   1  20
ATOM     20  O   UNL     1       2.659   4.554  21.016  0.00  0.00    +0.000 OA
BRANCH  20  22
ATOM     21  C   UNL     1       1.412   2.579  21.602  0.00  0.00    +0.000 C 
ATOM     22  C   UNL     1       1.371   3.931  20.913  0.00  0.00    +0.000 C 
ENDBRANCH  20  22
ENDBRANCH   1  20
BRANCH   5  23
ATOM     23  O   UNL     1       5.409   5.368  17.025  0.00  0.00    +0.000 OA
BRANCH  23  24
ATOM     24  C   UNL     1       5.256   5.967  15.739  0.00  0.00    +0.000 C 
ATOM     25  C   UNL     1       5.709   4.953  14.699  0.00  0.00    +0.000 C 
ENDBRANCH  23  24
ENDBRANCH   5  23
BRANCH   6  26
ATOM     26  O   UNL     1       4.693   3.600  19.158  0.00  0.00    +0.000 OA
BRANCH  26  27
ATOM     27  C   UNL     1       3.934   2.408  18.966  0.00  0.00    +0.000 C 
ATOM     28  C   UNL     1       3.112   2.527  17.693  0.00  0.00    +0.000 C 
ENDBRANCH  26  27
ENDBRANCH   6  26
TORSDOF 11
ENDMDL
