MODEL 1
REMARK VINA RESULT:      -5.7      0.000      0.000
REMARK  Name = 
REMARK  21 active torsions:
REMARK  status: ('A' for Active; 'I' for Inactive)
REMARK    1  A    between atoms: C_1  and  C_2
REMARK    2  A    between atoms: C_2  and  O_3
REMARK    3  A    between atoms: O_3  and  C_4
REMARK    4  A    between atoms: C_4  and  C_6
REMARK    5  A    between atoms: C_7  and  C_8
REMARK    6  A    between atoms: C_10  and  C_11
REMARK    7  A    between atoms: C_11  and  N_12
REMARK    8  A    between atoms: N_12  and  C_13
REMARK    9  A    between atoms: N_12  and  C_14
REMARK   10  A    between atoms: C_15  and  C_16
REMARK   11  A    between atoms: C_16  and  O_18
REMARK   12  A    between atoms: O_18  and  C_19
REMARK   13  A    between atoms: C_19  and  C_20
REMARK   14  A    between atoms: C_21  and  C_22
REMARK   15  A    between atoms: C_27  and  C_28
REMARK   16  A    between atoms: C_29  and  C_30
REMARK   17  A    between atoms: C_30  and  O_32
REMARK   18  A    between atoms: O_32  and  C_33
REMARK   19  A    between atoms: C_33  and  C_34
REMARK   20  A    between atoms: C_33  and  C_35
REMARK   21  A    between atoms: C_33  and  C_36
REMARK                            x       y       z     vdW  Elec       q    Type
REMARK                         _______ _______ _______ _____ _____    ______ ____
ROOT
ATOM      1  C   UNL     1       0.178  12.913  18.955  0.00  0.00    +0.000 C 
ATOM      2  C   UNL     1      -0.756  13.783  19.406  0.00  0.00    +0.000 C 
ATOM      3  C   UNL     1      -0.478  15.130  20.030  0.00  0.00    +0.000 C 
ATOM      4  N   UNL     1      -2.096  13.450  19.318  0.00  0.00    +0.000 N 
ATOM      5  C   UNL     1      -2.603  12.246  18.849  0.00  0.00    +0.000 C 
ATOM      6  C   UNL     1      -1.762  11.350  18.275  0.00  0.00    +0.000 C 
ATOM      7  C   UNL     1      -0.229  11.583  18.283  0.00  0.00    +0.000 C 
ATOM      8  H   UNL     1      -2.790  14.058  19.759  0.00  0.00    +0.000 HD
ENDROOT
BRANCH   7   9
ATOM      9  C   UNL     1       0.491  10.403  18.979  0.00  0.00    +0.000 A 
ATOM     10  C   UNL     1       1.419   9.701  18.162  0.00  0.00    +0.000 A 
ATOM     11  C   UNL     1       2.057   8.548  18.602  0.00  0.00    +0.000 A 
ATOM     12  C   UNL     1       1.778   8.061  19.863  0.00  0.00    +0.000 A 
ATOM     13  C   UNL     1       0.883   8.738  20.693  0.00  0.00    +0.000 A 
ATOM     14  C   UNL     1       0.233   9.931  20.297  0.00  0.00    +0.000 A 
BRANCH  14  15
ATOM     15  C   UNL     1      -0.687  10.484  21.337  0.00  0.00    +0.000 C 
ATOM     16  C   UNL     1      -0.504  11.598  22.061  0.00  0.00    +0.000 C 
BRANCH  16  17
ATOM     17  C   UNL     1      -1.302  12.153  23.168  0.00  0.00    +0.000 C 
ATOM     18  O   UNL     1      -2.265  11.528  23.592  0.00  0.00    +0.000 OA
BRANCH  17  19
ATOM     19  O   UNL     1      -0.884  13.367  23.587  0.00  0.00    +0.000 OA
BRANCH  19  20
ATOM     20  C   UNL     1      -1.856  14.451  23.649  0.00  0.00    +0.000 C 
ATOM     21  C   UNL     1      -2.521  14.521  25.033  0.00  0.00    +0.000 C 
ATOM     22  C   UNL     1      -1.048  15.739  23.434  0.00  0.00    +0.000 C 
ATOM     23  C   UNL     1      -2.901  14.352  22.527  0.00  0.00    +0.000 C 
ENDBRANCH  19  20
ENDBRANCH  17  19
ENDBRANCH  16  17
ENDBRANCH  14  15
ENDBRANCH   7   9
BRANCH   1  24
ATOM     24  C   UNL     1       1.625  13.153  19.208  0.00  0.00    +0.000 C 
ATOM     25  O   UNL     1       2.175  12.989  20.288  0.00  0.00    +0.000 OA
BRANCH  24  26
ATOM     26  O   UNL     1       2.252  13.526  18.066  0.00  0.00    +0.000 OA
BRANCH  26  28
ATOM     27  C   UNL     1       3.348  15.582  17.504  0.00  0.00    +0.000 C 
ATOM     28  C   UNL     1       3.466  14.271  18.248  0.00  0.00    +0.000 C 
ENDBRANCH  26  28
ENDBRANCH  24  26
ENDBRANCH   1  24
BRANCH   6  29
ATOM     29  C   UNL     1      -2.280  10.059  17.738  0.00  0.00    +0.000 C 
ATOM     30  O   UNL     1      -2.849   9.197  18.391  0.00  0.00    +0.000 OA
BRANCH  29  31
ATOM     31  O   UNL     1      -2.048   9.999  16.411  0.00  0.00    +0.000 OA
BRANCH  31  32
ATOM     32  C   UNL     1      -2.842  10.823  15.546  0.00  0.00    +0.000 C 
ATOM     33  C   UNL     1      -3.320   9.999  14.370  0.00  0.00    +0.000 C 
ENDBRANCH  31  32
ENDBRANCH  29  31
ENDBRANCH   6  29
BRANCH   5  34
ATOM     34  C   UNL     1      -4.092  11.996  19.119  0.00  0.00    +0.000 C 
BRANCH  34  35
ATOM     35  N   UNL     1      -5.016  12.951  18.454  0.00  0.00    +0.000 NA
ATOM     36  C   UNL     1      -5.819  12.264  17.434  0.00  0.00    +0.000 C 
ATOM     37  C   UNL     1      -5.930  13.512  19.462  0.00  0.00    +0.000 C 
ENDBRANCH  34  35
ENDBRANCH   5  34
TORSDOF 13
ENDMDL
MODEL 2
REMARK VINA RESULT:      -5.7      2.546      7.101
REMARK  Name = 
REMARK  21 active torsions:
REMARK  status: ('A' for Active; 'I' for Inactive)
REMARK    1  A    between atoms: C_1  and  C_2
REMARK    2  A    between atoms: C_2  and  O_3
REMARK    3  A    between atoms: O_3  and  C_4
REMARK    4  A    between atoms: C_4  and  C_6
REMARK    5  A    between atoms: C_7  and  C_8
REMARK    6  A    between atoms: C_10  and  C_11
REMARK    7  A    between atoms: C_11  and  N_12
REMARK    8  A    between atoms: N_12  and  C_13
REMARK    9  A    between atoms: N_12  and  C_14
REMARK   10  A    between atoms: C_15  and  C_16
REMARK   11  A    between atoms: C_16  and  O_18
REMARK   12  A    between atoms: O_18  and  C_19
REMARK   13  A    between atoms: C_19  and  C_20
REMARK   14  A    between atoms: C_21  and  C_22
REMARK   15  A    between atoms: C_27  and  C_28
REMARK   16  A    between atoms: C_29  and  C_30
REMARK   17  A    between atoms: C_30  and  O_32
REMARK   18  A    between atoms: O_32  and  C_33
REMARK   19  A    between atoms: C_33  and  C_34
REMARK   20  A    between atoms: C_33  and  C_35
REMARK   21  A    between atoms: C_33  and  C_36
REMARK                            x       y       z     vdW  Elec       q    Type
REMARK                         _______ _______ _______ _____ _____    ______ ____
ROOT
ATOM      1  C   UNL     1      -0.431  12.905  22.157  0.00  0.00    +0.000 C 
ATOM      2  C   UNL     1      -0.506  14.134  22.717  0.00  0.00    +0.000 C 
ATOM      3  C   UNL     1      -1.235  14.478  23.995  0.00  0.00    +0.000 C 
ATOM      4  N   UNL     1       0.116  15.204  22.099  0.00  0.00    +0.000 N 
ATOM      5  C   UNL     1       0.788  15.160  20.886  0.00  0.00    +0.000 C 
ATOM      6  C   UNL     1       1.013  13.960  20.295  0.00  0.00    +0.000 C 
ATOM      7  C   UNL     1       0.392  12.662  20.873  0.00  0.00    +0.000 C 
ATOM      8  H   UNL     1      -0.036  16.147  22.465  0.00  0.00    +0.000 HD
ENDROOT
BRANCH   7   9
ATOM      9  C   UNL     1      -0.489  11.968  19.807  0.00  0.00    +0.000 A 
ATOM     10  C   UNL     1      -1.749  12.584  19.576  0.00  0.00    +0.000 A 
ATOM     11  C   UNL     1      -2.700  12.017  18.739  0.00  0.00    +0.000 A 
ATOM     12  C   UNL     1      -2.424  10.815  18.118  0.00  0.00    +0.000 A 
ATOM     13  C   UNL     1      -1.189  10.194  18.313  0.00  0.00    +0.000 A 
ATOM     14  C   UNL     1      -0.180  10.752  19.135  0.00  0.00    +0.000 A 
BRANCH  14  15
ATOM     15  C   UNL     1       1.059   9.919  19.208  0.00  0.00    +0.000 C 
ATOM     16  C   UNL     1       1.394   8.904  18.398  0.00  0.00    +0.000 C 
BRANCH  16  17
ATOM     17  C   UNL     1       2.535   7.974  18.462  0.00  0.00    +0.000 C 
ATOM     18  O   UNL     1       3.330   7.926  17.533  0.00  0.00    +0.000 OA
BRANCH  17  19
ATOM     19  O   UNL     1       2.557   7.214  19.579  0.00  0.00    +0.000 OA
BRANCH  19  20
ATOM     20  C   UNL     1       2.674   5.769  19.430  0.00  0.00    +0.000 C 
ATOM     21  C   UNL     1       4.142   5.320  19.509  0.00  0.00    +0.000 C 
ATOM     22  C   UNL     1       1.920   5.171  20.627  0.00  0.00    +0.000 C 
ATOM     23  C   UNL     1       2.000   5.265  18.144  0.00  0.00    +0.000 C 
ENDBRANCH  19  20
ENDBRANCH  17  19
ENDBRANCH  16  17
ENDBRANCH  14  15
ENDBRANCH   7   9
BRANCH   1  24
ATOM     24  C   UNL     1      -1.243  11.776  22.688  0.00  0.00    +0.000 C 
ATOM     25  O   UNL     1      -2.451  11.662  22.537  0.00  0.00    +0.000 OA
BRANCH  24  26
ATOM     26  O   UNL     1      -0.450  10.873  23.314  0.00  0.00    +0.000 OA
BRANCH  26  28
ATOM     27  C   UNL     1       0.978   9.117  22.528  0.00  0.00    +0.000 C 
ATOM     28  C   UNL     1      -0.452   9.555  22.745  0.00  0.00    +0.000 C 
ENDBRANCH  26  28
ENDBRANCH  24  26
ENDBRANCH   1  24
BRANCH   6  29
ATOM     29  C   UNL     1       1.756  13.878  19.004  0.00  0.00    +0.000 C 
ATOM     30  O   UNL     1       1.246  13.791  17.897  0.00  0.00    +0.000 OA
BRANCH  29  31
ATOM     31  O   UNL     1       3.082  13.941  19.244  0.00  0.00    +0.000 OA
BRANCH  31  32
ATOM     32  C   UNL     1       3.950  14.303  18.161  0.00  0.00    +0.000 C 
ATOM     33  C   UNL     1       4.426  15.726  18.357  0.00  0.00    +0.000 C 
ENDBRANCH  31  32
ENDBRANCH  29  31
ENDBRANCH   6  29
BRANCH   5  34
ATOM     34  C   UNL     1       1.137  16.518  20.264  0.00  0.00    +0.000 C 
BRANCH  34  35
ATOM     35  N   UNL     1       2.197  17.278  20.977  0.00  0.00    +0.000 NA
ATOM     36  C   UNL     1       1.599  18.245  21.906  0.00  0.00    +0.000 C 
ATOM     37  C   UNL     1       3.020  16.337  21.754  0.00  0.00    +0.000 C 
ENDBRANCH  34  35
ENDBRANCH   5  34
TORSDOF 13
ENDMDL
MODEL 3
REMARK VINA RESULT:      -5.6      2.355      6.644
REMARK  Name = 
REMARK  21 active torsions:
REMARK  status: ('A' for Active; 'I' for Inactive)
REMARK    1  A    between atoms: C_1  and  C_2
REMARK    2  A    between atoms: C_2  and  O_3
REMARK    3  A    between atoms: O_3  and  C_4
REMARK    4  A    between atoms: C_4  and  C_6
REMARK    5  A    between atoms: C_7  and  C_8
REMARK    6  A    between atoms: C_10  and  C_11
REMARK    7  A    between atoms: C_11  and  N_12
REMARK    8  A    between atoms: N_12  and  C_13
REMARK    9  A    between atoms: N_12  and  C_14
REMARK   10  A    between atoms: C_15  and  C_16
REMARK   11  A    between atoms: C_16  and  O_18
REMARK   12  A    between atoms: O_18  and  C_19
REMARK   13  A    between atoms: C_19  and  C_20
REMARK   14  A    between atoms: C_21  and  C_22
REMARK   15  A    between atoms: C_27  and  C_28
REMARK   16  A    between atoms: C_29  and  C_30
REMARK   17  A    between atoms: C_30  and  O_32
REMARK   18  A    between atoms: O_32  and  C_33
REMARK   19  A    between atoms: C_33  and  C_34
REMARK   20  A    between atoms: C_33  and  C_35
REMARK   21  A    between atoms: C_33  and  C_36
REMARK                            x       y       z     vdW  Elec       q    Type
REMARK                         _______ _______ _______ _____ _____    ______ ____
ROOT
ATOM      1  C   UNL     1      -2.457  11.476  18.762  0.00  0.00    +0.000 C 
ATOM      2  C   UNL     1      -3.637  12.018  19.143  0.00  0.00    +0.000 C 
ATOM      3  C   UNL     1      -4.819  12.279  18.239  0.00  0.00    +0.000 C 
ATOM      4  N   UNL     1      -3.821  12.393  20.462  0.00  0.00    +0.000 N 
ATOM      5  C   UNL     1      -2.866  12.320  21.465  0.00  0.00    +0.000 C 
ATOM      6  C   UNL     1      -1.688  11.695  21.217  0.00  0.00    +0.000 C 
ATOM      7  C   UNL     1      -1.335  11.206  19.789  0.00  0.00    +0.000 C 
ATOM      8  H   UNL     1      -4.669  12.903  20.720  0.00  0.00    +0.000 HD
ENDROOT
BRANCH   7   9
ATOM      9  C   UNL     1      -0.016  11.857  19.308  0.00  0.00    +0.000 A 
ATOM     10  C   UNL     1      -0.018  13.279  19.298  0.00  0.00    +0.000 A 
ATOM     11  C   UNL     1       1.045  14.010  18.784  0.00  0.00    +0.000 A 
ATOM     12  C   UNL     1       2.133  13.342  18.258  0.00  0.00    +0.000 A 
ATOM     13  C   UNL     1       2.170  11.946  18.269  0.00  0.00    +0.000 A 
ATOM     14  C   UNL     1       1.122  11.163  18.809  0.00  0.00    +0.000 A 
BRANCH  14  15
ATOM     15  C   UNL     1       1.365   9.692  18.712  0.00  0.00    +0.000 C 
ATOM     16  C   UNL     1       2.458   9.088  18.222  0.00  0.00    +0.000 C 
BRANCH  16  17
ATOM     17  C   UNL     1       2.733   7.659  17.996  0.00  0.00    +0.000 C 
ATOM     18  O   UNL     1       3.632   7.329  17.234  0.00  0.00    +0.000 OA
BRANCH  17  19
ATOM     19  O   UNL     1       1.898   6.830  18.660  0.00  0.00    +0.000 OA
BRANCH  19  20
ATOM     20  C   UNL     1       2.411   5.542  19.107  0.00  0.00    +0.000 C 
ATOM     21  C   UNL     1       2.326   4.493  17.988  0.00  0.00    +0.000 C 
ATOM     22  C   UNL     1       3.892   5.782  19.436  0.00  0.00    +0.000 C 
ATOM     23  C   UNL     1       1.713   5.056  20.387  0.00  0.00    +0.000 C 
ENDBRANCH  19  20
ENDBRANCH  17  19
ENDBRANCH  16  17
ENDBRANCH  14  15
ENDBRANCH   7   9
BRANCH   1  24
ATOM     24  C   UNL     1      -2.156  11.241  17.323  0.00  0.00    +0.000 C 
ATOM     25  O   UNL     1      -1.760  12.101  16.550  0.00  0.00    +0.000 OA
BRANCH  24  26
ATOM     26  O   UNL     1      -2.334   9.935  17.007  0.00  0.00    +0.000 OA
BRANCH  26  28
ATOM     27  C   UNL     1      -2.958   9.966  14.694  0.00  0.00    +0.000 C 
ATOM     28  C   UNL     1      -3.415   9.664  16.102  0.00  0.00    +0.000 C 
ENDBRANCH  26  28
ENDBRANCH  24  26
ENDBRANCH   1  24
BRANCH   6  29
ATOM     29  C   UNL     1      -0.652  11.577  22.284  0.00  0.00    +0.000 C 
ATOM     30  O   UNL     1       0.178  12.429  22.562  0.00  0.00    +0.000 OA
BRANCH  29  31
ATOM     31  O   UNL     1      -0.789  10.392  22.915  0.00  0.00    +0.000 OA
BRANCH  31  32
ATOM     32  C   UNL     1      -0.338   9.209  22.240  0.00  0.00    +0.000 C 
ATOM     33  C   UNL     1       1.169   9.115  22.348  0.00  0.00    +0.000 C 
ENDBRANCH  31  32
ENDBRANCH  29  31
ENDBRANCH   6  29
BRANCH   5  34
ATOM     34  C   UNL     1      -3.203  13.059  22.766  0.00  0.00    +0.000 C 
BRANCH  34  35
ATOM     35  N   UNL     1      -4.506  12.687  23.377  0.00  0.00    +0.000 NA
ATOM     36  C   UNL     1      -4.330  12.342  24.793  0.00  0.00    +0.000 C 
ATOM     37  C   UNL     1      -5.421  13.836  23.290  0.00  0.00    +0.000 C 
ENDBRANCH  34  35
ENDBRANCH   5  34
TORSDOF 13
ENDMDL
MODEL 4
REMARK VINA RESULT:      -5.6      2.697      6.389
REMARK  Name = 
REMARK  21 active torsions:
REMARK  status: ('A' for Active; 'I' for Inactive)
REMARK    1  A    between atoms: C_1  and  C_2
REMARK    2  A    between atoms: C_2  and  O_3
REMARK    3  A    between atoms: O_3  and  C_4
REMARK    4  A    between atoms: C_4  and  C_6
REMARK    5  A    between atoms: C_7  and  C_8
REMARK    6  A    between atoms: C_10  and  C_11
REMARK    7  A    between atoms: C_11  and  N_12
REMARK    8  A    between atoms: N_12  and  C_13
REMARK    9  A    between atoms: N_12  and  C_14
REMARK   10  A    between atoms: C_15  and  C_16
REMARK   11  A    between atoms: C_16  and  O_18
REMARK   12  A    between atoms: O_18  and  C_19
REMARK   13  A    between atoms: C_19  and  C_20
REMARK   14  A    between atoms: C_21  and  C_22
REMARK   15  A    between atoms: C_27  and  C_28
REMARK   16  A    between atoms: C_29  and  C_30
REMARK   17  A    between atoms: C_30  and  O_32
REMARK   18  A    between atoms: O_32  and  C_33
REMARK   19  A    between atoms: C_33  and  C_34
REMARK   20  A    between atoms: C_33  and  C_35
REMARK   21  A    between atoms: C_33  and  C_36
REMARK                            x       y       z     vdW  Elec       q    Type
REMARK                         _______ _______ _______ _____ _____    ______ ____
ROOT
ATOM      1  C   UNL     1      -1.881  12.192  21.471  0.00  0.00    +0.000 C 
ATOM      2  C   UNL     1      -1.975  11.930  20.146  0.00  0.00    +0.000 C 
ATOM      3  C   UNL     1      -0.874  11.368  19.278  0.00  0.00    +0.000 C 
ATOM      4  N   UNL     1      -3.160  12.192  19.482  0.00  0.00    +0.000 N 
ATOM      5  C   UNL     1      -4.291  12.771  20.042  0.00  0.00    +0.000 C 
ATOM      6  C   UNL     1      -4.340  12.974  21.382  0.00  0.00    +0.000 C 
ATOM      7  C   UNL     1      -3.094  12.716  22.269  0.00  0.00    +0.000 C 
ATOM      8  H   UNL     1      -3.192  12.099  18.465  0.00  0.00    +0.000 HD
ENDROOT
BRANCH   7   9
ATOM      9  C   UNL     1      -2.703  14.004  23.033  0.00  0.00    +0.000 A 
ATOM     10  C   UNL     1      -2.991  13.987  24.425  0.00  0.00    +0.000 A 
ATOM     11  C   UNL     1      -2.809  15.108  25.225  0.00  0.00    +0.000 A 
ATOM     12  C   UNL     1      -2.343  16.276  24.656  0.00  0.00    +0.000 A 
ATOM     13  C   UNL     1      -2.037  16.318  23.294  0.00  0.00    +0.000 A 
ATOM     14  C   UNL     1      -2.180  15.192  22.448  0.00  0.00    +0.000 A 
BRANCH  14  15
ATOM     15  C   UNL     1      -1.802  15.460  21.028  0.00  0.00    +0.000 C 
ATOM     16  C   UNL     1      -0.560  15.536  20.528  0.00  0.00    +0.000 C 
BRANCH  16  17
ATOM     17  C   UNL     1      -0.101  15.895  19.174  0.00  0.00    +0.000 C 
ATOM     18  O   UNL     1       1.029  15.589  18.818  0.00  0.00    +0.000 OA
BRANCH  17  19
ATOM     19  O   UNL     1      -1.011  16.587  18.455  0.00  0.00    +0.000 OA
BRANCH  19  20
ATOM     20  C   UNL     1      -0.820  18.023  18.295  0.00  0.00    +0.000 C 
ATOM     21  C   UNL     1      -0.178  18.350  16.938  0.00  0.00    +0.000 C 
ATOM     22  C   UNL     1      -2.231  18.630  18.323  0.00  0.00    +0.000 C 
ATOM     23  C   UNL     1      -0.019  18.631  19.457  0.00  0.00    +0.000 C 
ENDBRANCH  19  20
ENDBRANCH  17  19
ENDBRANCH  16  17
ENDBRANCH  14  15
ENDBRANCH   7   9
BRANCH   1  24
ATOM     24  C   UNL     1      -0.570  12.103  22.172  0.00  0.00    +0.000 C 
ATOM     25  O   UNL     1       0.439  12.702  21.829  0.00  0.00    +0.000 OA
BRANCH  24  26
ATOM     26  O   UNL     1      -0.669  11.311  23.266  0.00  0.00    +0.000 OA
BRANCH  26  28
ATOM     27  C   UNL     1       0.573   9.529  22.254  0.00  0.00    +0.000 C 
ATOM     28  C   UNL     1      -0.687   9.900  23.003  0.00  0.00    +0.000 C 
ENDBRANCH  26  28
ENDBRANCH  24  26
ENDBRANCH   1  24
BRANCH   6  29
ATOM     29  C   UNL     1      -5.552  13.570  22.015  0.00  0.00    +0.000 C 
ATOM     30  O   UNL     1      -5.872  14.747  21.964  0.00  0.00    +0.000 OA
BRANCH  29  31
ATOM     31  O   UNL     1      -6.257  12.601  22.635  0.00  0.00    +0.000 OA
BRANCH  31  32
ATOM     32  C   UNL     1      -6.468  12.715  24.049  0.00  0.00    +0.000 C 
ATOM     33  C   UNL     1      -7.694  13.565  24.305  0.00  0.00    +0.000 C 
ENDBRANCH  31  32
ENDBRANCH  29  31
ENDBRANCH   6  29
BRANCH   5  34
ATOM     34  C   UNL     1      -5.368  13.229  19.051  0.00  0.00    +0.000 C 
BRANCH  34  35
ATOM     35  N   UNL     1      -5.882  12.165  18.150  0.00  0.00    +0.000 NA
ATOM     36  C   UNL     1      -6.641  11.167  18.913  0.00  0.00    +0.000 C 
ATOM     37  C   UNL     1      -6.784  12.773  17.157  0.00  0.00    +0.000 C 
ENDBRANCH  34  35
ENDBRANCH   5  34
TORSDOF 13
ENDMDL
MODEL 5
REMARK VINA RESULT:      -5.6      2.468      6.774
REMARK  Name = 
REMARK  21 active torsions:
REMARK  status: ('A' for Active; 'I' for Inactive)
REMARK    1  A    between atoms: C_1  and  C_2
REMARK    2  A    between atoms: C_2  and  O_3
REMARK    3  A    between atoms: O_3  and  C_4
REMARK    4  A    between atoms: C_4  and  C_6
REMARK    5  A    between atoms: C_7  and  C_8
REMARK    6  A    between atoms: C_10  and  C_11
REMARK    7  A    between atoms: C_11  and  N_12
REMARK    8  A    between atoms: N_12  and  C_13
REMARK    9  A    between atoms: N_12  and  C_14
REMARK   10  A    between atoms: C_15  and  C_16
REMARK   11  A    between atoms: C_16  and  O_18
REMARK   12  A    between atoms: O_18  and  C_19
REMARK   13  A    between atoms: C_19  and  C_20
REMARK   14  A    between atoms: C_21  and  C_22
REMARK   15  A    between atoms: C_27  and  C_28
REMARK   16  A    between atoms: C_29  and  C_30
REMARK   17  A    between atoms: C_30  and  O_32
REMARK   18  A    between atoms: O_32  and  C_33
REMARK   19  A    between atoms: C_33  and  C_34
REMARK   20  A    between atoms: C_33  and  C_35
REMARK   21  A    between atoms: C_33  and  C_36
REMARK                            x       y       z     vdW  Elec       q    Type
REMARK                         _______ _______ _______ _____ _____    ______ ____
ROOT
ATOM      1  C   UNL     1      -2.352  11.053  18.477  0.00  0.00    +0.000 C 
ATOM      2  C   UNL     1      -3.490  11.775  18.602  0.00  0.00    +0.000 C 
ATOM      3  C   UNL     1      -4.585  11.882  17.567  0.00  0.00    +0.000 C 
ATOM      4  N   UNL     1      -3.711  12.504  19.757  0.00  0.00    +0.000 N 
ATOM      5  C   UNL     1      -2.828  12.623  20.821  0.00  0.00    +0.000 C 
ATOM      6  C   UNL     1      -1.709  11.856  20.845  0.00  0.00    +0.000 C 
ATOM      7  C   UNL     1      -1.326  10.974  19.628  0.00  0.00    +0.000 C 
ATOM      8  H   UNL     1      -4.515  13.134  19.802  0.00  0.00    +0.000 HD
ENDROOT
BRANCH   7   9
ATOM      9  C   UNL     1       0.079  11.359  19.106  0.00  0.00    +0.000 A 
ATOM     10  C   UNL     1       0.223  12.719  18.718  0.00  0.00    +0.000 A 
ATOM     11  C   UNL     1       1.384  13.191  18.121  0.00  0.00    +0.000 A 
ATOM     12  C   UNL     1       2.427  12.318  17.887  0.00  0.00    +0.000 A 
ATOM     13  C   UNL     1       2.321  10.981  18.272  0.00  0.00    +0.000 A 
ATOM     14  C   UNL     1       1.168  10.463  18.909  0.00  0.00    +0.000 A 
BRANCH  14  15
ATOM     15  C   UNL     1       1.264   9.007  19.228  0.00  0.00    +0.000 C 
ATOM     16  C   UNL     1       2.232   8.162  18.842  0.00  0.00    +0.000 C 
BRANCH  16  17
ATOM     17  C   UNL     1       2.349   6.705  19.024  0.00  0.00    +0.000 C 
ATOM     18  O   UNL     1       2.155   6.216  20.129  0.00  0.00    +0.000 OA
BRANCH  17  19
ATOM     19  O   UNL     1       2.710   6.042  17.904  0.00  0.00    +0.000 OA
BRANCH  19  20
ATOM     20  C   UNL     1       4.111   5.678  17.737  0.00  0.00    +0.000 C 
ATOM     21  C   UNL     1       4.910   6.824  17.095  0.00  0.00    +0.000 C 
ATOM     22  C   UNL     1       4.648   5.449  19.157  0.00  0.00    +0.000 C 
ATOM     23  C   UNL     1       4.277   4.369  16.950  0.00  0.00    +0.000 C 
ENDBRANCH  19  20
ENDBRANCH  17  19
ENDBRANCH  16  17
ENDBRANCH  14  15
ENDBRANCH   7   9
BRANCH   1  24
ATOM     24  C   UNL     1      -1.995  10.415  17.180  0.00  0.00    +0.000 C 
ATOM     25  O   UNL     1      -1.320   9.402  17.070  0.00  0.00    +0.000 OA
BRANCH  24  26
ATOM     26  O   UNL     1      -2.563  11.085  16.148  0.00  0.00    +0.000 OA
BRANCH  26  28
ATOM     27  C   UNL     1      -4.043  10.180  14.494  0.00  0.00    +0.000 C 
ATOM     28  C   UNL     1      -2.600  10.375  14.901  0.00  0.00    +0.000 C 
ENDBRANCH  26  28
ENDBRANCH  24  26
ENDBRANCH   1  24
BRANCH   6  29
ATOM     29  C   UNL     1      -0.755  11.942  21.988  0.00  0.00    +0.000 C 
ATOM     30  O   UNL     1       0.107  12.796  22.129  0.00  0.00    +0.000 OA
BRANCH  29  31
ATOM     31  O   UNL     1      -1.006  10.944  22.859  0.00  0.00    +0.000 OA
BRANCH  31  32
ATOM     32  C   UNL     1      -0.029   9.904  23.000  0.00  0.00    +0.000 C 
ATOM     33  C   UNL     1      -0.520   8.657  22.296  0.00  0.00    +0.000 C 
ENDBRANCH  31  32
ENDBRANCH  29  31
ENDBRANCH   6  29
BRANCH   5  34
ATOM     34  C   UNL     1      -3.162  13.710  21.850  0.00  0.00    +0.000 C 
BRANCH  34  35
ATOM     35  N   UNL     1      -4.275  13.373  22.776  0.00  0.00    +0.000 NA
ATOM     36  C   UNL     1      -3.751  12.806  24.025  0.00  0.00    +0.000 C 
ATOM     37  C   UNL     1      -5.016  14.603  23.101  0.00  0.00    +0.000 C 
ENDBRANCH  34  35
ENDBRANCH   5  34
TORSDOF 13
ENDMDL
MODEL 6
REMARK VINA RESULT:      -5.4      2.398      6.738
REMARK  Name = 
REMARK  21 active torsions:
REMARK  status: ('A' for Active; 'I' for Inactive)
REMARK    1  A    between atoms: C_1  and  C_2
REMARK    2  A    between atoms: C_2  and  O_3
REMARK    3  A    between atoms: O_3  and  C_4
REMARK    4  A    between atoms: C_4  and  C_6
REMARK    5  A    between atoms: C_7  and  C_8
REMARK    6  A    between atoms: C_10  and  C_11
REMARK    7  A    between atoms: C_11  and  N_12
REMARK    8  A    between atoms: N_12  and  C_13
REMARK    9  A    between atoms: N_12  and  C_14
REMARK   10  A    between atoms: C_15  and  C_16
REMARK   11  A    between atoms: C_16  and  O_18
REMARK   12  A    between atoms: O_18  and  C_19
REMARK   13  A    between atoms: C_19  and  C_20
REMARK   14  A    between atoms: C_21  and  C_22
REMARK   15  A    between atoms: C_27  and  C_28
REMARK   16  A    between atoms: C_29  and  C_30
REMARK   17  A    between atoms: C_30  and  O_32
REMARK   18  A    between atoms: O_32  and  C_33
REMARK   19  A    between atoms: C_33  and  C_34
REMARK   20  A    between atoms: C_33  and  C_35
REMARK   21  A    between atoms: C_33  and  C_36
REMARK                            x       y       z     vdW  Elec       q    Type
REMARK                         _______ _______ _______ _____ _____    ______ ____
ROOT
ATOM      1  C   UNL     1      -2.607  11.583  18.938  0.00  0.00    +0.000 C 
ATOM      2  C   UNL     1      -3.777  12.194  19.240  0.00  0.00    +0.000 C 
ATOM      3  C   UNL     1      -4.934  12.403  18.291  0.00  0.00    +0.000 C 
ATOM      4  N   UNL     1      -3.974  12.696  20.514  0.00  0.00    +0.000 N 
ATOM      5  C   UNL     1      -3.040  12.689  21.541  0.00  0.00    +0.000 C 
ATOM      6  C   UNL     1      -1.878  12.009  21.377  0.00  0.00    +0.000 C 
ATOM      7  C   UNL     1      -1.514  11.378  20.008  0.00  0.00    +0.000 C 
ATOM      8  H   UNL     1      -4.809  13.253  20.706  0.00  0.00    +0.000 HD
ENDROOT
BRANCH   7   9
ATOM      9  C   UNL     1      -0.167  11.942  19.498  0.00  0.00    +0.000 A 
ATOM     10  C   UNL     1      -0.184  13.323  19.159  0.00  0.00    +0.000 A 
ATOM     11  C   UNL     1       0.911  13.948  18.576  0.00  0.00    +0.000 A 
ATOM     12  C   UNL     1       2.047  13.211  18.309  0.00  0.00    +0.000 A 
ATOM     13  C   UNL     1       2.099  11.857  18.645  0.00  0.00    +0.000 A 
ATOM     14  C   UNL     1       1.018  11.187  19.266  0.00  0.00    +0.000 A 
BRANCH  14  15
ATOM     15  C   UNL     1       1.285   9.741  19.532  0.00  0.00    +0.000 C 
ATOM     16  C   UNL     1       1.930   8.882  18.729  0.00  0.00    +0.000 C 
BRANCH  16  17
ATOM     17  C   UNL     1       2.145   7.431  18.866  0.00  0.00    +0.000 C 
ATOM     18  O   UNL     1       1.904   6.883  19.933  0.00  0.00    +0.000 OA
BRANCH  17  19
ATOM     19  O   UNL     1       2.643   6.845  17.756  0.00  0.00    +0.000 OA
BRANCH  19  20
ATOM     20  C   UNL     1       3.852   6.042  17.879  0.00  0.00    +0.000 C 
ATOM     21  C   UNL     1       3.726   4.724  17.099  0.00  0.00    +0.000 C 
ATOM     22  C   UNL     1       4.968   6.880  17.237  0.00  0.00    +0.000 C 
ATOM     23  C   UNL     1       4.231   5.792  19.347  0.00  0.00    +0.000 C 
ENDBRANCH  19  20
ENDBRANCH  17  19
ENDBRANCH  16  17
ENDBRANCH  14  15
ENDBRANCH   7   9
BRANCH   1  24
ATOM     24  C   UNL     1      -2.288  11.205  17.533  0.00  0.00    +0.000 C 
ATOM     25  O   UNL     1      -1.754  11.948  16.722  0.00  0.00    +0.000 OA
BRANCH  24  26
ATOM     26  O   UNL     1      -2.625   9.914  17.300  0.00  0.00    +0.000 OA
BRANCH  26  28
ATOM     27  C   UNL     1      -3.861  10.402  15.306  0.00  0.00    +0.000 C 
ATOM     28  C   UNL     1      -2.767   9.557  15.917  0.00  0.00    +0.000 C 
ENDBRANCH  26  28
ENDBRANCH  24  26
ENDBRANCH   1  24
BRANCH   6  29
ATOM     29  C   UNL     1      -0.866  11.961  22.472  0.00  0.00    +0.000 C 
ATOM     30  O   UNL     1      -0.016  12.811  22.689  0.00  0.00    +0.000 OA
BRANCH  29  31
ATOM     31  O   UNL     1      -1.051  10.845  23.206  0.00  0.00    +0.000 OA
BRANCH  31  32
ATOM     32  C   UNL     1      -0.041   9.827  23.158  0.00  0.00    +0.000 C 
ATOM     33  C   UNL     1      -0.536   8.671  22.314  0.00  0.00    +0.000 C 
ENDBRANCH  31  32
ENDBRANCH  29  31
ENDBRANCH   6  29
BRANCH   5  34
ATOM     34  C   UNL     1      -3.378  13.557  22.759  0.00  0.00    +0.000 C 
BRANCH  34  35
ATOM     35  N   UNL     1      -4.654  13.212  23.437  0.00  0.00    +0.000 NA
ATOM     36  C   UNL     1      -4.392  12.523  24.707  0.00  0.00    +0.000 C 
ATOM     37  C   UNL     1      -5.393  14.452  23.728  0.00  0.00    +0.000 C 
ENDBRANCH  34  35
ENDBRANCH   5  34
TORSDOF 13
ENDMDL
MODEL 7
REMARK VINA RESULT:      -5.4      2.705      7.237
REMARK  Name = 
REMARK  21 active torsions:
REMARK  status: ('A' for Active; 'I' for Inactive)
REMARK    1  A    between atoms: C_1  and  C_2
REMARK    2  A    between atoms: C_2  and  O_3
REMARK    3  A    between atoms: O_3  and  C_4
REMARK    4  A    between atoms: C_4  and  C_6
REMARK    5  A    between atoms: C_7  and  C_8
REMARK    6  A    between atoms: C_10  and  C_11
REMARK    7  A    between atoms: C_11  and  N_12
REMARK    8  A    between atoms: N_12  and  C_13
REMARK    9  A    between atoms: N_12  and  C_14
REMARK   10  A    between atoms: C_15  and  C_16
REMARK   11  A    between atoms: C_16  and  O_18
REMARK   12  A    between atoms: O_18  and  C_19
REMARK   13  A    between atoms: C_19  and  C_20
REMARK   14  A    between atoms: C_21  and  C_22
REMARK   15  A    between atoms: C_27  and  C_28
REMARK   16  A    between atoms: C_29  and  C_30
REMARK   17  A    between atoms: C_30  and  O_32
REMARK   18  A    between atoms: O_32  and  C_33
REMARK   19  A    between atoms: C_33  and  C_34
REMARK   20  A    between atoms: C_33  and  C_35
REMARK   21  A    between atoms: C_33  and  C_36
REMARK                            x       y       z     vdW  Elec       q    Type
REMARK                         _______ _______ _______ _____ _____    ______ ____
ROOT
ATOM      1  C   UNL     1       0.080  12.836  21.641  0.00  0.00    +0.000 C 
ATOM      2  C   UNL     1      -0.009  14.084  22.157  0.00  0.00    +0.000 C 
ATOM      3  C   UNL     1      -0.776  14.470  23.401  0.00  0.00    +0.000 C 
ATOM      4  N   UNL     1       0.632  15.132  21.522  0.00  0.00    +0.000 N 
ATOM      5  C   UNL     1       1.340  15.046  20.332  0.00  0.00    +0.000 C 
ATOM      6  C   UNL     1       1.580  13.827  19.788  0.00  0.00    +0.000 C 
ATOM      7  C   UNL     1       0.940  12.549  20.391  0.00  0.00    +0.000 C 
ATOM      8  H   UNL     1       0.471  16.086  21.851  0.00  0.00    +0.000 HD
ENDROOT
BRANCH   7   9
ATOM      9  C   UNL     1       0.089  11.820  19.324  0.00  0.00    +0.000 A 
ATOM     10  C   UNL     1      -1.092  12.506  18.926  0.00  0.00    +0.000 A 
ATOM     11  C   UNL     1      -2.019  11.931  18.067  0.00  0.00    +0.000 A 
ATOM     12  C   UNL     1      -1.798  10.655  17.590  0.00  0.00    +0.000 A 
ATOM     13  C   UNL     1      -0.640   9.963  17.950  0.00  0.00    +0.000 A 
ATOM     14  C   UNL     1       0.345  10.522  18.800  0.00  0.00    +0.000 A 
BRANCH  14  15
ATOM     15  C   UNL     1       1.498   9.607  19.060  0.00  0.00    +0.000 C 
ATOM     16  C   UNL     1       1.627   8.338  18.645  0.00  0.00    +0.000 C 
BRANCH  16  17
ATOM     17  C   UNL     1       2.672   7.344  18.941  0.00  0.00    +0.000 C 
ATOM     18  O   UNL     1       2.608   6.687  19.971  0.00  0.00    +0.000 OA
BRANCH  17  19
ATOM     19  O   UNL     1       3.654   7.291  18.014  0.00  0.00    +0.000 OA
BRANCH  19  20
ATOM     20  C   UNL     1       4.167   5.984  17.623  0.00  0.00    +0.000 C 
ATOM     21  C   UNL     1       4.961   6.071  16.310  0.00  0.00    +0.000 C 
ATOM     22  C   UNL     1       5.129   5.568  18.745  0.00  0.00    +0.000 C 
ATOM     23  C   UNL     1       3.053   4.930  17.537  0.00  0.00    +0.000 C 
ENDBRANCH  19  20
ENDBRANCH  17  19
ENDBRANCH  16  17
ENDBRANCH  14  15
ENDBRANCH   7   9
BRANCH   1  24
ATOM     24  C   UNL     1      -0.750  11.726  22.186  0.00  0.00    +0.000 C 
ATOM     25  O   UNL     1      -1.966  11.655  22.078  0.00  0.00    +0.000 OA
BRANCH  24  26
ATOM     26  O   UNL     1       0.034  10.787  22.768  0.00  0.00    +0.000 OA
BRANCH  26  28
ATOM     27  C   UNL     1      -0.348   8.610  21.844  0.00  0.00    +0.000 C 
ATOM     28  C   UNL     1      -0.602   9.525  23.019  0.00  0.00    +0.000 C 
ENDBRANCH  26  28
ENDBRANCH  24  26
ENDBRANCH   1  24
BRANCH   6  29
ATOM     29  C   UNL     1       2.360  13.701  18.523  0.00  0.00    +0.000 C 
ATOM     30  O   UNL     1       1.887  13.687  17.397  0.00  0.00    +0.000 OA
BRANCH  29  31
ATOM     31  O   UNL     1       3.676  13.630  18.812  0.00  0.00    +0.000 OA
BRANCH  31  32
ATOM     32  C   UNL     1       4.548  14.620  18.250  0.00  0.00    +0.000 C 
ATOM     33  C   UNL     1       5.258  15.354  19.368  0.00  0.00    +0.000 C 
ENDBRANCH  31  32
ENDBRANCH  29  31
ENDBRANCH   6  29
BRANCH   5  34
ATOM     34  C   UNL     1       1.709  16.382  19.675  0.00  0.00    +0.000 C 
BRANCH  34  35
ATOM     35  N   UNL     1       0.566  17.302  19.443  0.00  0.00    +0.000 NA
ATOM     36  C   UNL     1       0.852  18.629  20.003  0.00  0.00    +0.000 C 
ATOM     37  C   UNL     1       0.355  17.447  17.993  0.00  0.00    +0.000 C 
ENDBRANCH  34  35
ENDBRANCH   5  34
TORSDOF 13
ENDMDL
MODEL 8
REMARK VINA RESULT:      -5.4      2.224      6.657
REMARK  Name = 
REMARK  21 active torsions:
REMARK  status: ('A' for Active; 'I' for Inactive)
REMARK    1  A    between atoms: C_1  and  C_2
REMARK    2  A    between atoms: C_2  and  O_3
REMARK    3  A    between atoms: O_3  and  C_4
REMARK    4  A    between atoms: C_4  and  C_6
REMARK    5  A    between atoms: C_7  and  C_8
REMARK    6  A    between atoms: C_10  and  C_11
REMARK    7  A    between atoms: C_11  and  N_12
REMARK    8  A    between atoms: N_12  and  C_13
REMARK    9  A    between atoms: N_12  and  C_14
REMARK   10  A    between atoms: C_15  and  C_16
REMARK   11  A    between atoms: C_16  and  O_18
REMARK   12  A    between atoms: O_18  and  C_19
REMARK   13  A    between atoms: C_19  and  C_20
REMARK   14  A    between atoms: C_21  and  C_22
REMARK   15  A    between atoms: C_27  and  C_28
REMARK   16  A    between atoms: C_29  and  C_30
REMARK   17  A    between atoms: C_30  and  O_32
REMARK   18  A    between atoms: O_32  and  C_33
REMARK   19  A    between atoms: C_33  and  C_34
REMARK   20  A    between atoms: C_33  and  C_35
REMARK   21  A    between atoms: C_33  and  C_36
REMARK                            x       y       z     vdW  Elec       q    Type
REMARK                         _______ _______ _______ _____ _____    ______ ____
ROOT
ATOM      1  C   UNL     1      -2.645  11.643  18.977  0.00  0.00    +0.000 C 
ATOM      2  C   UNL     1      -3.806  12.206  19.388  0.00  0.00    +0.000 C 
ATOM      3  C   UNL     1      -5.010  12.477  18.517  0.00  0.00    +0.000 C 
ATOM      4  N   UNL     1      -3.947  12.592  20.708  0.00  0.00    +0.000 N 
ATOM      5  C   UNL     1      -2.963  12.513  21.684  0.00  0.00    +0.000 C 
ATOM      6  C   UNL     1      -1.803  11.868  21.407  0.00  0.00    +0.000 C 
ATOM      7  C   UNL     1      -1.498  11.364  19.973  0.00  0.00    +0.000 C 
ATOM      8  H   UNL     1      -4.779  13.117  20.987  0.00  0.00    +0.000 HD
ENDROOT
BRANCH   7   9
ATOM      9  C   UNL     1      -0.185  11.992  19.449  0.00  0.00    +0.000 A 
ATOM     10  C   UNL     1      -0.182  13.413  19.388  0.00  0.00    +0.000 A 
ATOM     11  C   UNL     1       0.876  14.120  18.832  0.00  0.00    +0.000 A 
ATOM     12  C   UNL     1       1.953  13.429  18.314  0.00  0.00    +0.000 A 
ATOM     13  C   UNL     1       1.986  12.035  18.375  0.00  0.00    +0.000 A 
ATOM     14  C   UNL     1       0.943  11.275  18.959  0.00  0.00    +0.000 A 
BRANCH  14  15
ATOM     15  C   UNL     1       1.180   9.801  18.912  0.00  0.00    +0.000 C 
ATOM     16  C   UNL     1       2.294   9.179  18.500  0.00  0.00    +0.000 C 
BRANCH  16  17
ATOM     17  C   UNL     1       2.570   7.742  18.325  0.00  0.00    +0.000 C 
ATOM     18  O   UNL     1       3.211   7.363  17.354  0.00  0.00    +0.000 OA
BRANCH  17  19
ATOM     19  O   UNL     1       2.028   6.961  19.285  0.00  0.00    +0.000 OA
BRANCH  19  20
ATOM     20  C   UNL     1       2.502   5.589  19.411  0.00  0.00    +0.000 C 
ATOM     21  C   UNL     1       1.872   4.894  20.628  0.00  0.00    +0.000 C 
ATOM     22  C   UNL     1       2.023   4.870  18.141  0.00  0.00    +0.000 C 
ATOM     23  C   UNL     1       4.036   5.511  19.451  0.00  0.00    +0.000 C 
ENDBRANCH  19  20
ENDBRANCH  17  19
ENDBRANCH  16  17
ENDBRANCH  14  15
ENDBRANCH   7   9
BRANCH   1  24
ATOM     24  C   UNL     1      -2.391  11.393  17.532  0.00  0.00    +0.000 C 
ATOM     25  O   UNL     1      -1.745  12.136  16.805  0.00  0.00    +0.000 OA
BRANCH  24  26
ATOM     26  O   UNL     1      -2.928  10.209  17.151  0.00  0.00    +0.000 OA
BRANCH  26  28
ATOM     27  C   UNL     1      -2.944   9.881  14.778  0.00  0.00    +0.000 C 
ATOM     28  C   UNL     1      -3.767  10.261  15.988  0.00  0.00    +0.000 C 
ENDBRANCH  26  28
ENDBRANCH  24  26
ENDBRANCH   1  24
BRANCH   6  29
ATOM     29  C   UNL     1      -0.738  11.743  22.444  0.00  0.00    +0.000 C 
ATOM     30  O   UNL     1       0.164  12.544  22.634  0.00  0.00    +0.000 OA
BRANCH  29  31
ATOM     31  O   UNL     1      -0.939  10.618  23.162  0.00  0.00    +0.000 OA
BRANCH  31  32
ATOM     32  C   UNL     1      -0.547   9.366  22.583  0.00  0.00    +0.000 C 
ATOM     33  C   UNL     1       0.963   9.301  22.507  0.00  0.00    +0.000 C 
ENDBRANCH  31  32
ENDBRANCH  29  31
ENDBRANCH   6  29
BRANCH   5  34
ATOM     34  C   UNL     1      -3.252  13.266  22.989  0.00  0.00    +0.000 C 
BRANCH  34  35
ATOM     35  N   UNL     1      -3.477  14.726  22.830  0.00  0.00    +0.000 NA
ATOM     36  C   UNL     1      -4.048  15.296  24.058  0.00  0.00    +0.000 C 
ATOM     37  C   UNL     1      -2.185  15.384  22.572  0.00  0.00    +0.000 C 
ENDBRANCH  34  35
ENDBRANCH   5  34
TORSDOF 13
ENDMDL
MODEL 9
REMARK VINA RESULT:      -5.3      2.403      6.795
REMARK  Name = 
REMARK  21 active torsions:
REMARK  status: ('A' for Active; 'I' for Inactive)
REMARK    1  A    between atoms: C_1  and  C_2
REMARK    2  A    between atoms: C_2  and  O_3
REMARK    3  A    between atoms: O_3  and  C_4
REMARK    4  A    between atoms: C_4  and  C_6
REMARK    5  A    between atoms: C_7  and  C_8
REMARK    6  A    between atoms: C_10  and  C_11
REMARK    7  A    between atoms: C_11  and  N_12
REMARK    8  A    between atoms: N_12  and  C_13
REMARK    9  A    between atoms: N_12  and  C_14
REMARK   10  A    between atoms: C_15  and  C_16
REMARK   11  A    between atoms: C_16  and  O_18
REMARK   12  A    between atoms: O_18  and  C_19
REMARK   13  A    between atoms: C_19  and  C_20
REMARK   14  A    between atoms: C_21  and  C_22
REMARK   15  A    between atoms: C_27  and  C_28
REMARK   16  A    between atoms: C_29  and  C_30
REMARK   17  A    between atoms: C_30  and  O_32
REMARK   18  A    between atoms: O_32  and  C_33
REMARK   19  A    between atoms: C_33  and  C_34
REMARK   20  A    between atoms: C_33  and  C_35
REMARK   21  A    between atoms: C_33  and  C_36
REMARK                            x       y       z     vdW  Elec       q    Type
REMARK                         _______ _______ _______ _____ _____    ______ ____
ROOT
ATOM      1  C   UNL     1      -2.470  11.179  18.643  0.00  0.00    +0.000 C 
ATOM      2  C   UNL     1      -3.650  11.817  18.822  0.00  0.00    +0.000 C 
ATOM      3  C   UNL     1      -4.782  11.874  17.823  0.00  0.00    +0.000 C 
ATOM      4  N   UNL     1      -3.884  12.499  20.003  0.00  0.00    +0.000 N 
ATOM      5  C   UNL     1      -2.978  12.652  21.042  0.00  0.00    +0.000 C 
ATOM      6  C   UNL     1      -1.808  11.966  21.011  0.00  0.00    +0.000 C 
ATOM      7  C   UNL     1      -1.404  11.143  19.760  0.00  0.00    +0.000 C 
ATOM      8  H   UNL     1      -4.727  13.071  20.089  0.00  0.00    +0.000 HD
ENDROOT
BRANCH   7   9
ATOM      9  C   UNL     1      -0.047  11.638  19.207  0.00  0.00    +0.000 A 
ATOM     10  C   UNL     1      -0.016  13.009  18.831  0.00  0.00    +0.000 A 
ATOM     11  C   UNL     1       1.090  13.574  18.210  0.00  0.00    +0.000 A 
ATOM     12  C   UNL     1       2.190  12.785  17.939  0.00  0.00    +0.000 A 
ATOM     13  C   UNL     1       2.194  11.439  18.310  0.00  0.00    +0.000 A 
ATOM     14  C   UNL     1       1.101  10.829  18.971  0.00  0.00    +0.000 A 
BRANCH  14  15
ATOM     15  C   UNL     1       1.315   9.381  19.269  0.00  0.00    +0.000 C 
ATOM     16  C   UNL     1       2.203   8.563  18.686  0.00  0.00    +0.000 C 
BRANCH  16  17
ATOM     17  C   UNL     1       2.407   7.113  18.846  0.00  0.00    +0.000 C 
ATOM     18  O   UNL     1       2.004   6.554  19.858  0.00  0.00    +0.000 OA
BRANCH  17  19
ATOM     19  O   UNL     1       3.082   6.540  17.826  0.00  0.00    +0.000 OA
BRANCH  19  20
ATOM     20  C   UNL     1       3.379   5.116  17.905  0.00  0.00    +0.000 C 
ATOM     21  C   UNL     1       4.399   4.702  16.833  0.00  0.00    +0.000 C 
ATOM     22  C   UNL     1       4.016   4.906  19.287  0.00  0.00    +0.000 C 
ATOM     23  C   UNL     1       2.107   4.257  17.833  0.00  0.00    +0.000 C 
ENDBRANCH  19  20
ENDBRANCH  17  19
ENDBRANCH  16  17
ENDBRANCH  14  15
ENDBRANCH   7   9
BRANCH   1  24
ATOM     24  C   UNL     1      -2.111  10.602  17.318  0.00  0.00    +0.000 C 
ATOM     25  O   UNL     1      -1.461   9.577  17.164  0.00  0.00    +0.000 OA
BRANCH  24  26
ATOM     26  O   UNL     1      -2.647  11.339  16.316  0.00  0.00    +0.000 OA
BRANCH  26  28
ATOM     27  C   UNL     1      -4.006  10.039  14.832  0.00  0.00    +0.000 C 
ATOM     28  C   UNL     1      -2.664  10.706  15.028  0.00  0.00    +0.000 C 
ENDBRANCH  26  28
ENDBRANCH  24  26
ENDBRANCH   1  24
BRANCH   6  29
ATOM     29  C   UNL     1      -0.826  12.089  22.127  0.00  0.00    +0.000 C 
ATOM     30  O   UNL     1      -0.053  13.020  22.290  0.00  0.00    +0.000 OA
BRANCH  29  31
ATOM     31  O   UNL     1      -0.940  11.023  22.946  0.00  0.00    +0.000 OA
BRANCH  31  32
ATOM     32  C   UNL     1       0.078  10.014  22.892  0.00  0.00    +0.000 C 
ATOM     33  C   UNL     1      -0.516   8.734  22.345  0.00  0.00    +0.000 C 
ENDBRANCH  31  32
ENDBRANCH  29  31
ENDBRANCH   6  29
BRANCH   5  34
ATOM     34  C   UNL     1      -3.353  13.687  22.111  0.00  0.00    +0.000 C 
BRANCH  34  35
ATOM     35  N   UNL     1      -2.933  15.080  21.807  0.00  0.00    +0.000 NA
ATOM     36  C   UNL     1      -4.091  15.892  21.413  0.00  0.00    +0.000 C 
ATOM     37  C   UNL     1      -2.340  15.675  23.015  0.00  0.00    +0.000 C 
ENDBRANCH  34  35
ENDBRANCH   5  34
TORSDOF 13
ENDMDL
