MODEL 1
REMARK VINA RESULT:      -8.3      0.000      0.000
REMARK  Name = 
REMARK  9 active torsions:
REMARK  status: ('A' for Active; 'I' for Inactive)
REMARK    1  A    between atoms: C_1  and  C_2
REMARK    2  A    between atoms: C_5  and  S_6
REMARK    3  A    between atoms: S_6  and  C_7
REMARK    4  A    between atoms: C_9  and  C_10
REMARK    5  A    between atoms: C_10  and  O_11
REMARK    6  A    between atoms: C_12  and  O_13
REMARK    7  A    between atoms: C_14  and  N_15
REMARK    8  A    between atoms: C_17  and  C_18
REMARK    9  A    between atoms: C_28  and  O_29
REMARK                            x       y       z     vdW  Elec       q    Type
REMARK                         _______ _______ _______ _____ _____    ______ ____
ROOT
ATOM      1  C   UNL     1       4.145   5.200  16.999  0.00  0.00    +0.000 C 
ATOM      2  O   UNL     1       4.858   4.004  17.266  0.00  0.00    +0.000 OA
ATOM      3  C   UNL     1       6.018   4.209  18.068  0.00  0.00    +0.000 C 
ATOM      4  C   UNL     1       7.070   4.757  17.108  0.00  0.00    +0.000 C 
ATOM      5  C   UNL     1       6.726   6.213  16.703  0.00  0.00    +0.000 C 
ATOM      6  C   UNL     1       5.145   6.330  16.427  0.00  0.00    +0.000 C 
ENDROOT
BRANCH   5   7
ATOM      7  N   UNL     1       7.311   7.238  17.573  0.00  0.00    +0.000 N 
ATOM      8  C   UNL     1       7.205   8.610  17.504  0.00  0.00    +0.000 A 
ATOM      9  C   UNL     1       8.257   9.060  18.286  0.00  0.00    +0.000 A 
ATOM     10  N   UNL     1       8.764   7.987  18.977  0.00  0.00    +0.000 NA
ATOM     11  N   UNL     1       8.142   6.891  18.574  0.00  0.00    +0.000 NA
BRANCH   9  12
ATOM     12  C   UNL     1       8.884  10.384  18.295  0.00  0.00    +0.000 A 
ATOM     13  C   UNL     1       8.223  11.430  17.632  0.00  0.00    +0.000 A 
ATOM     14  C   UNL     1       8.723  12.747  17.700  0.00  0.00    +0.000 A 
ATOM     15  C   UNL     1       9.868  13.028  18.432  0.00  0.00    +0.000 A 
ATOM     16 CL   UNL     1      10.376  14.676  18.503  0.00  0.00    +0.000 Cl
ATOM     17  C   UNL     1      10.538  11.986  19.086  0.00  0.00    +0.000 A 
ATOM     18 CL   UNL     1      11.964  12.282  20.025  0.00  0.00    +0.000 Cl
ATOM     19  C   UNL     1      10.053  10.670  19.007  0.00  0.00    +0.000 A 
ENDBRANCH   9  12
ENDBRANCH   5   7
BRANCH   4  20
ATOM     20  O   UNL     1       8.385   4.523  17.597  0.00  0.00    +0.000 OA
ATOM     21  H   UNL     1       8.568   3.563  17.483  0.00  0.00    +0.000 HD
ENDBRANCH   4  20
BRANCH   6  22
ATOM     22  O   UNL     1       5.052   6.198  14.964  0.00  0.00    +0.000 OA
ATOM     23  H   UNL     1       4.475   6.916  14.634  0.00  0.00    +0.000 HD
ENDBRANCH   6  22
BRANCH   1  24
ATOM     24  S   UNL     1       2.796   5.278  18.324  0.00  0.00    +0.000 S 
BRANCH  24  29
ATOM     25  C   UNL     1       0.655  11.016  18.858  0.00  0.00    +0.000 C 
ATOM     26  C   UNL     1       1.473   9.754  18.772  0.00  0.00    +0.000 A 
ATOM     27  C   UNL     1       1.569   8.918  19.887  0.00  0.00    +0.000 A 
ATOM     28  C   UNL     1       2.107   7.625  19.777  0.00  0.00    +0.000 A 
ATOM     29  C   UNL     1       2.528   7.103  18.551  0.00  0.00    +0.000 A 
ATOM     30  C   UNL     1       2.561   7.997  17.461  0.00  0.00    +0.000 A 
ATOM     31  C   UNL     1       2.035   9.314  17.570  0.00  0.00    +0.000 A 
ENDBRANCH  24  29
ENDBRANCH   1  24
BRANCH   3  32
ATOM     32  C   UNL     1       5.860   5.081  19.344  0.00  0.00    +0.000 C 
BRANCH  32  33
ATOM     33  O   UNL     1       7.029   4.962  20.151  0.00  0.00    +0.000 OA
ATOM     34  H   UNL     1       7.621   5.695  19.886  0.00  0.00    +0.000 HD
ENDBRANCH  32  33
ENDBRANCH   3  32
TORSDOF 8
ENDMDL
MODEL 2
REMARK VINA RESULT:      -8.2      0.839      1.226
REMARK  Name = 
REMARK  9 active torsions:
REMARK  status: ('A' for Active; 'I' for Inactive)
REMARK    1  A    between atoms: C_1  and  C_2
REMARK    2  A    between atoms: C_5  and  S_6
REMARK    3  A    between atoms: S_6  and  C_7
REMARK    4  A    between atoms: C_9  and  C_10
REMARK    5  A    between atoms: C_10  and  O_11
REMARK    6  A    between atoms: C_12  and  O_13
REMARK    7  A    between atoms: C_14  and  N_15
REMARK    8  A    between atoms: C_17  and  C_18
REMARK    9  A    between atoms: C_28  and  O_29
REMARK                            x       y       z     vdW  Elec       q    Type
REMARK                         _______ _______ _______ _____ _____    ______ ____
ROOT
ATOM      1  C   UNL     1       4.024   5.760  17.045  0.00  0.00    +0.000 C 
ATOM      2  O   UNL     1       4.663   4.496  17.084  0.00  0.00    +0.000 OA
ATOM      3  C   UNL     1       5.872   4.501  17.837  0.00  0.00    +0.000 C 
ATOM      4  C   UNL     1       6.912   5.125  16.910  0.00  0.00    +0.000 C 
ATOM      5  C   UNL     1       6.652   6.645  16.752  0.00  0.00    +0.000 C 
ATOM      6  C   UNL     1       5.072   6.901  16.592  0.00  0.00    +0.000 C 
ENDROOT
BRANCH   5   7
ATOM      7  N   UNL     1       7.350   7.483  17.731  0.00  0.00    +0.000 N 
ATOM      8  C   UNL     1       7.376   8.855  17.849  0.00  0.00    +0.000 A 
ATOM      9  C   UNL     1       8.482   9.096  18.649  0.00  0.00    +0.000 A 
ATOM     10  N   UNL     1       8.897   7.897  19.174  0.00  0.00    +0.000 NA
ATOM     11  N   UNL     1       8.164   6.929  18.649  0.00  0.00    +0.000 NA
BRANCH   9  12
ATOM     12  C   UNL     1       9.234  10.343  18.814  0.00  0.00    +0.000 A 
ATOM     13  C   UNL     1       9.552  10.752  20.119  0.00  0.00    +0.000 A 
ATOM     14  C   UNL     1      10.366  11.883  20.332  0.00  0.00    +0.000 A 
ATOM     15  C   UNL     1      10.873  12.600  19.257  0.00  0.00    +0.000 A 
ATOM     16 CL   UNL     1      11.903  13.937  19.614  0.00  0.00    +0.000 Cl
ATOM     17  C   UNL     1      10.549  12.202  17.954  0.00  0.00    +0.000 A 
ATOM     18 CL   UNL     1      11.165  13.052  16.575  0.00  0.00    +0.000 Cl
ATOM     19  C   UNL     1       9.724  11.086  17.735  0.00  0.00    +0.000 A 
ENDBRANCH   9  12
ENDBRANCH   5   7
BRANCH   4  20
ATOM     20  O   UNL     1       8.230   4.736  17.278  0.00  0.00    +0.000 OA
ATOM     21  H   UNL     1       8.210   4.526  18.240  0.00  0.00    +0.000 HD
ENDBRANCH   4  20
BRANCH   6  22
ATOM     22  O   UNL     1       4.898   7.004  15.135  0.00  0.00    +0.000 OA
ATOM     23  H   UNL     1       4.305   6.279  14.851  0.00  0.00    +0.000 HD
ENDBRANCH   6  22
BRANCH   1  24
ATOM     24  S   UNL     1       2.751   5.715  18.445  0.00  0.00    +0.000 S 
BRANCH  24  29
ATOM     25  C   UNL     1       0.211  11.278  19.070  0.00  0.00    +0.000 C 
ATOM     26  C   UNL     1       1.115  10.077  18.977  0.00  0.00    +0.000 A 
ATOM     27  C   UNL     1       1.229   9.213  20.069  0.00  0.00    +0.000 A 
ATOM     28  C   UNL     1       1.856   7.964  19.940  0.00  0.00    +0.000 A 
ATOM     29  C   UNL     1       2.353   7.510  18.716  0.00  0.00    +0.000 A 
ATOM     30  C   UNL     1       2.363   8.439  17.654  0.00  0.00    +0.000 A 
ATOM     31  C   UNL     1       1.746   9.714  17.783  0.00  0.00    +0.000 A 
ENDBRANCH  24  29
ENDBRANCH   1  24
BRANCH   3  32
ATOM     32  C   UNL     1       5.841   5.172  19.237  0.00  0.00    +0.000 C 
BRANCH  32  33
ATOM     33  O   UNL     1       7.022   4.831  19.957  0.00  0.00    +0.000 OA
ATOM     34  H   UNL     1       6.780   4.847  20.906  0.00  0.00    +0.000 HD
ENDBRANCH  32  33
ENDBRANCH   3  32
TORSDOF 8
ENDMDL
MODEL 3
REMARK VINA RESULT:      -7.9      0.694      1.312
REMARK  Name = 
REMARK  9 active torsions:
REMARK  status: ('A' for Active; 'I' for Inactive)
REMARK    1  A    between atoms: C_1  and  C_2
REMARK    2  A    between atoms: C_5  and  S_6
REMARK    3  A    between atoms: S_6  and  C_7
REMARK    4  A    between atoms: C_9  and  C_10
REMARK    5  A    between atoms: C_10  and  O_11
REMARK    6  A    between atoms: C_12  and  O_13
REMARK    7  A    between atoms: C_14  and  N_15
REMARK    8  A    between atoms: C_17  and  C_18
REMARK    9  A    between atoms: C_28  and  O_29
REMARK                            x       y       z     vdW  Elec       q    Type
REMARK                         _______ _______ _______ _____ _____    ______ ____
ROOT
ATOM      1  C   UNL     1       4.115   5.311  17.106  0.00  0.00    +0.000 C 
ATOM      2  O   UNL     1       4.850   4.123  17.343  0.00  0.00    +0.000 OA
ATOM      3  C   UNL     1       6.043   4.341  18.091  0.00  0.00    +0.000 C 
ATOM      4  C   UNL     1       7.046   4.897  17.084  0.00  0.00    +0.000 C 
ATOM      5  C   UNL     1       6.670   6.348  16.691  0.00  0.00    +0.000 C 
ATOM      6  C   UNL     1       5.077   6.449  16.487  0.00  0.00    +0.000 C 
ENDROOT
BRANCH   5   7
ATOM      7  N   UNL     1       7.284   7.380  17.532  0.00  0.00    +0.000 N 
ATOM      8  C   UNL     1       7.128   8.749  17.493  0.00  0.00    +0.000 A 
ATOM      9  C   UNL     1       8.219   9.224  18.201  0.00  0.00    +0.000 A 
ATOM     10  N   UNL     1       8.811   8.161  18.837  0.00  0.00    +0.000 NA
ATOM     11  N   UNL     1       8.198   7.050  18.463  0.00  0.00    +0.000 NA
BRANCH   9  12
ATOM     12  C   UNL     1       8.801  10.569  18.185  0.00  0.00    +0.000 A 
ATOM     13  C   UNL     1      10.194  10.685  18.321  0.00  0.00    +0.000 A 
ATOM     14  C   UNL     1      10.819  11.944  18.203  0.00  0.00    +0.000 A 
ATOM     15  C   UNL     1      10.069  13.081  17.940  0.00  0.00    +0.000 A 
ATOM     16 CL   UNL     1      10.925  14.568  17.759  0.00  0.00    +0.000 Cl
ATOM     17  C   UNL     1       8.678  12.972  17.815  0.00  0.00    +0.000 A 
ATOM     18 CL   UNL     1       7.695  14.357  17.473  0.00  0.00    +0.000 Cl
ATOM     19  C   UNL     1       8.048  11.723  17.948  0.00  0.00    +0.000 A 
ENDBRANCH   9  12
ENDBRANCH   5   7
BRANCH   4  20
ATOM     20  O   UNL     1       8.384   4.676  17.514  0.00  0.00    +0.000 OA
ATOM     21  H   UNL     1       8.654   3.793  17.173  0.00  0.00    +0.000 HD
ENDBRANCH   4  20
BRANCH   6  22
ATOM     22  O   UNL     1       4.920   6.312  15.030  0.00  0.00    +0.000 OA
ATOM     23  H   UNL     1       4.221   5.648  14.865  0.00  0.00    +0.000 HD
ENDBRANCH   6  22
BRANCH   1  24
ATOM     24  S   UNL     1       2.826   5.380  18.490  0.00  0.00    +0.000 S 
BRANCH  24  29
ATOM     25  C   UNL     1       0.462  11.045  18.839  0.00  0.00    +0.000 C 
ATOM     26  C   UNL     1       1.329   9.813  18.799  0.00  0.00    +0.000 A 
ATOM     27  C   UNL     1       1.439   9.010  19.937  0.00  0.00    +0.000 A 
ATOM     28  C   UNL     1       2.027   7.737  19.869  0.00  0.00    +0.000 A 
ATOM     29  C   UNL     1       2.486   7.199  18.664  0.00  0.00    +0.000 A 
ATOM     30  C   UNL     1       2.502   8.065  17.551  0.00  0.00    +0.000 A 
ATOM     31  C   UNL     1       1.925   9.364  17.617  0.00  0.00    +0.000 A 
ENDBRANCH  24  29
ENDBRANCH   1  24
BRANCH   3  32
ATOM     32  C   UNL     1       5.935   5.215  19.371  0.00  0.00    +0.000 C 
BRANCH  32  33
ATOM     33  O   UNL     1       7.126   5.083  20.142  0.00  0.00    +0.000 OA
ATOM     34  H   UNL     1       7.726   5.799  19.846  0.00  0.00    +0.000 HD
ENDBRANCH  32  33
ENDBRANCH   3  32
TORSDOF 8
ENDMDL
MODEL 4
REMARK VINA RESULT:      -7.5      6.768      9.672
REMARK  Name = 
REMARK  9 active torsions:
REMARK  status: ('A' for Active; 'I' for Inactive)
REMARK    1  A    between atoms: C_1  and  C_2
REMARK    2  A    between atoms: C_5  and  S_6
REMARK    3  A    between atoms: S_6  and  C_7
REMARK    4  A    between atoms: C_9  and  C_10
REMARK    5  A    between atoms: C_10  and  O_11
REMARK    6  A    between atoms: C_12  and  O_13
REMARK    7  A    between atoms: C_14  and  N_15
REMARK    8  A    between atoms: C_17  and  C_18
REMARK    9  A    between atoms: C_28  and  O_29
REMARK                            x       y       z     vdW  Elec       q    Type
REMARK                         _______ _______ _______ _____ _____    ______ ____
ROOT
ATOM      1  C   UNL     1      -0.345  12.752  21.856  0.00  0.00    +0.000 C 
ATOM      2  O   UNL     1      -1.110  13.505  20.931  0.00  0.00    +0.000 OA
ATOM      3  C   UNL     1      -1.278  12.850  19.677  0.00  0.00    +0.000 C 
ATOM      4  C   UNL     1       0.039  13.066  18.938  0.00  0.00    +0.000 C 
ATOM      5  C   UNL     1       1.163  12.208  19.574  0.00  0.00    +0.000 C 
ATOM      6  C   UNL     1       1.038  12.272  21.177  0.00  0.00    +0.000 C 
ENDROOT
BRANCH   5   7
ATOM      7  N   UNL     1       1.311  10.874  18.987  0.00  0.00    +0.000 N 
ATOM      8  C   UNL     1       1.103   9.637  19.557  0.00  0.00    +0.000 A 
ATOM      9  C   UNL     1       1.774   8.768  18.713  0.00  0.00    +0.000 A 
ATOM     10  N   UNL     1       2.115   9.457  17.575  0.00  0.00    +0.000 NA
ATOM     11  N   UNL     1       1.779  10.727  17.733  0.00  0.00    +0.000 NA
BRANCH   9  12
ATOM     12  C   UNL     1       2.228   7.402  18.985  0.00  0.00    +0.000 A 
ATOM     13  C   UNL     1       1.872   6.822  20.213  0.00  0.00    +0.000 A 
ATOM     14  C   UNL     1       2.188   5.474  20.483  0.00  0.00    +0.000 A 
ATOM     15  C   UNL     1       2.844   4.700  19.536  0.00  0.00    +0.000 A 
ATOM     16 CL   UNL     1       3.140   3.048  19.934  0.00  0.00    +0.000 Cl
ATOM     17  C   UNL     1       3.211   5.278  18.314  0.00  0.00    +0.000 A 
ATOM     18 CL   UNL     1       4.019   4.354  17.090  0.00  0.00    +0.000 Cl
ATOM     19  C   UNL     1       2.914   6.624  18.046  0.00  0.00    +0.000 A 
ENDBRANCH   9  12
ENDBRANCH   5   7
BRANCH   4  20
ATOM     20  O   UNL     1      -0.135  12.950  17.531  0.00  0.00    +0.000 OA
ATOM     21  H   UNL     1      -1.104  12.947  17.360  0.00  0.00    +0.000 HD
ENDBRANCH   4  20
BRANCH   6  22
ATOM     22  O   UNL     1       2.010  13.314  21.544  0.00  0.00    +0.000 OA
ATOM     23  H   UNL     1       2.851  12.871  21.780  0.00  0.00    +0.000 HD
ENDBRANCH   6  22
BRANCH   1  24
ATOM     24  S   UNL     1      -1.615  11.818  22.903  0.00  0.00    +0.000 S 
BRANCH  24  29
ATOM     25  C   UNL     1      -6.884  14.830  23.885  0.00  0.00    +0.000 C 
ATOM     26  C   UNL     1      -5.560  14.305  23.394  0.00  0.00    +0.000 A 
ATOM     27  C   UNL     1      -4.383  14.688  24.042  0.00  0.00    +0.000 A 
ATOM     28  C   UNL     1      -3.168  14.035  23.779  0.00  0.00    +0.000 A 
ATOM     29  C   UNL     1      -3.086  12.953  22.898  0.00  0.00    +0.000 A 
ATOM     30  C   UNL     1      -4.243  12.664  22.144  0.00  0.00    +0.000 A 
ATOM     31  C   UNL     1      -5.473  13.334  22.392  0.00  0.00    +0.000 A 
ENDBRANCH  24  29
ENDBRANCH   1  24
BRANCH   3  32
ATOM     32  C   UNL     1      -1.712  11.359  19.702  0.00  0.00    +0.000 C 
BRANCH  32  33
ATOM     33  O   UNL     1      -2.204  10.982  18.418  0.00  0.00    +0.000 OA
ATOM     34  H   UNL     1      -2.070  11.757  17.835  0.00  0.00    +0.000 HD
ENDBRANCH  32  33
ENDBRANCH   3  32
TORSDOF 8
ENDMDL
MODEL 5
REMARK VINA RESULT:      -7.4      6.570      9.498
REMARK  Name = 
REMARK  9 active torsions:
REMARK  status: ('A' for Active; 'I' for Inactive)
REMARK    1  A    between atoms: C_1  and  C_2
REMARK    2  A    between atoms: C_5  and  S_6
REMARK    3  A    between atoms: S_6  and  C_7
REMARK    4  A    between atoms: C_9  and  C_10
REMARK    5  A    between atoms: C_10  and  O_11
REMARK    6  A    between atoms: C_12  and  O_13
REMARK    7  A    between atoms: C_14  and  N_15
REMARK    8  A    between atoms: C_17  and  C_18
REMARK    9  A    between atoms: C_28  and  O_29
REMARK                            x       y       z     vdW  Elec       q    Type
REMARK                         _______ _______ _______ _____ _____    ______ ____
ROOT
ATOM      1  C   UNL     1      -0.364  12.607  21.782  0.00  0.00    +0.000 C 
ATOM      2  O   UNL     1      -1.106  13.381  20.854  0.00  0.00    +0.000 OA
ATOM      3  C   UNL     1      -1.262  12.742  19.590  0.00  0.00    +0.000 C 
ATOM      4  C   UNL     1       0.070  12.952  18.875  0.00  0.00    +0.000 C 
ATOM      5  C   UNL     1       1.173  12.074  19.517  0.00  0.00    +0.000 C 
ATOM      6  C   UNL     1       1.024  12.120  21.119  0.00  0.00    +0.000 C 
ENDROOT
BRANCH   5   7
ATOM      7  N   UNL     1       1.316  10.745  18.917  0.00  0.00    +0.000 N 
ATOM      8  C   UNL     1       1.275   9.504  19.514  0.00  0.00    +0.000 A 
ATOM      9  C   UNL     1       1.865   8.669  18.579  0.00  0.00    +0.000 A 
ATOM     10  N   UNL     1       1.987   9.366  17.402  0.00  0.00    +0.000 NA
ATOM     11  N   UNL     1       1.598  10.614  17.607  0.00  0.00    +0.000 NA
BRANCH   9  12
ATOM     12  C   UNL     1       2.441   7.337  18.781  0.00  0.00    +0.000 A 
ATOM     13  C   UNL     1       3.484   6.935  17.931  0.00  0.00    +0.000 A 
ATOM     14  C   UNL     1       4.148   5.710  18.149  0.00  0.00    +0.000 A 
ATOM     15  C   UNL     1       3.789   4.892  19.211  0.00  0.00    +0.000 A 
ATOM     16 CL   UNL     1       4.693   3.439  19.430  0.00  0.00    +0.000 Cl
ATOM     17  C   UNL     1       2.742   5.284  20.055  0.00  0.00    +0.000 A 
ATOM     18 CL   UNL     1       2.261   4.309  21.404  0.00  0.00    +0.000 Cl
ATOM     19  C   UNL     1       2.066   6.495  19.833  0.00  0.00    +0.000 A 
ENDBRANCH   9  12
ENDBRANCH   5   7
BRANCH   4  20
ATOM     20  O   UNL     1      -0.083  12.855  17.463  0.00  0.00    +0.000 OA
ATOM     21  H   UNL     1       0.540  12.159  17.154  0.00  0.00    +0.000 HD
ENDBRANCH   4  20
BRANCH   6  22
ATOM     22  O   UNL     1       2.002  13.146  21.514  0.00  0.00    +0.000 OA
ATOM     23  H   UNL     1       2.810  13.013  20.979  0.00  0.00    +0.000 HD
ENDBRANCH   6  22
BRANCH   1  24
ATOM     24  S   UNL     1      -1.661  11.675  22.797  0.00  0.00    +0.000 S 
BRANCH  24  29
ATOM     25  C   UNL     1      -6.848  14.794  23.877  0.00  0.00    +0.000 C 
ATOM     26  C   UNL     1      -5.535  14.254  23.373  0.00  0.00    +0.000 A 
ATOM     27  C   UNL     1      -4.355  14.568  24.051  0.00  0.00    +0.000 A 
ATOM     28  C   UNL     1      -3.157  13.893  23.767  0.00  0.00    +0.000 A 
ATOM     29  C   UNL     1      -3.098  12.854  22.835  0.00  0.00    +0.000 A 
ATOM     30  C   UNL     1      -4.254  12.637  22.056  0.00  0.00    +0.000 A 
ATOM     31  C   UNL     1      -5.466  13.332  22.324  0.00  0.00    +0.000 A 
ENDBRANCH  24  29
ENDBRANCH   1  24
BRANCH   3  32
ATOM     32  C   UNL     1      -1.713  11.256  19.589  0.00  0.00    +0.000 C 
BRANCH  32  33
ATOM     33  O   UNL     1      -1.804  10.784  18.248  0.00  0.00    +0.000 OA
ATOM     34  H   UNL     1      -2.612  11.187  17.869  0.00  0.00    +0.000 HD
ENDBRANCH  32  33
ENDBRANCH   3  32
TORSDOF 8
ENDMDL
MODEL 6
REMARK VINA RESULT:      -7.4      4.370      7.302
REMARK  Name = 
REMARK  9 active torsions:
REMARK  status: ('A' for Active; 'I' for Inactive)
REMARK    1  A    between atoms: C_1  and  C_2
REMARK    2  A    between atoms: C_5  and  S_6
REMARK    3  A    between atoms: S_6  and  C_7
REMARK    4  A    between atoms: C_9  and  C_10
REMARK    5  A    between atoms: C_10  and  O_11
REMARK    6  A    between atoms: C_12  and  O_13
REMARK    7  A    between atoms: C_14  and  N_15
REMARK    8  A    between atoms: C_17  and  C_18
REMARK    9  A    between atoms: C_28  and  O_29
REMARK                            x       y       z     vdW  Elec       q    Type
REMARK                         _______ _______ _______ _____ _____    ______ ____
ROOT
ATOM      1  C   UNL     1       4.277   2.373  18.086  0.00  0.00    +0.000 C 
ATOM      2  O   UNL     1       2.977   1.817  17.999  0.00  0.00    +0.000 OA
ATOM      3  C   UNL     1       1.942   2.788  18.135  0.00  0.00    +0.000 C 
ATOM      4  C   UNL     1       1.850   3.060  19.634  0.00  0.00    +0.000 C 
ATOM      5  C   UNL     1       3.082   3.869  20.113  0.00  0.00    +0.000 C 
ATOM      6  C   UNL     1       4.407   3.287  19.409  0.00  0.00    +0.000 C 
ENDROOT
BRANCH   5   7
ATOM      7  N   UNL     1       2.907   5.323  20.066  0.00  0.00    +0.000 N 
ATOM      8  C   UNL     1       2.249   6.156  20.945  0.00  0.00    +0.000 A 
ATOM      9  C   UNL     1       2.051   7.315  20.214  0.00  0.00    +0.000 A 
ATOM     10  N   UNL     1       2.803   7.231  19.068  0.00  0.00    +0.000 NA
ATOM     11  N   UNL     1       3.363   6.033  19.017  0.00  0.00    +0.000 NA
BRANCH   9  12
ATOM     12  C   UNL     1       1.098   8.399  20.464  0.00  0.00    +0.000 A 
ATOM     13  C   UNL     1       0.564   8.520  21.758  0.00  0.00    +0.000 A 
ATOM     14  C   UNL     1      -0.273   9.608  22.084  0.00  0.00    +0.000 A 
ATOM     15  C   UNL     1      -0.570  10.578  21.137  0.00  0.00    +0.000 A 
ATOM     16 CL   UNL     1      -1.557  11.900  21.643  0.00  0.00    +0.000 Cl
ATOM     17  C   UNL     1      -0.049  10.455  19.843  0.00  0.00    +0.000 A 
ATOM     18 CL   UNL     1      -0.376  11.644  18.626  0.00  0.00    +0.000 Cl
ATOM     19  C   UNL     1       0.771   9.365  19.507  0.00  0.00    +0.000 A 
ENDBRANCH   9  12
ENDBRANCH   5   7
BRANCH   4  20
ATOM     20  O   UNL     1       0.571   3.574  19.987  0.00  0.00    +0.000 OA
ATOM     21  H   UNL     1       0.717   4.251  20.686  0.00  0.00    +0.000 HD
ENDBRANCH   4  20
BRANCH   6  22
ATOM     22  O   UNL     1       4.956   2.381  20.431  0.00  0.00    +0.000 OA
ATOM     23  H   UNL     1       4.323   1.643  20.549  0.00  0.00    +0.000 HD
ENDBRANCH   6  22
BRANCH   1  24
ATOM     24  S   UNL     1       4.803   2.683  16.294  0.00  0.00    +0.000 S 
BRANCH  24  29
ATOM     25  C   UNL     1       7.502   7.985  17.847  0.00  0.00    +0.000 C 
ATOM     26  C   UNL     1       6.998   6.731  17.180  0.00  0.00    +0.000 A 
ATOM     27  C   UNL     1       7.606   5.506  17.466  0.00  0.00    +0.000 A 
ATOM     28  C   UNL     1       7.016   4.296  17.065  0.00  0.00    +0.000 A 
ATOM     29  C   UNL     1       5.785   4.258  16.406  0.00  0.00    +0.000 A 
ATOM     30  C   UNL     1       5.248   5.496  15.996  0.00  0.00    +0.000 A 
ATOM     31  C   UNL     1       5.850   6.726  16.382  0.00  0.00    +0.000 A 
ENDBRANCH  24  29
ENDBRANCH   1  24
BRANCH   3  32
ATOM     32  C   UNL     1       2.067   4.089  17.298  0.00  0.00    +0.000 C 
BRANCH  32  33
ATOM     33  O   UNL     1       0.827   4.792  17.317  0.00  0.00    +0.000 OA
ATOM     34  H   UNL     1       0.749   5.234  16.447  0.00  0.00    +0.000 HD
ENDBRANCH  32  33
ENDBRANCH   3  32
TORSDOF 8
ENDMDL
MODEL 7
REMARK VINA RESULT:      -7.4      4.646      7.331
REMARK  Name = 
REMARK  9 active torsions:
REMARK  status: ('A' for Active; 'I' for Inactive)
REMARK    1  A    between atoms: C_1  and  C_2
REMARK    2  A    between atoms: C_5  and  S_6
REMARK    3  A    between atoms: S_6  and  C_7
REMARK    4  A    between atoms: C_9  and  C_10
REMARK    5  A    between atoms: C_10  and  O_11
REMARK    6  A    between atoms: C_12  and  O_13
REMARK    7  A    between atoms: C_14  and  N_15
REMARK    8  A    between atoms: C_17  and  C_18
REMARK    9  A    between atoms: C_28  and  O_29
REMARK                            x       y       z     vdW  Elec       q    Type
REMARK                         _______ _______ _______ _____ _____    ______ ____
ROOT
ATOM      1  C   UNL     1       4.109   2.354  18.353  0.00  0.00    +0.000 C 
ATOM      2  O   UNL     1       2.791   1.836  18.289  0.00  0.00    +0.000 OA
ATOM      3  C   UNL     1       1.788   2.849  18.321  0.00  0.00    +0.000 C 
ATOM      4  C   UNL     1       1.681   3.252  19.788  0.00  0.00    +0.000 C 
ATOM      5  C   UNL     1       2.932   4.059  20.220  0.00  0.00    +0.000 C 
ATOM      6  C   UNL     1       4.248   3.375  19.595  0.00  0.00    +0.000 C 
ENDROOT
BRANCH   5   7
ATOM      7  N   UNL     1       2.809   5.509  20.045  0.00  0.00    +0.000 N 
ATOM      8  C   UNL     1       2.265   6.451  20.891  0.00  0.00    +0.000 A 
ATOM      9  C   UNL     1       2.045   7.543  20.068  0.00  0.00    +0.000 A 
ATOM     10  N   UNL     1       2.686   7.315  18.876  0.00  0.00    +0.000 NA
ATOM     11  N   UNL     1       3.193   6.093  18.895  0.00  0.00    +0.000 NA
BRANCH   9  12
ATOM     12  C   UNL     1       1.160   8.689  20.292  0.00  0.00    +0.000 A 
ATOM     13  C   UNL     1       0.793   9.464  19.180  0.00  0.00    +0.000 A 
ATOM     14  C   UNL     1      -0.142  10.511  19.319  0.00  0.00    +0.000 A 
ATOM     15  C   UNL     1      -0.720  10.782  20.551  0.00  0.00    +0.000 A 
ATOM     16 CL   UNL     1      -1.894  12.045  20.613  0.00  0.00    +0.000 Cl
ATOM     17  C   UNL     1      -0.349  10.018  21.665  0.00  0.00    +0.000 A 
ATOM     18 CL   UNL     1      -1.049  10.303  23.224  0.00  0.00    +0.000 Cl
ATOM     19  C   UNL     1       0.595   8.985  21.536  0.00  0.00    +0.000 A 
ENDBRANCH   9  12
ENDBRANCH   5   7
BRANCH   4  20
ATOM     20  O   UNL     1       0.415   3.837  20.070  0.00  0.00    +0.000 OA
ATOM     21  H   UNL     1       0.581   4.775  20.321  0.00  0.00    +0.000 HD
ENDBRANCH   4  20
BRANCH   6  22
ATOM     22  O   UNL     1       4.747   2.543  20.702  0.00  0.00    +0.000 OA
ATOM     23  H   UNL     1       5.493   2.007  20.362  0.00  0.00    +0.000 HD
ENDBRANCH   6  22
BRANCH   1  24
ATOM     24  S   UNL     1       4.675   2.490  16.552  0.00  0.00    +0.000 S 
BRANCH  24  29
ATOM     25  C   UNL     1       7.308   7.939  17.638  0.00  0.00    +0.000 C 
ATOM     26  C   UNL     1       6.826   6.623  17.085  0.00  0.00    +0.000 A 
ATOM     27  C   UNL     1       7.435   5.436  17.499  0.00  0.00    +0.000 A 
ATOM     28  C   UNL     1       6.862   4.188  17.206  0.00  0.00    +0.000 A 
ATOM     29  C   UNL     1       5.644   4.076  16.531  0.00  0.00    +0.000 A 
ATOM     30  C   UNL     1       5.107   5.265  15.993  0.00  0.00    +0.000 A 
ATOM     31  C   UNL     1       5.693   6.531  16.270  0.00  0.00    +0.000 A 
ENDBRANCH  24  29
ENDBRANCH   1  24
BRANCH   3  32
ATOM     32  C   UNL     1       1.973   4.068  17.377  0.00  0.00    +0.000 C 
BRANCH  32  33
ATOM     33  O   UNL     1       0.719   4.716  17.182  0.00  0.00    +0.000 OA
ATOM     34  H   UNL     1       0.263   4.699  18.048  0.00  0.00    +0.000 HD
ENDBRANCH  32  33
ENDBRANCH   3  32
TORSDOF 8
ENDMDL
MODEL 8
REMARK VINA RESULT:      -7.4      3.849      7.161
REMARK  Name = 
REMARK  9 active torsions:
REMARK  status: ('A' for Active; 'I' for Inactive)
REMARK    1  A    between atoms: C_1  and  C_2
REMARK    2  A    between atoms: C_5  and  S_6
REMARK    3  A    between atoms: S_6  and  C_7
REMARK    4  A    between atoms: C_9  and  C_10
REMARK    5  A    between atoms: C_10  and  O_11
REMARK    6  A    between atoms: C_12  and  O_13
REMARK    7  A    between atoms: C_14  and  N_15
REMARK    8  A    between atoms: C_17  and  C_18
REMARK    9  A    between atoms: C_28  and  O_29
REMARK                            x       y       z     vdW  Elec       q    Type
REMARK                         _______ _______ _______ _____ _____    ______ ____
ROOT
ATOM      1  C   UNL     1       7.603   6.310  18.001  0.00  0.00    +0.000 C 
ATOM      2  O   UNL     1       7.541   5.171  17.160  0.00  0.00    +0.000 OA
ATOM      3  C   UNL     1       6.208   4.742  16.895  0.00  0.00    +0.000 C 
ATOM      4  C   UNL     1       5.781   3.982  18.147  0.00  0.00    +0.000 C 
ATOM      5  C   UNL     1       5.548   4.965  19.323  0.00  0.00    +0.000 C 
ATOM      6  C   UNL     1       6.715   6.074  19.327  0.00  0.00    +0.000 C 
ENDROOT
BRANCH   5   7
ATOM      7  N   UNL     1       4.176   5.467  19.431  0.00  0.00    +0.000 N 
ATOM      8  C   UNL     1       3.652   6.680  19.040  0.00  0.00    +0.000 A 
ATOM      9  C   UNL     1       2.459   6.764  19.739  0.00  0.00    +0.000 A 
ATOM     10  N   UNL     1       2.199   5.533  20.288  0.00  0.00    +0.000 NA
ATOM     11  N   UNL     1       3.228   4.736  20.047  0.00  0.00    +0.000 NA
BRANCH   9  12
ATOM     12  C   UNL     1       1.656   7.954  20.030  0.00  0.00    +0.000 A 
ATOM     13  C   UNL     1       1.419   8.861  18.985  0.00  0.00    +0.000 A 
ATOM     14  C   UNL     1       0.563   9.965  19.179  0.00  0.00    +0.000 A 
ATOM     15  C   UNL     1      -0.064  10.164  20.401  0.00  0.00    +0.000 A 
ATOM     16 CL   UNL     1      -1.135  11.511  20.529  0.00  0.00    +0.000 Cl
ATOM     17  C   UNL     1       0.178   9.268  21.450  0.00  0.00    +0.000 A 
ATOM     18 CL   UNL     1      -0.590   9.461  22.992  0.00  0.00    +0.000 Cl
ATOM     19  C   UNL     1       1.042   8.176  21.267  0.00  0.00    +0.000 A 
ENDBRANCH   9  12
ENDBRANCH   5   7
BRANCH   4  20
ATOM     20  O   UNL     1       4.729   3.068  17.862  0.00  0.00    +0.000 OA
ATOM     21  H   UNL     1       4.221   3.441  17.105  0.00  0.00    +0.000 HD
ENDBRANCH   4  20
BRANCH   6  22
ATOM     22  O   UNL     1       7.666   5.551  20.320  0.00  0.00    +0.000 OA
ATOM     23  H   UNL     1       7.307   5.742  21.210  0.00  0.00    +0.000 HD
ENDBRANCH   6  22
BRANCH   1  24
ATOM     24  S   UNL     1       7.727   7.787  16.824  0.00  0.00    +0.000 S 
BRANCH  24  29
ATOM     25  C   UNL     1      10.490  12.374  19.844  0.00  0.00    +0.000 C 
ATOM     26  C   UNL     1       9.571  11.300  19.323  0.00  0.00    +0.000 A 
ATOM     27  C   UNL     1       8.781  11.555  18.199  0.00  0.00    +0.000 A 
ATOM     28  C   UNL     1       8.106  10.514  17.539  0.00  0.00    +0.000 A 
ATOM     29  C   UNL     1       8.226   9.183  17.945  0.00  0.00    +0.000 A 
ATOM     30  C   UNL     1       8.907   8.950  19.158  0.00  0.00    +0.000 A 
ATOM     31  C   UNL     1       9.577  10.002  19.842  0.00  0.00    +0.000 A 
ENDBRANCH  24  29
ENDBRANCH   1  24
BRANCH   3  32
ATOM     32  C   UNL     1       5.179   5.825  16.472  0.00  0.00    +0.000 C 
BRANCH  32  33
ATOM     33  O   UNL     1       5.327   6.109  15.083  0.00  0.00    +0.000 OA
ATOM     34  H   UNL     1       5.195   5.260  14.613  0.00  0.00    +0.000 HD
ENDBRANCH  32  33
ENDBRANCH   3  32
TORSDOF 8
ENDMDL
MODEL 9
REMARK VINA RESULT:      -7.3      7.709     10.482
REMARK  Name = 
REMARK  9 active torsions:
REMARK  status: ('A' for Active; 'I' for Inactive)
REMARK    1  A    between atoms: C_1  and  C_2
REMARK    2  A    between atoms: C_5  and  S_6
REMARK    3  A    between atoms: S_6  and  C_7
REMARK    4  A    between atoms: C_9  and  C_10
REMARK    5  A    between atoms: C_10  and  O_11
REMARK    6  A    between atoms: C_12  and  O_13
REMARK    7  A    between atoms: C_14  and  N_15
REMARK    8  A    between atoms: C_17  and  C_18
REMARK    9  A    between atoms: C_28  and  O_29
REMARK                            x       y       z     vdW  Elec       q    Type
REMARK                         _______ _______ _______ _____ _____    ______ ____
ROOT
ATOM      1  C   UNL     1      -4.049  13.552  22.264  0.00  0.00    +0.000 C 
ATOM      2  O   UNL     1      -3.523  14.780  22.736  0.00  0.00    +0.000 OA
ATOM      3  C   UNL     1      -2.194  15.030  22.288  0.00  0.00    +0.000 C 
ATOM      4  C   UNL     1      -1.307  14.173  23.186  0.00  0.00    +0.000 C 
ATOM      5  C   UNL     1      -1.464  12.674  22.831  0.00  0.00    +0.000 C 
ATOM      6  C   UNL     1      -3.019  12.349  22.570  0.00  0.00    +0.000 C 
ENDROOT
BRANCH   5   7
ATOM      7  N   UNL     1      -0.522  12.189  21.818  0.00  0.00    +0.000 N 
ATOM      8  C   UNL     1      -0.669  11.175  20.898  0.00  0.00    +0.000 A 
ATOM      9  C   UNL     1       0.630  10.893  20.508  0.00  0.00    +0.000 A 
ATOM     10  N   UNL     1       1.445  11.888  20.989  0.00  0.00    +0.000 NA
ATOM     11  N   UNL     1       0.721  12.701  21.741  0.00  0.00    +0.000 NA
BRANCH   9  12
ATOM     12  C   UNL     1       1.144   9.687  19.853  0.00  0.00    +0.000 A 
ATOM     13  C   UNL     1       1.561   9.790  18.517  0.00  0.00    +0.000 A 
ATOM     14  C   UNL     1       2.165   8.691  17.872  0.00  0.00    +0.000 A 
ATOM     15  C   UNL     1       2.365   7.498  18.551  0.00  0.00    +0.000 A 
ATOM     16 CL   UNL     1       3.160   6.226  17.698  0.00  0.00    +0.000 Cl
ATOM     17  C   UNL     1       1.940   7.386  19.881  0.00  0.00    +0.000 A 
ATOM     18 CL   UNL     1       2.178   5.925  20.781  0.00  0.00    +0.000 Cl
ATOM     19  C   UNL     1       1.323   8.473  20.524  0.00  0.00    +0.000 A 
ENDBRANCH   9  12
ENDBRANCH   5   7
BRANCH   4  20
ATOM     20  O   UNL     1       0.021  14.683  23.236  0.00  0.00    +0.000 OA
ATOM     21  H   UNL     1      -0.049  15.659  23.340  0.00  0.00    +0.000 HD
ENDBRANCH   4  20
BRANCH   6  22
ATOM     22  O   UNL     1      -3.464  11.801  23.862  0.00  0.00    +0.000 OA
ATOM     23  H   UNL     1      -2.688  11.395  24.299  0.00  0.00    +0.000 HD
ENDBRANCH   6  22
BRANCH   1  24
ATOM     24  S   UNL     1      -5.025  13.998  20.705  0.00  0.00    +0.000 S 
BRANCH  24  29
ATOM     25  C   UNL     1      -3.688  10.285  15.990  0.00  0.00    +0.000 C 
ATOM     26  C   UNL     1      -4.038  10.912  17.315  0.00  0.00    +0.000 A 
ATOM     27  C   UNL     1      -3.026  11.454  18.110  0.00  0.00    +0.000 A 
ATOM     28  C   UNL     1      -3.332  12.259  19.220  0.00  0.00    +0.000 A 
ATOM     29  C   UNL     1      -4.648  12.590  19.551  0.00  0.00    +0.000 A 
ATOM     30  C   UNL     1      -5.666  11.928  18.834  0.00  0.00    +0.000 A 
ATOM     31  C   UNL     1      -5.364  11.095  17.721  0.00  0.00    +0.000 A 
ENDBRANCH  24  29
ENDBRANCH   1  24
BRANCH   3  32
ATOM     32  C   UNL     1      -1.896  14.819  20.778  0.00  0.00    +0.000 C 
BRANCH  32  33
ATOM     33  O   UNL     1      -0.576  15.267  20.484  0.00  0.00    +0.000 OA
ATOM     34  H   UNL     1      -0.112  15.339  21.343  0.00  0.00    +0.000 HD
ENDBRANCH  32  33
ENDBRANCH   3  32
TORSDOF 8
ENDMDL
