MODEL 1
REMARK VINA RESULT:      -7.2      0.000      0.000
REMARK  Name = 
REMARK  5 active torsions:
REMARK  status: ('A' for Active; 'I' for Inactive)
REMARK    1  A    between atoms: C_1  and  O_2
REMARK    2  A    between atoms: O_2  and  C_3
REMARK    3  A    between atoms: C_5  and  S_6
REMARK    4  A    between atoms: S_6  and  C_7
REMARK    5  A    between atoms: C_11  and  C_12
REMARK                            x       y       z     vdW  Elec       q    Type
REMARK                         _______ _______ _______ _____ _____    ______ ____
ROOT
ATOM      1  C   UNL     1       3.266   5.306  17.916  0.00  0.00    +0.000 A 
ATOM      2  C   UNL     1       4.185   4.535  17.164  0.00  0.00    +0.000 A 
ATOM      3  C   UNL     1       5.196   5.132  16.407  0.00  0.00    +0.000 A 
ATOM      4  C   UNL     1       5.268   6.526  16.357  0.00  0.00    +0.000 A 
ATOM      5  C   UNL     1       4.377   7.306  17.092  0.00  0.00    +0.000 A 
ATOM      6  C   UNL     1       3.380   6.724  17.904  0.00  0.00    +0.000 A 
ENDROOT
BRANCH   6   7
ATOM      7  C   UNL     1       2.534   7.618  18.766  0.00  0.00    +0.000 A 
ATOM      8  N   UNL     1       1.866   8.718  18.317  0.00  0.00    +0.000 NA
ATOM      9  C   UNL     1       1.159   9.128  19.393  0.00  0.00    +0.000 A 
ATOM     10  C   UNL     1       0.269  10.190  19.508  0.00  0.00    +0.000 A 
ATOM     11  N   UNL     1      -0.355  10.377  20.711  0.00  0.00    +0.000 NA
ATOM     12  C   UNL     1      -0.124   9.555  21.786  0.00  0.00    +0.000 A 
ATOM     13  C   UNL     1       0.776   8.481  21.678  0.00  0.00    +0.000 A 
ATOM     14  C   UNL     1       1.397   8.308  20.445  0.00  0.00    +0.000 A 
ATOM     15  N   UNL     1       2.264   7.361  20.078  0.00  0.00    +0.000 N 
ATOM     16  H   UNL     1       2.604   6.592  20.692  0.00  0.00    +0.000 HD
ENDBRANCH   6   7
BRANCH   3  17
ATOM     17  S   UNL     1       6.403   4.056  15.588  0.00  0.00    +0.000 S 
ATOM     18  C   UNL     1       5.680   4.092  13.920  0.00  0.00    +0.000 C 
ATOM     19  O   UNL     1       7.518   5.323  15.259  0.00  0.00    +0.000 OA
ENDBRANCH   3  17
BRANCH   1  21
ATOM     20  C   UNL     1       1.462   3.690  18.215  0.00  0.00    +0.000 C 
ATOM     21  O   UNL     1       2.299   4.697  18.657  0.00  0.00    +0.000 OA
ENDBRANCH   1  21
TORSDOF 3
ENDMDL
MODEL 2
REMARK VINA RESULT:      -7.0      1.656      1.996
REMARK  Name = 
REMARK  5 active torsions:
REMARK  status: ('A' for Active; 'I' for Inactive)
REMARK    1  A    between atoms: C_1  and  O_2
REMARK    2  A    between atoms: O_2  and  C_3
REMARK    3  A    between atoms: C_5  and  S_6
REMARK    4  A    between atoms: S_6  and  C_7
REMARK    5  A    between atoms: C_11  and  C_12
REMARK                            x       y       z     vdW  Elec       q    Type
REMARK                         _______ _______ _______ _____ _____    ______ ____
ROOT
ATOM      1  C   UNL     1       2.574   5.781  19.692  0.00  0.00    +0.000 A 
ATOM      2  C   UNL     1       3.417   4.929  18.939  0.00  0.00    +0.000 A 
ATOM      3  C   UNL     1       4.120   5.392  17.825  0.00  0.00    +0.000 A 
ATOM      4  C   UNL     1       3.948   6.717  17.419  0.00  0.00    +0.000 A 
ATOM      5  C   UNL     1       3.127   7.577  18.147  0.00  0.00    +0.000 A 
ATOM      6  C   UNL     1       2.446   7.145  19.307  0.00  0.00    +0.000 A 
ENDROOT
BRANCH   6   7
ATOM      7  C   UNL     1       1.677   8.152  20.114  0.00  0.00    +0.000 A 
ATOM      8  N   UNL     1       1.033   9.233  19.590  0.00  0.00    +0.000 NA
ATOM      9  C   UNL     1       0.393   9.774  20.650  0.00  0.00    +0.000 A 
ATOM     10  C   UNL     1      -0.448  10.880  20.700  0.00  0.00    +0.000 A 
ATOM     11  N   UNL     1      -1.007  11.206  21.906  0.00  0.00    +0.000 NA
ATOM     12  C   UNL     1      -0.757  10.481  23.045  0.00  0.00    +0.000 A 
ATOM     13  C   UNL     1       0.094   9.363  23.001  0.00  0.00    +0.000 A 
ATOM     14  C   UNL     1       0.649   9.047  21.766  0.00  0.00    +0.000 A 
ATOM     15  N   UNL     1       1.460   8.033  21.455  0.00  0.00    +0.000 N 
ATOM     16  H   UNL     1       1.797   7.311  22.125  0.00  0.00    +0.000 HD
ENDBRANCH   6   7
BRANCH   3  17
ATOM     17  S   UNL     1       5.276   4.258  17.008  0.00  0.00    +0.000 S 
ATOM     18  C   UNL     1       6.132   5.479  15.969  0.00  0.00    +0.000 C 
ATOM     19  O   UNL     1       6.450   4.329  18.263  0.00  0.00    +0.000 OA
ENDBRANCH   3  17
BRANCH   1  21
ATOM     20  C   UNL     1       1.949   4.004  21.244  0.00  0.00    +0.000 C 
ATOM     21  O   UNL     1       1.911   5.307  20.783  0.00  0.00    +0.000 OA
ENDBRANCH   1  21
TORSDOF 3
ENDMDL
MODEL 3
REMARK VINA RESULT:      -6.7      0.546      1.352
REMARK  Name = 
REMARK  5 active torsions:
REMARK  status: ('A' for Active; 'I' for Inactive)
REMARK    1  A    between atoms: C_1  and  O_2
REMARK    2  A    between atoms: O_2  and  C_3
REMARK    3  A    between atoms: C_5  and  S_6
REMARK    4  A    between atoms: S_6  and  C_7
REMARK    5  A    between atoms: C_11  and  C_12
REMARK                            x       y       z     vdW  Elec       q    Type
REMARK                         _______ _______ _______ _____ _____    ______ ____
ROOT
ATOM      1  C   UNL     1       3.183   5.270  17.806  0.00  0.00    +0.000 A 
ATOM      2  C   UNL     1       4.152   4.526  17.089  0.00  0.00    +0.000 A 
ATOM      3  C   UNL     1       5.222   5.148  16.442  0.00  0.00    +0.000 A 
ATOM      4  C   UNL     1       5.308   6.542  16.466  0.00  0.00    +0.000 A 
ATOM      5  C   UNL     1       4.369   7.295  17.168  0.00  0.00    +0.000 A 
ATOM      6  C   UNL     1       3.308   6.686  17.873  0.00  0.00    +0.000 A 
ENDROOT
BRANCH   6   7
ATOM      7  C   UNL     1       2.405   7.546  18.710  0.00  0.00    +0.000 A 
ATOM      8  N   UNL     1       2.177   7.361  20.041  0.00  0.00    +0.000 NA
ATOM      9  C   UNL     1       1.412   8.419  20.388  0.00  0.00    +0.000 A 
ATOM     10  C   UNL     1       0.905   8.767  21.635  0.00  0.00    +0.000 A 
ATOM     11  N   UNL     1       0.179   9.923  21.733  0.00  0.00    +0.000 NA
ATOM     12  C   UNL     1      -0.057  10.728  20.647  0.00  0.00    +0.000 A 
ATOM     13  C   UNL     1       0.450  10.381  19.383  0.00  0.00    +0.000 A 
ATOM     14  C   UNL     1       1.188   9.204  19.306  0.00  0.00    +0.000 A 
ATOM     15  N   UNL     1       1.791   8.670  18.242  0.00  0.00    +0.000 N 
ATOM     16  H   UNL     1       1.792   9.083  17.286  0.00  0.00    +0.000 HD
ENDBRANCH   6   7
BRANCH   3  17
ATOM     17  S   UNL     1       6.481   4.099  15.666  0.00  0.00    +0.000 S 
ATOM     18  C   UNL     1       5.802   4.099  13.980  0.00  0.00    +0.000 C 
ATOM     19  O   UNL     1       7.568   5.395  15.353  0.00  0.00    +0.000 OA
ENDBRANCH   3  17
BRANCH   1  21
ATOM     20  C   UNL     1       2.291   3.735  19.480  0.00  0.00    +0.000 C 
ATOM     21  O   UNL     1       2.158   4.637  18.441  0.00  0.00    +0.000 OA
ENDBRANCH   1  21
TORSDOF 3
ENDMDL
MODEL 4
REMARK VINA RESULT:      -6.4      4.773      7.688
REMARK  Name = 
REMARK  5 active torsions:
REMARK  status: ('A' for Active; 'I' for Inactive)
REMARK    1  A    between atoms: C_1  and  O_2
REMARK    2  A    between atoms: O_2  and  C_3
REMARK    3  A    between atoms: C_5  and  S_6
REMARK    4  A    between atoms: S_6  and  C_7
REMARK    5  A    between atoms: C_11  and  C_12
REMARK                            x       y       z     vdW  Elec       q    Type
REMARK                         _______ _______ _______ _____ _____    ______ ____
ROOT
ATOM      1  C   UNL     1       5.394   4.411  18.553  0.00  0.00    +0.000 A 
ATOM      2  C   UNL     1       4.604   4.318  19.724  0.00  0.00    +0.000 A 
ATOM      3  C   UNL     1       3.213   4.209  19.663  0.00  0.00    +0.000 A 
ATOM      4  C   UNL     1       2.587   4.240  18.415  0.00  0.00    +0.000 A 
ATOM      5  C   UNL     1       3.344   4.327  17.248  0.00  0.00    +0.000 A 
ATOM      6  C   UNL     1       4.754   4.387  17.282  0.00  0.00    +0.000 A 
ENDROOT
BRANCH   6   7
ATOM      7  C   UNL     1       5.514   4.354  15.986  0.00  0.00    +0.000 A 
ATOM      8  N   UNL     1       5.216   3.538  14.936  0.00  0.00    +0.000 NA
ATOM      9  C   UNL     1       6.071   3.932  13.967  0.00  0.00    +0.000 A 
ATOM     10  C   UNL     1       6.196   3.470  12.662  0.00  0.00    +0.000 A 
ATOM     11  N   UNL     1       7.127   4.067  11.857  0.00  0.00    +0.000 NA
ATOM     12  C   UNL     1       7.927   5.090  12.303  0.00  0.00    +0.000 A 
ATOM     13  C   UNL     1       7.808   5.560  13.622  0.00  0.00    +0.000 A 
ATOM     14  C   UNL     1       6.853   4.942  14.422  0.00  0.00    +0.000 A 
ATOM     15  N   UNL     1       6.529   5.215  15.688  0.00  0.00    +0.000 N 
ATOM     16  H   UNL     1       6.965   5.960  16.269  0.00  0.00    +0.000 HD
ENDBRANCH   6   7
BRANCH   3  17
ATOM     17  S   UNL     1       2.303   3.960  21.211  0.00  0.00    +0.000 S 
ATOM     18  C   UNL     1       0.869   3.081  20.521  0.00  0.00    +0.000 C 
ATOM     19  O   UNL     1       3.135   2.514  21.631  0.00  0.00    +0.000 OA
ENDBRANCH   3  17
BRANCH   1  21
ATOM     20  C   UNL     1       7.457   5.614  19.058  0.00  0.00    +0.000 C 
ATOM     21  O   UNL     1       6.750   4.501  18.641  0.00  0.00    +0.000 OA
ENDBRANCH   1  21
TORSDOF 3
ENDMDL
MODEL 5
REMARK VINA RESULT:      -6.4      1.702      2.406
REMARK  Name = 
REMARK  5 active torsions:
REMARK  status: ('A' for Active; 'I' for Inactive)
REMARK    1  A    between atoms: C_1  and  O_2
REMARK    2  A    between atoms: O_2  and  C_3
REMARK    3  A    between atoms: C_5  and  S_6
REMARK    4  A    between atoms: S_6  and  C_7
REMARK    5  A    between atoms: C_11  and  C_12
REMARK                            x       y       z     vdW  Elec       q    Type
REMARK                         _______ _______ _______ _____ _____    ______ ____
ROOT
ATOM      1  C   UNL     1       2.500   5.825  19.589  0.00  0.00    +0.000 A 
ATOM      2  C   UNL     1       3.395   5.034  18.828  0.00  0.00    +0.000 A 
ATOM      3  C   UNL     1       4.150   5.578  17.787  0.00  0.00    +0.000 A 
ATOM      4  C   UNL     1       3.980   6.926  17.462  0.00  0.00    +0.000 A 
ATOM      5  C   UNL     1       3.108   7.726  18.199  0.00  0.00    +0.000 A 
ATOM      6  C   UNL     1       2.373   7.210  19.289  0.00  0.00    +0.000 A 
ENDROOT
BRANCH   6   7
ATOM      7  C   UNL     1       1.547   8.153  20.118  0.00  0.00    +0.000 A 
ATOM      8  N   UNL     1       1.313   8.005  21.452  0.00  0.00    +0.000 NA
ATOM      9  C   UNL     1       0.639   9.126  21.788  0.00  0.00    +0.000 A 
ATOM     10  C   UNL     1       0.170   9.532  23.033  0.00  0.00    +0.000 A 
ATOM     11  N   UNL     1      -0.459  10.744  23.117  0.00  0.00    +0.000 NA
ATOM     12  C   UNL     1      -0.636  11.551  22.021  0.00  0.00    +0.000 A 
ATOM     13  C   UNL     1      -0.167  11.146  20.759  0.00  0.00    +0.000 A 
ATOM     14  C   UNL     1       0.473   9.912  20.696  0.00  0.00    +0.000 A 
ATOM     15  N   UNL     1       1.024   9.316  19.637  0.00  0.00    +0.000 N 
ATOM     16  H   UNL     1       1.053   9.714  18.675  0.00  0.00    +0.000 HD
ENDBRANCH   6   7
BRANCH   3  17
ATOM     17  S   UNL     1       5.364   4.515  16.961  0.00  0.00    +0.000 S 
ATOM     18  C   UNL     1       6.470   5.823  16.353  0.00  0.00    +0.000 C 
ATOM     19  O   UNL     1       6.290   4.231  18.382  0.00  0.00    +0.000 OA
ENDBRANCH   3  17
BRANCH   1  21
ATOM     20  C   UNL     1       1.067   4.094  20.540  0.00  0.00    +0.000 C 
ATOM     21  O   UNL     1       1.787   5.272  20.609  0.00  0.00    +0.000 OA
ENDBRANCH   1  21
TORSDOF 3
ENDMDL
MODEL 6
REMARK VINA RESULT:      -6.3      4.325      6.724
REMARK  Name = 
REMARK  5 active torsions:
REMARK  status: ('A' for Active; 'I' for Inactive)
REMARK    1  A    between atoms: C_1  and  O_2
REMARK    2  A    between atoms: O_2  and  C_3
REMARK    3  A    between atoms: C_5  and  S_6
REMARK    4  A    between atoms: S_6  and  C_7
REMARK    5  A    between atoms: C_11  and  C_12
REMARK                            x       y       z     vdW  Elec       q    Type
REMARK                         _______ _______ _______ _____ _____    ______ ____
ROOT
ATOM      1  C   UNL     1       1.222   8.975  20.540  0.00  0.00    +0.000 A 
ATOM      2  C   UNL     1       0.833  10.293  20.200  0.00  0.00    +0.000 A 
ATOM      3  C   UNL     1       1.068  10.821  18.929  0.00  0.00    +0.000 A 
ATOM      4  C   UNL     1       1.746  10.043  17.988  0.00  0.00    +0.000 A 
ATOM      5  C   UNL     1       2.135   8.741  18.298  0.00  0.00    +0.000 A 
ATOM      6  C   UNL     1       1.862   8.167  19.559  0.00  0.00    +0.000 A 
ENDROOT
BRANCH   6   7
ATOM      7  C   UNL     1       2.197   6.720  19.785  0.00  0.00    +0.000 A 
ATOM      8  N   UNL     1       3.160   6.034  19.108  0.00  0.00    +0.000 NA
ATOM      9  C   UNL     1       3.187   4.828  19.716  0.00  0.00    +0.000 A 
ATOM     10  C   UNL     1       4.006   3.733  19.463  0.00  0.00    +0.000 A 
ATOM     11  N   UNL     1       3.859   2.626  20.254  0.00  0.00    +0.000 NA
ATOM     12  C   UNL     1       2.936   2.574  21.270  0.00  0.00    +0.000 A 
ATOM     13  C   UNL     1       2.104   3.677  21.529  0.00  0.00    +0.000 A 
ATOM     14  C   UNL     1       2.273   4.792  20.716  0.00  0.00    +0.000 A 
ATOM     15  N   UNL     1       1.633   5.963  20.770  0.00  0.00    +0.000 N 
ATOM     16  H   UNL     1       0.892   6.208  21.459  0.00  0.00    +0.000 HD
ENDBRANCH   6   7
BRANCH   3  17
ATOM     17  S   UNL     1       0.414  12.470  18.550  0.00  0.00    +0.000 S 
ATOM     18  C   UNL     1      -1.313  11.990  18.248  0.00  0.00    +0.000 C 
ATOM     19  O   UNL     1       0.132  12.888  20.195  0.00  0.00    +0.000 OA
ENDBRANCH   3  17
BRANCH   1  21
ATOM     20  C   UNL     1       0.443   9.196  22.842  0.00  0.00    +0.000 C 
ATOM     21  O   UNL     1       0.966   8.479  21.782  0.00  0.00    +0.000 OA
ENDBRANCH   1  21
TORSDOF 3
ENDMDL
MODEL 7
REMARK VINA RESULT:      -6.3      3.636      6.928
REMARK  Name = 
REMARK  5 active torsions:
REMARK  status: ('A' for Active; 'I' for Inactive)
REMARK    1  A    between atoms: C_1  and  O_2
REMARK    2  A    between atoms: O_2  and  C_3
REMARK    3  A    between atoms: C_5  and  S_6
REMARK    4  A    between atoms: S_6  and  C_7
REMARK    5  A    between atoms: C_11  and  C_12
REMARK                            x       y       z     vdW  Elec       q    Type
REMARK                         _______ _______ _______ _____ _____    ______ ____
ROOT
ATOM      1  C   UNL     1       2.279   7.183  19.782  0.00  0.00    +0.000 A 
ATOM      2  C   UNL     1       1.389   8.031  20.484  0.00  0.00    +0.000 A 
ATOM      3  C   UNL     1       0.956   9.245  19.946  0.00  0.00    +0.000 A 
ATOM      4  C   UNL     1       1.453   9.649  18.705  0.00  0.00    +0.000 A 
ATOM      5  C   UNL     1       2.326   8.829  17.993  0.00  0.00    +0.000 A 
ATOM      6  C   UNL     1       2.737   7.575  18.493  0.00  0.00    +0.000 A 
ENDROOT
BRANCH   6   7
ATOM      7  C   UNL     1       3.580   6.687  17.622  0.00  0.00    +0.000 A 
ATOM      8  N   UNL     1       4.587   7.126  16.816  0.00  0.00    +0.000 NA
ATOM      9  C   UNL     1       5.129   5.989  16.327  0.00  0.00    +0.000 A 
ATOM     10  C   UNL     1       6.216   5.828  15.474  0.00  0.00    +0.000 A 
ATOM     11  N   UNL     1       6.594   4.553  15.152  0.00  0.00    +0.000 NA
ATOM     12  C   UNL     1       5.936   3.452  15.641  0.00  0.00    +0.000 A 
ATOM     13  C   UNL     1       4.835   3.608  16.501  0.00  0.00    +0.000 A 
ATOM     14  C   UNL     1       4.469   4.912  16.818  0.00  0.00    +0.000 A 
ATOM     15  N   UNL     1       3.488   5.326  17.622  0.00  0.00    +0.000 N 
ATOM     16  H   UNL     1       2.839   4.701  18.144  0.00  0.00    +0.000 HD
ENDBRANCH   6   7
BRANCH   3  17
ATOM     17  S   UNL     1      -0.286  10.195  20.864  0.00  0.00    +0.000 S 
ATOM     18  C   UNL     1      -0.301   9.191  22.379  0.00  0.00    +0.000 C 
ATOM     19  O   UNL     1       0.843  11.332  21.489  0.00  0.00    +0.000 OA
ENDBRANCH   3  17
BRANCH   1  21
ATOM     20  C   UNL     1       1.829   5.002  20.782  0.00  0.00    +0.000 C 
ATOM     21  O   UNL     1       2.674   5.997  20.323  0.00  0.00    +0.000 OA
ENDBRANCH   1  21
TORSDOF 3
ENDMDL
MODEL 8
REMARK VINA RESULT:      -6.2      1.235      1.274
REMARK  Name = 
REMARK  5 active torsions:
REMARK  status: ('A' for Active; 'I' for Inactive)
REMARK    1  A    between atoms: C_1  and  O_2
REMARK    2  A    between atoms: O_2  and  C_3
REMARK    3  A    between atoms: C_5  and  S_6
REMARK    4  A    between atoms: S_6  and  C_7
REMARK    5  A    between atoms: C_11  and  C_12
REMARK                            x       y       z     vdW  Elec       q    Type
REMARK                         _______ _______ _______ _____ _____    ______ ____
ROOT
ATOM      1  C   UNL     1       3.073   5.673  18.446  0.00  0.00    +0.000 A 
ATOM      2  C   UNL     1       3.966   4.934  17.632  0.00  0.00    +0.000 A 
ATOM      3  C   UNL     1       4.782   5.557  16.687  0.00  0.00    +0.000 A 
ATOM      4  C   UNL     1       4.679   6.939  16.510  0.00  0.00    +0.000 A 
ATOM      5  C   UNL     1       3.811   7.688  17.302  0.00  0.00    +0.000 A 
ATOM      6  C   UNL     1       3.013   7.087  18.300  0.00  0.00    +0.000 A 
ENDROOT
BRANCH   6   7
ATOM      7  C   UNL     1       2.193   7.966  19.201  0.00  0.00    +0.000 A 
ATOM      8  N   UNL     1       1.512   9.073  18.791  0.00  0.00    +0.000 NA
ATOM      9  C   UNL     1       0.837   9.465  19.893  0.00  0.00    +0.000 A 
ATOM     10  C   UNL     1      -0.048  10.525  20.052  0.00  0.00    +0.000 A 
ATOM     11  N   UNL     1      -0.637  10.691  21.276  0.00  0.00    +0.000 NA
ATOM     12  C   UNL     1      -0.374   9.852  22.330  0.00  0.00    +0.000 A 
ATOM     13  C   UNL     1       0.523   8.780  22.177  0.00  0.00    +0.000 A 
ATOM     14  C   UNL     1       1.107   8.628  20.924  0.00  0.00    +0.000 A 
ATOM     15  N   UNL     1       1.962   7.688  20.517  0.00  0.00    +0.000 N 
ATOM     16  H   UNL     1       2.320   6.908  21.107  0.00  0.00    +0.000 HD
ENDBRANCH   6   7
BRANCH   3  17
ATOM     17  S   UNL     1       5.986   4.541  15.789  0.00  0.00    +0.000 S 
ATOM     18  C   UNL     1       7.315   4.572  17.028  0.00  0.00    +0.000 C 
ATOM     19  O   UNL     1       5.344   3.044  16.343  0.00  0.00    +0.000 OA
ENDBRANCH   3  17
BRANCH   1  21
ATOM     20  C   UNL     1       1.423   4.003  19.112  0.00  0.00    +0.000 C 
ATOM     21  O   UNL     1       2.299   5.041  19.371  0.00  0.00    +0.000 OA
ENDBRANCH   1  21
TORSDOF 3
ENDMDL
MODEL 9
REMARK VINA RESULT:      -6.1      4.404      8.038
REMARK  Name = 
REMARK  5 active torsions:
REMARK  status: ('A' for Active; 'I' for Inactive)
REMARK    1  A    between atoms: C_1  and  O_2
REMARK    2  A    between atoms: O_2  and  C_3
REMARK    3  A    between atoms: C_5  and  S_6
REMARK    4  A    between atoms: S_6  and  C_7
REMARK    5  A    between atoms: C_11  and  C_12
REMARK                            x       y       z     vdW  Elec       q    Type
REMARK                         _______ _______ _______ _____ _____    ______ ____
ROOT
ATOM      1  C   UNL     1      -0.040  10.149  20.181  0.00  0.00    +0.000 A 
ATOM      2  C   UNL     1      -0.753  11.168  20.857  0.00  0.00    +0.000 A 
ATOM      3  C   UNL     1      -0.890  11.168  22.247  0.00  0.00    +0.000 A 
ATOM      4  C   UNL     1      -0.348  10.109  22.979  0.00  0.00    +0.000 A 
ATOM      5  C   UNL     1       0.362   9.097  22.336  0.00  0.00    +0.000 A 
ATOM      6  C   UNL     1       0.558   9.103  20.938  0.00  0.00    +0.000 A 
ENDROOT
BRANCH   6   7
ATOM      7  C   UNL     1       1.436   8.050  20.323  0.00  0.00    +0.000 A 
ATOM      8  N   UNL     1       1.609   6.796  20.828  0.00  0.00    +0.000 NA
ATOM      9  C   UNL     1       2.370   6.176  19.901  0.00  0.00    +0.000 A 
ATOM     10  C   UNL     1       2.830   4.864  19.874  0.00  0.00    +0.000 A 
ATOM     11  N   UNL     1       3.564   4.464  18.790  0.00  0.00    +0.000 NA
ATOM     12  C   UNL     1       3.852   5.314  17.752  0.00  0.00    +0.000 A 
ATOM     13  C   UNL     1       3.393   6.642  17.774  0.00  0.00    +0.000 A 
ATOM     14  C   UNL     1       2.646   7.027  18.883  0.00  0.00    +0.000 A 
ATOM     15  N   UNL     1       2.080   8.210  19.132  0.00  0.00    +0.000 N 
ATOM     16  H   UNL     1       2.122   9.037  18.501  0.00  0.00    +0.000 HD
ENDBRANCH   6   7
BRANCH   3  17
ATOM     17  S   UNL     1      -1.705  12.587  23.029  0.00  0.00    +0.000 S 
ATOM     18  C   UNL     1      -2.566  13.223  21.559  0.00  0.00    +0.000 C 
ATOM     19  O   UNL     1      -3.062  11.682  23.576  0.00  0.00    +0.000 OA
ENDBRANCH   3  17
BRANCH   1  21
ATOM     20  C   UNL     1      -0.951  10.244  17.918  0.00  0.00    +0.000 C 
ATOM     21  O   UNL     1       0.091  10.182  18.825  0.00  0.00    +0.000 OA
ENDBRANCH   1  21
TORSDOF 3
ENDMDL
