MODEL 1
REMARK VINA RESULT:      -8.4      0.000      0.000
REMARK  Name = 
REMARK  6 active torsions:
REMARK  status: ('A' for Active; 'I' for Inactive)
REMARK    1  A    between atoms: C_1  and  O_2
REMARK    2  A    between atoms: O_2  and  C_3
REMARK    3  A    between atoms: C_8  and  O_9
REMARK    4  A    between atoms: O_9  and  C_10
REMARK    5  A    between atoms: N_18  and  C_19
REMARK    6  A    between atoms: C_22  and  C_23
REMARK                            x       y       z     vdW  Elec       q    Type
REMARK                         _______ _______ _______ _____ _____    ______ ____
ROOT
ATOM      1  C   UNL     1       2.068   7.242  19.483  0.00  0.00    +0.000 A 
ATOM      2  C   UNL     1       2.251   7.958  18.282  0.00  0.00    +0.000 A 
ATOM      3  C   UNL     1       1.654   9.217  18.109  0.00  0.00    +0.000 A 
ATOM      4  C   UNL     1       1.039   9.772  19.210  0.00  0.00    +0.000 A 
ATOM      5  C   UNL     1       1.227   9.199  20.444  0.00  0.00    +0.000 A 
ATOM      6  C   UNL     1       1.686   7.915  20.629  0.00  0.00    +0.000 A 
ATOM      7  C   UNL     1       0.668  10.087  21.419  0.00  0.00    +0.000 C 
ATOM      8  O   UNL     1       1.134  10.119  22.540  0.00  0.00    +0.000 OA
ATOM      9  N   UNL     1      -0.271  10.831  20.761  0.00  0.00    +0.000 N 
ATOM     10  C   UNL     1       0.011  10.814  19.402  0.00  0.00    +0.000 C 
ATOM     11  O   UNL     1      -0.485  11.429  18.461  0.00  0.00    +0.000 OA
ENDROOT
BRANCH   9  12
ATOM     12  C   UNL     1      -1.340  11.466  21.445  0.00  0.00    +0.000 A 
ATOM     13  C   UNL     1      -2.219  12.291  20.722  0.00  0.00    +0.000 A 
ATOM     14  C   UNL     1      -3.315  12.909  21.307  0.00  0.00    +0.000 A 
ATOM     15  C   UNL     1      -3.551  12.751  22.664  0.00  0.00    +0.000 A 
ATOM     16  C   UNL     1      -4.817  13.297  23.247  0.00  0.00    +0.000 C 
ATOM     17  C   UNL     1      -2.620  12.040  23.433  0.00  0.00    +0.000 A 
ATOM     18  C   UNL     1      -1.525  11.393  22.830  0.00  0.00    +0.000 A 
ENDBRANCH   9  12
BRANCH   1  19
ATOM     19  O   UNL     1       2.164   5.883  19.617  0.00  0.00    +0.000 OA
BRANCH  19  25
ATOM     20  C   UNL     1       2.694   4.182  17.842  0.00  0.00    +0.000 A 
ATOM     21  C   UNL     1       3.716   3.704  17.010  0.00  0.00    +0.000 A 
ATOM     22  C   UNL     1       5.047   4.044  17.250  0.00  0.00    +0.000 A 
ATOM     23  C   UNL     1       5.374   4.860  18.326  0.00  0.00    +0.000 A 
ATOM     24  C   UNL     1       4.360   5.415  19.100  0.00  0.00    +0.000 A 
ATOM     25  C   UNL     1       3.016   5.144  18.821  0.00  0.00    +0.000 A 
BRANCH  20  27
ATOM     26  C   UNL     1       0.979   2.700  18.585  0.00  0.00    +0.000 C 
ATOM     27  O   UNL     1       1.397   3.753  17.722  0.00  0.00    +0.000 OA
ENDBRANCH  20  27
ENDBRANCH  19  25
ENDBRANCH   1  19
TORSDOF 4
ENDMDL
MODEL 2
REMARK VINA RESULT:      -8.3      2.144      3.655
REMARK  Name = 
REMARK  6 active torsions:
REMARK  status: ('A' for Active; 'I' for Inactive)
REMARK    1  A    between atoms: C_1  and  O_2
REMARK    2  A    between atoms: O_2  and  C_3
REMARK    3  A    between atoms: C_8  and  O_9
REMARK    4  A    between atoms: O_9  and  C_10
REMARK    5  A    between atoms: N_18  and  C_19
REMARK    6  A    between atoms: C_22  and  C_23
REMARK                            x       y       z     vdW  Elec       q    Type
REMARK                         _______ _______ _______ _____ _____    ______ ____
ROOT
ATOM      1  C   UNL     1       2.421   7.291  18.945  0.00  0.00    +0.000 A 
ATOM      2  C   UNL     1       2.104   7.009  20.290  0.00  0.00    +0.000 A 
ATOM      3  C   UNL     1       1.457   7.972  21.082  0.00  0.00    +0.000 A 
ATOM      4  C   UNL     1       1.010   9.108  20.443  0.00  0.00    +0.000 A 
ATOM      5  C   UNL     1       1.011   9.149  19.070  0.00  0.00    +0.000 A 
ATOM      6  C   UNL     1       1.746   8.298  18.278  0.00  0.00    +0.000 A 
ATOM      7  C   UNL     1       0.305  10.332  18.677  0.00  0.00    +0.000 C 
ATOM      8  O   UNL     1      -0.292  10.353  17.619  0.00  0.00    +0.000 OA
ATOM      9  N   UNL     1       0.391  11.195  19.734  0.00  0.00    +0.000 N 
ATOM     10  C   UNL     1       0.656  10.470  20.887  0.00  0.00    +0.000 C 
ATOM     11  O   UNL     1       0.697  10.808  22.068  0.00  0.00    +0.000 OA
ENDROOT
BRANCH   9  12
ATOM     12  C   UNL     1       0.240  12.597  19.572  0.00  0.00    +0.000 A 
ATOM     13  C   UNL     1       1.296  13.337  19.012  0.00  0.00    +0.000 A 
ATOM     14  C   UNL     1       1.209  14.702  18.777  0.00  0.00    +0.000 A 
ATOM     15  C   UNL     1       0.060  15.390  19.135  0.00  0.00    +0.000 A 
ATOM     16  C   UNL     1      -0.077  16.827  18.738  0.00  0.00    +0.000 C 
ATOM     17  C   UNL     1      -0.956  14.702  19.812  0.00  0.00    +0.000 A 
ATOM     18  C   UNL     1      -0.873  13.313  20.024  0.00  0.00    +0.000 A 
ENDBRANCH   9  12
BRANCH   1  19
ATOM     19  O   UNL     1       3.421   6.693  18.226  0.00  0.00    +0.000 OA
BRANCH  19  25
ATOM     20  C   UNL     1       4.685   4.687  19.065  0.00  0.00    +0.000 A 
ATOM     21  C   UNL     1       4.623   3.293  19.198  0.00  0.00    +0.000 A 
ATOM     22  C   UNL     1       3.679   2.551  18.489  0.00  0.00    +0.000 A 
ATOM     23  C   UNL     1       2.789   3.191  17.636  0.00  0.00    +0.000 A 
ATOM     24  C   UNL     1       2.779   4.580  17.568  0.00  0.00    +0.000 A 
ATOM     25  C   UNL     1       3.670   5.340  18.335  0.00  0.00    +0.000 A 
BRANCH  20  27
ATOM     26  C   UNL     1       6.923   5.502  18.924  0.00  0.00    +0.000 C 
ATOM     27  O   UNL     1       5.688   5.430  19.633  0.00  0.00    +0.000 OA
ENDBRANCH  20  27
ENDBRANCH  19  25
ENDBRANCH   1  19
TORSDOF 4
ENDMDL
MODEL 3
REMARK VINA RESULT:      -8.3      2.291      3.796
REMARK  Name = 
REMARK  6 active torsions:
REMARK  status: ('A' for Active; 'I' for Inactive)
REMARK    1  A    between atoms: C_1  and  O_2
REMARK    2  A    between atoms: O_2  and  C_3
REMARK    3  A    between atoms: C_8  and  O_9
REMARK    4  A    between atoms: O_9  and  C_10
REMARK    5  A    between atoms: N_18  and  C_19
REMARK    6  A    between atoms: C_22  and  C_23
REMARK                            x       y       z     vdW  Elec       q    Type
REMARK                         _______ _______ _______ _____ _____    ______ ____
ROOT
ATOM      1  C   UNL     1       3.601   7.326  17.594  0.00  0.00    +0.000 A 
ATOM      2  C   UNL     1       3.416   6.287  18.530  0.00  0.00    +0.000 A 
ATOM      3  C   UNL     1       2.635   6.499  19.678  0.00  0.00    +0.000 A 
ATOM      4  C   UNL     1       1.941   7.687  19.749  0.00  0.00    +0.000 A 
ATOM      5  C   UNL     1       1.861   8.487  18.636  0.00  0.00    +0.000 A 
ATOM      6  C   UNL     1       2.707   8.381  17.556  0.00  0.00    +0.000 A 
ATOM      7  C   UNL     1       0.917   9.526  18.920  0.00  0.00    +0.000 C 
ATOM      8  O   UNL     1       0.273  10.018  18.015  0.00  0.00    +0.000 OA
ATOM      9  N   UNL     1       0.888   9.650  20.281  0.00  0.00    +0.000 N 
ATOM     10  C   UNL     1       1.349   8.471  20.852  0.00  0.00    +0.000 C 
ATOM     11  O   UNL     1       1.385   8.094  22.020  0.00  0.00    +0.000 OA
ENDROOT
BRANCH   9  12
ATOM     12  C   UNL     1       0.455  10.842  20.917  0.00  0.00    +0.000 A 
ATOM     13  C   UNL     1       1.147  12.040  20.663  0.00  0.00    +0.000 A 
ATOM     14  C   UNL     1       0.760  13.256  21.207  0.00  0.00    +0.000 A 
ATOM     15  C   UNL     1      -0.326  13.311  22.067  0.00  0.00    +0.000 A 
ATOM     16  C   UNL     1      -0.823  14.648  22.523  0.00  0.00    +0.000 C 
ATOM     17  C   UNL     1      -0.955  12.115  22.438  0.00  0.00    +0.000 A 
ATOM     18  C   UNL     1      -0.574  10.887  21.862  0.00  0.00    +0.000 A 
ENDBRANCH   9  12
BRANCH   1  19
ATOM     19  O   UNL     1       4.660   7.436  16.733  0.00  0.00    +0.000 OA
BRANCH  19  25
ATOM     20  C   UNL     1       6.660   5.987  17.203  0.00  0.00    +0.000 A 
ATOM     21  C   UNL     1       7.247   4.748  16.910  0.00  0.00    +0.000 A 
ATOM     22  C   UNL     1       6.798   3.986  15.832  0.00  0.00    +0.000 A 
ATOM     23  C   UNL     1       5.763   4.452  15.032  0.00  0.00    +0.000 A 
ATOM     24  C   UNL     1       5.113   5.634  15.370  0.00  0.00    +0.000 A 
ATOM     25  C   UNL     1       5.503   6.369  16.495  0.00  0.00    +0.000 A 
BRANCH  20  27
ATOM     26  C   UNL     1       7.876   7.976  17.709  0.00  0.00    +0.000 C 
ATOM     27  O   UNL     1       7.169   6.825  18.162  0.00  0.00    +0.000 OA
ENDBRANCH  20  27
ENDBRANCH  19  25
ENDBRANCH   1  19
TORSDOF 4
ENDMDL
MODEL 4
REMARK VINA RESULT:      -8.2      1.963      3.069
REMARK  Name = 
REMARK  6 active torsions:
REMARK  status: ('A' for Active; 'I' for Inactive)
REMARK    1  A    between atoms: C_1  and  O_2
REMARK    2  A    between atoms: O_2  and  C_3
REMARK    3  A    between atoms: C_8  and  O_9
REMARK    4  A    between atoms: O_9  and  C_10
REMARK    5  A    between atoms: N_18  and  C_19
REMARK    6  A    between atoms: C_22  and  C_23
REMARK                            x       y       z     vdW  Elec       q    Type
REMARK                         _______ _______ _______ _____ _____    ______ ____
ROOT
ATOM      1  C   UNL     1       3.036   7.272  17.979  0.00  0.00    +0.000 A 
ATOM      2  C   UNL     1       2.844   6.390  19.063  0.00  0.00    +0.000 A 
ATOM      3  C   UNL     1       2.200   6.832  20.230  0.00  0.00    +0.000 A 
ATOM      4  C   UNL     1       1.632   8.087  20.192  0.00  0.00    +0.000 A 
ATOM      5  C   UNL     1       1.523   8.738  18.988  0.00  0.00    +0.000 A 
ATOM      6  C   UNL     1       2.247   8.402  17.868  0.00  0.00    +0.000 A 
ATOM      7  C   UNL     1       0.713   9.900  19.201  0.00  0.00    +0.000 C 
ATOM      8  O   UNL     1       0.035  10.335  18.292  0.00  0.00    +0.000 OA
ATOM      9  N   UNL     1       0.825  10.203  20.529  0.00  0.00    +0.000 N 
ATOM     10  C   UNL     1       1.226   9.067  21.219  0.00  0.00    +0.000 C 
ATOM     11  O   UNL     1       1.337   8.843  22.422  0.00  0.00    +0.000 OA
ENDROOT
BRANCH   9  12
ATOM     12  C   UNL     1       0.571  11.508  21.026  0.00  0.00    +0.000 A 
ATOM     13  C   UNL     1      -0.546  11.717  21.854  0.00  0.00    +0.000 A 
ATOM     14  C   UNL     1      -0.837  12.951  22.418  0.00  0.00    +0.000 A 
ATOM     15  C   UNL     1      -0.032  14.043  22.137  0.00  0.00    +0.000 A 
ATOM     16  C   UNL     1      -0.269  15.326  22.871  0.00  0.00    +0.000 C 
ATOM     17  C   UNL     1       1.012  13.893  21.214  0.00  0.00    +0.000 A 
ATOM     18  C   UNL     1       1.319  12.633  20.666  0.00  0.00    +0.000 A 
ENDBRANCH   9  12
BRANCH   1  19
ATOM     19  O   UNL     1       4.014   7.155  17.027  0.00  0.00    +0.000 OA
BRANCH  19  25
ATOM     20  C   UNL     1       5.145   4.911  16.940  0.00  0.00    +0.000 A 
ATOM     21  C   UNL     1       6.393   4.277  16.994  0.00  0.00    +0.000 A 
ATOM     22  C   UNL     1       7.519   4.959  17.453  0.00  0.00    +0.000 A 
ATOM     23  C   UNL     1       7.411   6.280  17.869  0.00  0.00    +0.000 A 
ATOM     24  C   UNL     1       6.198   6.947  17.732  0.00  0.00    +0.000 A 
ATOM     25  C   UNL     1       5.080   6.295  17.198  0.00  0.00    +0.000 A 
BRANCH  20  27
ATOM     26  C   UNL     1       3.617   3.167  17.502  0.00  0.00    +0.000 C 
ATOM     27  O   UNL     1       3.995   4.230  16.632  0.00  0.00    +0.000 OA
ENDBRANCH  20  27
ENDBRANCH  19  25
ENDBRANCH   1  19
TORSDOF 4
ENDMDL
MODEL 5
REMARK VINA RESULT:      -8.2      2.328      3.771
REMARK  Name = 
REMARK  6 active torsions:
REMARK  status: ('A' for Active; 'I' for Inactive)
REMARK    1  A    between atoms: C_1  and  O_2
REMARK    2  A    between atoms: O_2  and  C_3
REMARK    3  A    between atoms: C_8  and  O_9
REMARK    4  A    between atoms: O_9  and  C_10
REMARK    5  A    between atoms: N_18  and  C_19
REMARK    6  A    between atoms: C_22  and  C_23
REMARK                            x       y       z     vdW  Elec       q    Type
REMARK                         _______ _______ _______ _____ _____    ______ ____
ROOT
ATOM      1  C   UNL     1       2.493   6.886  19.019  0.00  0.00    +0.000 A 
ATOM      2  C   UNL     1       2.092   6.674  20.355  0.00  0.00    +0.000 A 
ATOM      3  C   UNL     1       1.504   7.716  21.092  0.00  0.00    +0.000 A 
ATOM      4  C   UNL     1       1.194   8.868  20.404  0.00  0.00    +0.000 A 
ATOM      5  C   UNL     1       1.259   8.869  19.032  0.00  0.00    +0.000 A 
ATOM      6  C   UNL     1       1.944   7.930  18.297  0.00  0.00    +0.000 A 
ATOM      7  C   UNL     1       0.685  10.100  18.577  0.00  0.00    +0.000 C 
ATOM      8  O   UNL     1       0.139  10.145  17.493  0.00  0.00    +0.000 OA
ATOM      9  N   UNL     1       0.806  10.982  19.615  0.00  0.00    +0.000 N 
ATOM     10  C   UNL     1       0.950  10.270  20.797  0.00  0.00    +0.000 C 
ATOM     11  O   UNL     1       0.972  10.637  21.970  0.00  0.00    +0.000 OA
ENDROOT
BRANCH   9  12
ATOM     12  C   UNL     1       0.793  12.386  19.411  0.00  0.00    +0.000 A 
ATOM     13  C   UNL     1      -0.425  13.081  19.517  0.00  0.00    +0.000 A 
ATOM     14  C   UNL     1      -0.514  14.458  19.380  0.00  0.00    +0.000 A 
ATOM     15  C   UNL     1       0.623  15.196  19.089  0.00  0.00    +0.000 A 
ATOM     16  C   UNL     1       0.538  16.691  19.094  0.00  0.00    +0.000 C 
ATOM     17  C   UNL     1       1.825  14.517  18.850  0.00  0.00    +0.000 A 
ATOM     18  C   UNL     1       1.915  13.122  19.018  0.00  0.00    +0.000 A 
ENDBRANCH   9  12
BRANCH   1  19
ATOM     19  O   UNL     1       3.462   6.177  18.362  0.00  0.00    +0.000 OA
BRANCH  19  25
ATOM     20  C   UNL     1       4.457   3.930  18.901  0.00  0.00    +0.000 A 
ATOM     21  C   UNL     1       4.165   2.563  18.991  0.00  0.00    +0.000 A 
ATOM     22  C   UNL     1       2.999   2.045  18.427  0.00  0.00    +0.000 A 
ATOM     23  C   UNL     1       2.115   2.884  17.762  0.00  0.00    +0.000 A 
ATOM     24  C   UNL     1       2.348   4.255  17.748  0.00  0.00    +0.000 A 
ATOM     25  C   UNL     1       3.474   4.796  18.378  0.00  0.00    +0.000 A 
BRANCH  20  27
ATOM     26  C   UNL     1       6.599   4.794  18.303  0.00  0.00    +0.000 C 
ATOM     27  O   UNL     1       5.658   4.448  19.315  0.00  0.00    +0.000 OA
ENDBRANCH  20  27
ENDBRANCH  19  25
ENDBRANCH   1  19
TORSDOF 4
ENDMDL
MODEL 6
REMARK VINA RESULT:      -8.2      2.693      4.274
REMARK  Name = 
REMARK  6 active torsions:
REMARK  status: ('A' for Active; 'I' for Inactive)
REMARK    1  A    between atoms: C_1  and  O_2
REMARK    2  A    between atoms: O_2  and  C_3
REMARK    3  A    between atoms: C_8  and  O_9
REMARK    4  A    between atoms: O_9  and  C_10
REMARK    5  A    between atoms: N_18  and  C_19
REMARK    6  A    between atoms: C_22  and  C_23
REMARK                            x       y       z     vdW  Elec       q    Type
REMARK                         _______ _______ _______ _____ _____    ______ ____
ROOT
ATOM      1  C   UNL     1       3.290   5.706  18.655  0.00  0.00    +0.000 A 
ATOM      2  C   UNL     1       2.733   5.341  19.899  0.00  0.00    +0.000 A 
ATOM      3  C   UNL     1       2.017   6.282  20.657  0.00  0.00    +0.000 A 
ATOM      4  C   UNL     1       1.750   7.493  20.058  0.00  0.00    +0.000 A 
ATOM      5  C   UNL     1       1.986   7.644  18.713  0.00  0.00    +0.000 A 
ATOM      6  C   UNL     1       2.795   6.807  17.980  0.00  0.00    +0.000 A 
ATOM      7  C   UNL     1       1.425   8.901  18.318  0.00  0.00    +0.000 C 
ATOM      8  O   UNL     1       1.019   9.047  17.182  0.00  0.00    +0.000 OA
ATOM      9  N   UNL     1       1.379   9.669  19.448  0.00  0.00    +0.000 N 
ATOM     10  C   UNL     1       1.402   8.838  20.559  0.00  0.00    +0.000 C 
ATOM     11  O   UNL     1       1.262   9.077  21.756  0.00  0.00    +0.000 OA
ENDROOT
BRANCH   9  12
ATOM     12  C   UNL     1       1.337  11.086  19.390  0.00  0.00    +0.000 A 
ATOM     13  C   UNL     1       2.186  11.759  18.494  0.00  0.00    +0.000 A 
ATOM     14  C   UNL     1       2.172  13.138  18.344  0.00  0.00    +0.000 A 
ATOM     15  C   UNL     1       1.322  13.907  19.124  0.00  0.00    +0.000 A 
ATOM     16  C   UNL     1       1.209  15.373  18.843  0.00  0.00    +0.000 C 
ATOM     17  C   UNL     1       0.559  13.275  20.114  0.00  0.00    +0.000 A 
ATOM     18  C   UNL     1       0.557  11.873  20.244  0.00  0.00    +0.000 A 
ENDBRANCH   9  12
BRANCH   1  19
ATOM     19  O   UNL     1       4.362   5.098  18.059  0.00  0.00    +0.000 OA
BRANCH  19  25
ATOM     20  C   UNL     1       6.206   6.530  17.125  0.00  0.00    +0.000 A 
ATOM     21  C   UNL     1       7.413   7.164  17.450  0.00  0.00    +0.000 A 
ATOM     22  C   UNL     1       8.099   6.834  18.618  0.00  0.00    +0.000 A 
ATOM     23  C   UNL     1       7.592   5.864  19.472  0.00  0.00    +0.000 A 
ATOM     24  C   UNL     1       6.350   5.296  19.207  0.00  0.00    +0.000 A 
ATOM     25  C   UNL     1       5.615   5.676  18.079  0.00  0.00    +0.000 A 
BRANCH  20  27
ATOM     26  C   UNL     1       5.527   5.614  15.029  0.00  0.00    +0.000 C 
ATOM     27  O   UNL     1       5.582   6.725  15.919  0.00  0.00    +0.000 OA
ENDBRANCH  20  27
ENDBRANCH  19  25
ENDBRANCH   1  19
TORSDOF 4
ENDMDL
MODEL 7
REMARK VINA RESULT:      -8.2      0.942      1.841
REMARK  Name = 
REMARK  6 active torsions:
REMARK  status: ('A' for Active; 'I' for Inactive)
REMARK    1  A    between atoms: C_1  and  O_2
REMARK    2  A    between atoms: O_2  and  C_3
REMARK    3  A    between atoms: C_8  and  O_9
REMARK    4  A    between atoms: O_9  and  C_10
REMARK    5  A    between atoms: N_18  and  C_19
REMARK    6  A    between atoms: C_22  and  C_23
REMARK                            x       y       z     vdW  Elec       q    Type
REMARK                         _______ _______ _______ _____ _____    ______ ____
ROOT
ATOM      1  C   UNL     1       2.062   7.289  19.742  0.00  0.00    +0.000 A 
ATOM      2  C   UNL     1       2.293   7.876  18.480  0.00  0.00    +0.000 A 
ATOM      3  C   UNL     1       1.676   9.091  18.140  0.00  0.00    +0.000 A 
ATOM      4  C   UNL     1       0.992   9.744  19.142  0.00  0.00    +0.000 A 
ATOM      5  C   UNL     1       1.127   9.313  20.439  0.00  0.00    +0.000 A 
ATOM      6  C   UNL     1       1.605   8.071  20.787  0.00  0.00    +0.000 A 
ATOM      7  C   UNL     1       0.498  10.285  21.282  0.00  0.00    +0.000 C 
ATOM      8  O   UNL     1       0.903  10.452  22.415  0.00  0.00    +0.000 OA
ATOM      9  N   UNL     1      -0.422  10.927  20.500  0.00  0.00    +0.000 N 
ATOM     10  C   UNL     1      -0.069  10.771  19.167  0.00  0.00    +0.000 C 
ATOM     11  O   UNL     1      -0.528  11.266  18.141  0.00  0.00    +0.000 OA
ENDROOT
BRANCH   9  12
ATOM     12  C   UNL     1      -1.540  11.601  21.057  0.00  0.00    +0.000 A 
ATOM     13  C   UNL     1      -2.444  12.248  20.197  0.00  0.00    +0.000 A 
ATOM     14  C   UNL     1      -3.585  12.889  20.657  0.00  0.00    +0.000 A 
ATOM     15  C   UNL     1      -3.846  12.938  22.018  0.00  0.00    +0.000 A 
ATOM     16  C   UNL     1      -5.153  13.497  22.486  0.00  0.00    +0.000 C 
ATOM     17  C   UNL     1      -2.897  12.413  22.906  0.00  0.00    +0.000 A 
ATOM     18  C   UNL     1      -1.754  11.741  22.432  0.00  0.00    +0.000 A 
ENDBRANCH   9  12
BRANCH   1  19
ATOM     19  O   UNL     1       2.182   5.955  20.028  0.00  0.00    +0.000 OA
BRANCH  19  25
ATOM     20  C   UNL     1       4.140   4.749  19.008  0.00  0.00    +0.000 A 
ATOM     21  C   UNL     1       4.491   3.683  18.169  0.00  0.00    +0.000 A 
ATOM     22  C   UNL     1       3.538   3.073  17.355  0.00  0.00    +0.000 A 
ATOM     23  C   UNL     1       2.224   3.523  17.364  0.00  0.00    +0.000 A 
ATOM     24  C   UNL     1       1.844   4.517  18.260  0.00  0.00    +0.000 A 
ATOM     25  C   UNL     1       2.775   5.083  19.138  0.00  0.00    +0.000 A 
BRANCH  20  27
ATOM     26  C   UNL     1       6.412   5.448  19.214  0.00  0.00    +0.000 C 
ATOM     27  O   UNL     1       5.076   5.464  19.711  0.00  0.00    +0.000 OA
ENDBRANCH  20  27
ENDBRANCH  19  25
ENDBRANCH   1  19
TORSDOF 4
ENDMDL
MODEL 8
REMARK VINA RESULT:      -8.2      1.550      2.382
REMARK  Name = 
REMARK  6 active torsions:
REMARK  status: ('A' for Active; 'I' for Inactive)
REMARK    1  A    between atoms: C_1  and  O_2
REMARK    2  A    between atoms: O_2  and  C_3
REMARK    3  A    between atoms: C_8  and  O_9
REMARK    4  A    between atoms: O_9  and  C_10
REMARK    5  A    between atoms: N_18  and  C_19
REMARK    6  A    between atoms: C_22  and  C_23
REMARK                            x       y       z     vdW  Elec       q    Type
REMARK                         _______ _______ _______ _____ _____    ______ ____
ROOT
ATOM      1  C   UNL     1       2.204   6.490  18.632  0.00  0.00    +0.000 A 
ATOM      2  C   UNL     1       2.746   7.402  17.703  0.00  0.00    +0.000 A 
ATOM      3  C   UNL     1       2.472   8.775  17.815  0.00  0.00    +0.000 A 
ATOM      4  C   UNL     1       1.806   9.187  18.949  0.00  0.00    +0.000 A 
ATOM      5  C   UNL     1       1.644   8.306  19.990  0.00  0.00    +0.000 A 
ATOM      6  C   UNL     1       1.777   6.942  19.867  0.00  0.00    +0.000 A 
ATOM      7  C   UNL     1       1.125   9.046  21.101  0.00  0.00    +0.000 C 
ATOM      8  O   UNL     1       1.381   8.690  22.234  0.00  0.00    +0.000 OA
ATOM      9  N   UNL     1       0.499  10.139  20.570  0.00  0.00    +0.000 N 
ATOM     10  C   UNL     1       1.007  10.378  19.300  0.00  0.00    +0.000 C 
ATOM     11  O   UNL     1       0.829  11.305  18.514  0.00  0.00    +0.000 OA
ENDROOT
BRANCH   9  12
ATOM     12  C   UNL     1      -0.513  10.841  21.275  0.00  0.00    +0.000 A 
ATOM     13  C   UNL     1      -1.317  11.761  20.579  0.00  0.00    +0.000 A 
ATOM     14  C   UNL     1      -2.357  12.451  21.184  0.00  0.00    +0.000 A 
ATOM     15  C   UNL     1      -2.608  12.272  22.536  0.00  0.00    +0.000 A 
ATOM     16  C   UNL     1      -3.824  12.904  23.137  0.00  0.00    +0.000 C 
ATOM     17  C   UNL     1      -1.742  11.460  23.281  0.00  0.00    +0.000 A 
ATOM     18  C   UNL     1      -0.705  10.742  22.656  0.00  0.00    +0.000 A 
ENDBRANCH   9  12
BRANCH   1  19
ATOM     19  O   UNL     1       1.981   5.159  18.397  0.00  0.00    +0.000 OA
BRANCH  19  25
ATOM     20  C   UNL     1       3.484   3.594  19.667  0.00  0.00    +0.000 A 
ATOM     21  C   UNL     1       3.568   2.803  20.821  0.00  0.00    +0.000 A 
ATOM     22  C   UNL     1       2.425   2.494  21.558  0.00  0.00    +0.000 A 
ATOM     23  C   UNL     1       1.184   2.966  21.148  0.00  0.00    +0.000 A 
ATOM     24  C   UNL     1       1.102   3.827  20.059  0.00  0.00    +0.000 A 
ATOM     25  C   UNL     1       2.252   4.207  19.359  0.00  0.00    +0.000 A 
BRANCH  20  27
ATOM     26  C   UNL     1       5.463   4.841  19.197  0.00  0.00    +0.000 C 
ATOM     27  O   UNL     1       4.561   3.796  18.843  0.00  0.00    +0.000 OA
ENDBRANCH  20  27
ENDBRANCH  19  25
ENDBRANCH   1  19
TORSDOF 4
ENDMDL
MODEL 9
REMARK VINA RESULT:      -8.2      2.228      8.583
REMARK  Name = 
REMARK  6 active torsions:
REMARK  status: ('A' for Active; 'I' for Inactive)
REMARK    1  A    between atoms: C_1  and  O_2
REMARK    2  A    between atoms: O_2  and  C_3
REMARK    3  A    between atoms: C_8  and  O_9
REMARK    4  A    between atoms: O_9  and  C_10
REMARK    5  A    between atoms: N_18  and  C_19
REMARK    6  A    between atoms: C_22  and  C_23
REMARK                            x       y       z     vdW  Elec       q    Type
REMARK                         _______ _______ _______ _____ _____    ______ ____
ROOT
ATOM      1  C   UNL     1       0.202  10.675  18.870  0.00  0.00    +0.000 A 
ATOM      2  C   UNL     1       0.190  10.644  20.280  0.00  0.00    +0.000 A 
ATOM      3  C   UNL     1       0.725   9.543  20.970  0.00  0.00    +0.000 A 
ATOM      4  C   UNL     1       1.396   8.604  20.219  0.00  0.00    +0.000 A 
ATOM      5  C   UNL     1       1.702   8.884  18.909  0.00  0.00    +0.000 A 
ATOM      6  C   UNL     1       1.090   9.874  18.176  0.00  0.00    +0.000 A 
ATOM      7  C   UNL     1       2.575   7.849  18.442  0.00  0.00    +0.000 C 
ATOM      8  O   UNL     1       3.390   8.096  17.576  0.00  0.00    +0.000 OA
ATOM      9  N   UNL     1       2.331   6.761  19.232  0.00  0.00    +0.000 N 
ATOM     10  C   UNL     1       1.758   7.187  20.422  0.00  0.00    +0.000 C 
ATOM     11  O   UNL     1       1.486   6.581  21.456  0.00  0.00    +0.000 OA
ENDROOT
BRANCH   9  12
ATOM     12  C   UNL     1       2.633   5.441  18.806  0.00  0.00    +0.000 A 
ATOM     13  C   UNL     1       3.837   4.848  19.224  0.00  0.00    +0.000 A 
ATOM     14  C   UNL     1       4.183   3.546  18.891  0.00  0.00    +0.000 A 
ATOM     15  C   UNL     1       3.343   2.796  18.084  0.00  0.00    +0.000 A 
ATOM     16  C   UNL     1       3.656   1.349  17.859  0.00  0.00    +0.000 C 
ATOM     17  C   UNL     1       2.201   3.404  17.547  0.00  0.00    +0.000 A 
ATOM     18  C   UNL     1       1.840   4.716  17.910  0.00  0.00    +0.000 A 
ENDBRANCH   9  12
BRANCH   1  19
ATOM     19  O   UNL     1      -0.662  11.392  18.087  0.00  0.00    +0.000 OA
BRANCH  19  25
ATOM     20  C   UNL     1      -2.962  11.988  18.912  0.00  0.00    +0.000 A 
ATOM     21  C   UNL     1      -4.328  11.754  18.703  0.00  0.00    +0.000 A 
ATOM     22  C   UNL     1      -4.756  10.681  17.923  0.00  0.00    +0.000 A 
ATOM     23  C   UNL     1      -3.826   9.825  17.346  0.00  0.00    +0.000 A 
ATOM     24  C   UNL     1      -2.468  10.102  17.470  0.00  0.00    +0.000 A 
ATOM     25  C   UNL     1      -2.028  11.221  18.185  0.00  0.00    +0.000 A 
BRANCH  20  27
ATOM     26  C   UNL     1      -2.696  12.689  21.177  0.00  0.00    +0.000 C 
ATOM     27  O   UNL     1      -2.511  12.943  19.787  0.00  0.00    +0.000 OA
ENDBRANCH  20  27
ENDBRANCH  19  25
ENDBRANCH   1  19
TORSDOF 4
ENDMDL
