MODEL 1
REMARK VINA RESULT:      -8.3      0.000      0.000
REMARK  Name = 
REMARK  9 active torsions:
REMARK  status: ('A' for Active; 'I' for Inactive)
REMARK    1  A    between atoms: C_2  and  O_3
REMARK    2  A    between atoms: C_2  and  C_4
REMARK    3  A    between atoms: C_9  and  C_10
REMARK    4  A    between atoms: N_12  and  C_13
REMARK    5  A    between atoms: C_18  and  S_19
REMARK    6  A    between atoms: S_19  and  C_20
REMARK    7  A    between atoms: C_20  and  C_21
REMARK    8  A    between atoms: C_21  and  S_22
REMARK    9  A    between atoms: S_22  and  C_25
REMARK                            x       y       z     vdW  Elec       q    Type
REMARK                         _______ _______ _______ _____ _____    ______ ____
ROOT
ATOM      1  C   UNL     1       2.537   4.451  18.354  0.00  0.00    +0.000 A 
ATOM      2  C   UNL     1       1.932   3.193  18.498  0.00  0.00    +0.000 A 
ATOM      3  C   UNL     1       1.074   2.921  19.566  0.00  0.00    +0.000 A 
ATOM      4  C   UNL     1       0.871   3.882  20.546  0.00  0.00    +0.000 A 
ATOM      5  C   UNL     1       1.486   5.125  20.426  0.00  0.00    +0.000 A 
ATOM      6  C   UNL     1       2.238   5.463  19.290  0.00  0.00    +0.000 A 
ENDROOT
BRANCH   1   9
ATOM      7  C   UNL     1       4.786   4.387  17.331  0.00  0.00    +0.000 C 
ATOM      8  O   UNL     1       5.383   3.939  18.305  0.00  0.00    +0.000 OA
ATOM      9  N   UNL     1       3.431   4.695  17.274  0.00  0.00    +0.000 N 
ATOM     10  H   UNL     1       3.124   5.373  16.585  0.00  0.00    +0.000 HD
BRANCH   7  16
ATOM     11  C   UNL     1       6.762   5.387  16.077  0.00  0.00    +0.000 A 
ATOM     12  C   UNL     1       7.533   5.414  14.897  0.00  0.00    +0.000 A 
ATOM     13  C   UNL     1       7.158   4.680  13.770  0.00  0.00    +0.000 A 
ATOM     14  C   UNL     1       5.997   3.918  13.799  0.00  0.00    +0.000 A 
ATOM     15  C   UNL     1       5.218   3.879  14.959  0.00  0.00    +0.000 A 
ATOM     16  C   UNL     1       5.586   4.609  16.105  0.00  0.00    +0.000 A 
BRANCH  11  18
ATOM     17  O   UNL     1       7.335   7.499  16.957  0.00  0.00    +0.000 OA
ATOM     18  C   UNL     1       7.259   6.290  17.158  0.00  0.00    +0.000 C 
BRANCH  18  19
ATOM     19  O   UNL     1       7.731   5.727  18.272  0.00  0.00    +0.000 OA
ATOM     20  H   UNL     1       7.089   5.192  18.799  0.00  0.00    +0.000 HD
ENDBRANCH  18  19
ENDBRANCH  11  18
ENDBRANCH   7  16
ENDBRANCH   1   9
BRANCH   6  21
ATOM     21  S   UNL     1       2.912   7.124  19.199  0.00  0.00    +0.000 S 
BRANCH  21  22
ATOM     22  C   UNL     1       1.704   7.995  18.101  0.00  0.00    +0.000 C 
BRANCH  22  23
ATOM     23  C   UNL     1       1.703   9.515  18.166  0.00  0.00    +0.000 C 
BRANCH  23  24
ATOM     24  S   UNL     1       0.682  10.089  19.511  0.00  0.00    +0.000 S 
ATOM     25  O   UNL     1       0.396   8.975  20.389  0.00  0.00    +0.000 OA
ATOM     26  O   UNL     1       1.273  11.314  20.020  0.00  0.00    +0.000 OA
BRANCH  24  27
ATOM     27  C   UNL     1      -0.849  10.525  18.708  0.00  0.00    +0.000 A 
ATOM     28  C   UNL     1      -1.682  11.475  19.307  0.00  0.00    +0.000 A 
ATOM     29  C   UNL     1      -2.904  11.795  18.710  0.00  0.00    +0.000 A 
ATOM     30  C   UNL     1      -3.277  11.175  17.517  0.00  0.00    +0.000 A 
ATOM     31 CL   UNL     1      -4.796  11.548  16.802  0.00  0.00    +0.000 Cl
ATOM     32  C   UNL     1      -2.428  10.253  16.902  0.00  0.00    +0.000 A 
ATOM     33  C   UNL     1      -1.206   9.925  17.497  0.00  0.00    +0.000 A 
ENDBRANCH  24  27
ENDBRANCH  23  24
ENDBRANCH  22  23
ENDBRANCH  21  22
ENDBRANCH   6  21
TORSDOF 9
ENDMDL
MODEL 2
REMARK VINA RESULT:      -8.3      0.598      1.127
REMARK  Name = 
REMARK  9 active torsions:
REMARK  status: ('A' for Active; 'I' for Inactive)
REMARK    1  A    between atoms: C_2  and  O_3
REMARK    2  A    between atoms: C_2  and  C_4
REMARK    3  A    between atoms: C_9  and  C_10
REMARK    4  A    between atoms: N_12  and  C_13
REMARK    5  A    between atoms: C_18  and  S_19
REMARK    6  A    between atoms: S_19  and  C_20
REMARK    7  A    between atoms: C_20  and  C_21
REMARK    8  A    between atoms: C_21  and  S_22
REMARK    9  A    between atoms: S_22  and  C_25
REMARK                            x       y       z     vdW  Elec       q    Type
REMARK                         _______ _______ _______ _____ _____    ______ ____
ROOT
ATOM      1  C   UNL     1       2.507   4.379  18.246  0.00  0.00    +0.000 A 
ATOM      2  C   UNL     1       1.764   3.188  18.261  0.00  0.00    +0.000 A 
ATOM      3  C   UNL     1       0.891   2.894  19.311  0.00  0.00    +0.000 A 
ATOM      4  C   UNL     1       0.807   3.754  20.396  0.00  0.00    +0.000 A 
ATOM      5  C   UNL     1       1.558   4.926  20.402  0.00  0.00    +0.000 A 
ATOM      6  C   UNL     1       2.333   5.304  19.295  0.00  0.00    +0.000 A 
ENDROOT
BRANCH   1   9
ATOM      7  C   UNL     1       4.763   4.318  17.240  0.00  0.00    +0.000 C 
ATOM      8  O   UNL     1       5.348   3.838  18.207  0.00  0.00    +0.000 OA
ATOM      9  N   UNL     1       3.412   4.642  17.180  0.00  0.00    +0.000 N 
ATOM     10  H   UNL     1       3.118   5.342  16.507  0.00  0.00    +0.000 HD
BRANCH   7  16
ATOM     11  C   UNL     1       6.743   5.358  16.025  0.00  0.00    +0.000 A 
ATOM     12  C   UNL     1       7.529   5.408  14.855  0.00  0.00    +0.000 A 
ATOM     13  C   UNL     1       7.177   4.685  13.715  0.00  0.00    +0.000 A 
ATOM     14  C   UNL     1       6.025   3.908  13.719  0.00  0.00    +0.000 A 
ATOM     15  C   UNL     1       5.232   3.845  14.868  0.00  0.00    +0.000 A 
ATOM     16  C   UNL     1       5.577   4.565  16.027  0.00  0.00    +0.000 A 
BRANCH  11  18
ATOM     17  O   UNL     1       7.240   7.469  16.952  0.00  0.00    +0.000 OA
ATOM     18  C   UNL     1       7.215   6.254  17.123  0.00  0.00    +0.000 C 
BRANCH  18  19
ATOM     19  O   UNL     1       7.722   5.683  18.217  0.00  0.00    +0.000 OA
ATOM     20  H   UNL     1       7.670   4.697  18.261  0.00  0.00    +0.000 HD
ENDBRANCH  18  19
ENDBRANCH  11  18
ENDBRANCH   7  16
ENDBRANCH   1   9
BRANCH   6  21
ATOM     21  S   UNL     1       3.190   6.879  19.375  0.00  0.00    +0.000 S 
BRANCH  21  22
ATOM     22  C   UNL     1       1.934   8.063  18.708  0.00  0.00    +0.000 C 
BRANCH  22  23
ATOM     23  C   UNL     1       1.136   8.854  19.734  0.00  0.00    +0.000 C 
BRANCH  23  24
ATOM     24  S   UNL     1       1.028  10.572  19.261  0.00  0.00    +0.000 S 
ATOM     25  O   UNL     1       1.152  11.391  20.448  0.00  0.00    +0.000 OA
ATOM     26  O   UNL     1       1.899  10.769  18.117  0.00  0.00    +0.000 OA
BRANCH  24  27
ATOM     27  C   UNL     1      -0.653  10.735  18.690  0.00  0.00    +0.000 A 
ATOM     28  C   UNL     1      -1.092   9.928  17.636  0.00  0.00    +0.000 A 
ATOM     29  C   UNL     1      -2.393  10.075  17.150  0.00  0.00    +0.000 A 
ATOM     30  C   UNL     1      -3.249  11.014  17.728  0.00  0.00    +0.000 A 
ATOM     31 CL   UNL     1      -4.839  11.214  17.106  0.00  0.00    +0.000 Cl
ATOM     32  C   UNL     1      -2.820  11.794  18.804  0.00  0.00    +0.000 A 
ATOM     33  C   UNL     1      -1.517  11.655  19.292  0.00  0.00    +0.000 A 
ENDBRANCH  24  27
ENDBRANCH  23  24
ENDBRANCH  22  23
ENDBRANCH  21  22
ENDBRANCH   6  21
TORSDOF 9
ENDMDL
MODEL 3
REMARK VINA RESULT:      -8.2      1.979      2.239
REMARK  Name = 
REMARK  9 active torsions:
REMARK  status: ('A' for Active; 'I' for Inactive)
REMARK    1  A    between atoms: C_2  and  O_3
REMARK    2  A    between atoms: C_2  and  C_4
REMARK    3  A    between atoms: C_9  and  C_10
REMARK    4  A    between atoms: N_12  and  C_13
REMARK    5  A    between atoms: C_18  and  S_19
REMARK    6  A    between atoms: S_19  and  C_20
REMARK    7  A    between atoms: C_20  and  C_21
REMARK    8  A    between atoms: C_21  and  S_22
REMARK    9  A    between atoms: S_22  and  C_25
REMARK                            x       y       z     vdW  Elec       q    Type
REMARK                         _______ _______ _______ _____ _____    ______ ____
ROOT
ATOM      1  C   UNL     1       2.623   4.110  18.566  0.00  0.00    +0.000 A 
ATOM      2  C   UNL     1       2.286   2.774  18.837  0.00  0.00    +0.000 A 
ATOM      3  C   UNL     1       1.485   2.439  19.931  0.00  0.00    +0.000 A 
ATOM      4  C   UNL     1       1.073   3.430  20.811  0.00  0.00    +0.000 A 
ATOM      5  C   UNL     1       1.423   4.754  20.564  0.00  0.00    +0.000 A 
ATOM      6  C   UNL     1       2.108   5.126  19.397  0.00  0.00    +0.000 A 
ENDROOT
BRANCH   1   9
ATOM      7  C   UNL     1       4.853   4.365  17.532  0.00  0.00    +0.000 C 
ATOM      8  O   UNL     1       5.515   4.106  18.533  0.00  0.00    +0.000 OA
ATOM      9  N   UNL     1       3.466   4.424  17.463  0.00  0.00    +0.000 N 
ATOM     10  H   UNL     1       3.048   4.983  16.726  0.00  0.00    +0.000 HD
BRANCH   7  16
ATOM     11  C   UNL     1       6.727   5.488  16.225  0.00  0.00    +0.000 A 
ATOM     12  C   UNL     1       7.467   5.557  15.027  0.00  0.00    +0.000 A 
ATOM     13  C   UNL     1       7.119   4.789  13.915  0.00  0.00    +0.000 A 
ATOM     14  C   UNL     1       6.013   3.949  13.977  0.00  0.00    +0.000 A 
ATOM     15  C   UNL     1       5.266   3.866  15.155  0.00  0.00    +0.000 A 
ATOM     16  C   UNL     1       5.609   4.631  16.286  0.00  0.00    +0.000 A 
BRANCH  11  18
ATOM     17  O   UNL     1       7.117   7.645  17.097  0.00  0.00    +0.000 OA
ATOM     18  C   UNL     1       7.184   6.434  17.287  0.00  0.00    +0.000 C 
BRANCH  18  19
ATOM     19  O   UNL     1       7.778   5.918  18.365  0.00  0.00    +0.000 OA
ATOM     20  H   UNL     1       8.697   5.578  18.239  0.00  0.00    +0.000 HD
ENDBRANCH  18  19
ENDBRANCH  11  18
ENDBRANCH   7  16
ENDBRANCH   1   9
BRANCH   6  21
ATOM     21  S   UNL     1       2.429   6.872  19.138  0.00  0.00    +0.000 S 
BRANCH  21  22
ATOM     22  C   UNL     1       1.849   7.634  20.721  0.00  0.00    +0.000 C 
BRANCH  22  23
ATOM     23  C   UNL     1       1.067   8.934  20.601  0.00  0.00    +0.000 C 
BRANCH  23  24
ATOM     24  S   UNL     1       0.227   9.309  22.130  0.00  0.00    +0.000 S 
ATOM     25  O   UNL     1      -0.775   8.293  22.374  0.00  0.00    +0.000 OA
ATOM     26  O   UNL     1       1.239   9.620  23.123  0.00  0.00    +0.000 OA
BRANCH  24  27
ATOM     27  C   UNL     1      -0.645  10.820  21.759  0.00  0.00    +0.000 A 
ATOM     28  C   UNL     1      -1.287  11.503  22.797  0.00  0.00    +0.000 A 
ATOM     29  C   UNL     1      -2.009  12.665  22.514  0.00  0.00    +0.000 A 
ATOM     30  C   UNL     1      -2.072  13.142  21.204  0.00  0.00    +0.000 A 
ATOM     31 CL   UNL     1      -2.988  14.555  20.854  0.00  0.00    +0.000 Cl
ATOM     32  C   UNL     1      -1.400  12.478  20.175  0.00  0.00    +0.000 A 
ATOM     33  C   UNL     1      -0.680  11.311  20.451  0.00  0.00    +0.000 A 
ENDBRANCH  24  27
ENDBRANCH  23  24
ENDBRANCH  22  23
ENDBRANCH  21  22
ENDBRANCH   6  21
TORSDOF 9
ENDMDL
MODEL 4
REMARK VINA RESULT:      -8.0      1.018      1.068
REMARK  Name = 
REMARK  9 active torsions:
REMARK  status: ('A' for Active; 'I' for Inactive)
REMARK    1  A    between atoms: C_2  and  O_3
REMARK    2  A    between atoms: C_2  and  C_4
REMARK    3  A    between atoms: C_9  and  C_10
REMARK    4  A    between atoms: N_12  and  C_13
REMARK    5  A    between atoms: C_18  and  S_19
REMARK    6  A    between atoms: S_19  and  C_20
REMARK    7  A    between atoms: C_20  and  C_21
REMARK    8  A    between atoms: C_21  and  S_22
REMARK    9  A    between atoms: S_22  and  C_25
REMARK                            x       y       z     vdW  Elec       q    Type
REMARK                         _______ _______ _______ _____ _____    ______ ____
ROOT
ATOM      1  C   UNL     1       2.984   4.218  19.049  0.00  0.00    +0.000 A 
ATOM      2  C   UNL     1       2.839   2.902  19.516  0.00  0.00    +0.000 A 
ATOM      3  C   UNL     1       2.125   2.624  20.683  0.00  0.00    +0.000 A 
ATOM      4  C   UNL     1       1.610   3.667  21.439  0.00  0.00    +0.000 A 
ATOM      5  C   UNL     1       1.768   4.978  20.997  0.00  0.00    +0.000 A 
ATOM      6  C   UNL     1       2.361   5.266  19.758  0.00  0.00    +0.000 A 
ENDROOT
BRANCH   1   9
ATOM      7  C   UNL     1       5.130   4.405  17.837  0.00  0.00    +0.000 C 
ATOM      8  O   UNL     1       5.864   4.175  18.794  0.00  0.00    +0.000 OA
ATOM      9  N   UNL     1       3.742   4.480  17.873  0.00  0.00    +0.000 N 
ATOM     10  H   UNL     1       3.274   5.016  17.150  0.00  0.00    +0.000 HD
BRANCH   7  16
ATOM     11  C   UNL     1       6.856   5.516  16.332  0.00  0.00    +0.000 A 
ATOM     12  C   UNL     1       7.513   5.531  15.085  0.00  0.00    +0.000 A 
ATOM     13  C   UNL     1       7.135   4.669  14.055  0.00  0.00    +0.000 A 
ATOM     14  C   UNL     1       6.080   3.784  14.250  0.00  0.00    +0.000 A 
ATOM     15  C   UNL     1       5.415   3.753  15.479  0.00  0.00    +0.000 A 
ATOM     16  C   UNL     1       5.789   4.614  16.528  0.00  0.00    +0.000 A 
BRANCH  11  18
ATOM     17  O   UNL     1       7.305   7.741  16.971  0.00  0.00    +0.000 OA
ATOM     18  C   UNL     1       7.331   6.557  17.292  0.00  0.00    +0.000 C 
BRANCH  18  19
ATOM     19  O   UNL     1       7.894   6.144  18.429  0.00  0.00    +0.000 OA
ATOM     20  H   UNL     1       7.443   6.414  19.265  0.00  0.00    +0.000 HD
ENDBRANCH  18  19
ENDBRANCH  11  18
ENDBRANCH   7  16
ENDBRANCH   1   9
BRANCH   6  21
ATOM     21  S   UNL     1       2.434   6.985  19.247  0.00  0.00    +0.000 S 
BRANCH  21  22
ATOM     22  C   UNL     1       1.718   7.875  20.703  0.00  0.00    +0.000 C 
BRANCH  22  23
ATOM     23  C   UNL     1       0.424   8.637  20.462  0.00  0.00    +0.000 C 
BRANCH  23  24
ATOM     24  S   UNL     1       0.755  10.221  19.709  0.00  0.00    +0.000 S 
ATOM     25  O   UNL     1       1.038  11.183  20.753  0.00  0.00    +0.000 OA
ATOM     26  O   UNL     1       1.684  10.003  18.615  0.00  0.00    +0.000 OA
BRANCH  24  27
ATOM     27  C   UNL     1      -0.816  10.674  18.998  0.00  0.00    +0.000 A 
ATOM     28  C   UNL     1      -1.581  11.666  19.619  0.00  0.00    +0.000 A 
ATOM     29  C   UNL     1      -2.833  12.000  19.097  0.00  0.00    +0.000 A 
ATOM     30  C   UNL     1      -3.304  11.353  17.954  0.00  0.00    +0.000 A 
ATOM     31 CL   UNL     1      -4.858  11.745  17.332  0.00  0.00    +0.000 Cl
ATOM     32  C   UNL     1      -2.523  10.388  17.314  0.00  0.00    +0.000 A 
ATOM     33  C   UNL     1      -1.271  10.045  17.835  0.00  0.00    +0.000 A 
ENDBRANCH  24  27
ENDBRANCH  23  24
ENDBRANCH  22  23
ENDBRANCH  21  22
ENDBRANCH   6  21
TORSDOF 9
ENDMDL
MODEL 5
REMARK VINA RESULT:      -8.0      2.503      2.882
REMARK  Name = 
REMARK  9 active torsions:
REMARK  status: ('A' for Active; 'I' for Inactive)
REMARK    1  A    between atoms: C_2  and  O_3
REMARK    2  A    between atoms: C_2  and  C_4
REMARK    3  A    between atoms: C_9  and  C_10
REMARK    4  A    between atoms: N_12  and  C_13
REMARK    5  A    between atoms: C_18  and  S_19
REMARK    6  A    between atoms: S_19  and  C_20
REMARK    7  A    between atoms: C_20  and  C_21
REMARK    8  A    between atoms: C_21  and  S_22
REMARK    9  A    between atoms: S_22  and  C_25
REMARK                            x       y       z     vdW  Elec       q    Type
REMARK                         _______ _______ _______ _____ _____    ______ ____
ROOT
ATOM      1  C   UNL     1       2.493   4.209  18.211  0.00  0.00    +0.000 A 
ATOM      2  C   UNL     1       1.849   2.964  18.278  0.00  0.00    +0.000 A 
ATOM      3  C   UNL     1       0.991   2.650  19.334  0.00  0.00    +0.000 A 
ATOM      4  C   UNL     1       0.826   3.550  20.377  0.00  0.00    +0.000 A 
ATOM      5  C   UNL     1       1.480   4.778  20.332  0.00  0.00    +0.000 A 
ATOM      6  C   UNL     1       2.234   5.166  19.214  0.00  0.00    +0.000 A 
ENDROOT
BRANCH   1   9
ATOM      7  C   UNL     1       4.755   4.262  17.217  0.00  0.00    +0.000 C 
ATOM      8  O   UNL     1       5.363   3.855  18.203  0.00  0.00    +0.000 OA
ATOM      9  N   UNL     1       3.386   4.495  17.141  0.00  0.00    +0.000 N 
ATOM     10  H   UNL     1       3.052   5.151  16.443  0.00  0.00    +0.000 HD
BRANCH   7  16
ATOM     11  C   UNL     1       6.715   5.328  15.992  0.00  0.00    +0.000 A 
ATOM     12  C   UNL     1       7.493   5.389  14.817  0.00  0.00    +0.000 A 
ATOM     13  C   UNL     1       7.144   4.662  13.678  0.00  0.00    +0.000 A 
ATOM     14  C   UNL     1       6.001   3.872  13.689  0.00  0.00    +0.000 A 
ATOM     15  C   UNL     1       5.215   3.798  14.842  0.00  0.00    +0.000 A 
ATOM     16  C   UNL     1       5.558   4.521  16.000  0.00  0.00    +0.000 A 
BRANCH  11  18
ATOM     17  O   UNL     1       7.181   7.444  16.923  0.00  0.00    +0.000 OA
ATOM     18  C   UNL     1       7.182   6.228  17.088  0.00  0.00    +0.000 C 
BRANCH  18  19
ATOM     19  O   UNL     1       7.714   5.662  18.173  0.00  0.00    +0.000 OA
ATOM     20  H   UNL     1       8.641   5.330  18.085  0.00  0.00    +0.000 HD
ENDBRANCH  18  19
ENDBRANCH  11  18
ENDBRANCH   7  16
ENDBRANCH   1   9
BRANCH   6  21
ATOM     21  S   UNL     1       2.960   6.807  19.225  0.00  0.00    +0.000 S 
BRANCH  21  22
ATOM     22  C   UNL     1       1.914   7.725  18.005  0.00  0.00    +0.000 C 
BRANCH  22  23
ATOM     23  C   UNL     1       2.098   9.234  17.956  0.00  0.00    +0.000 C 
BRANCH  23  24
ATOM     24  S   UNL     1       0.823  10.057  18.896  0.00  0.00    +0.000 S 
ATOM     25  O   UNL     1      -0.334  10.245  18.048  0.00  0.00    +0.000 OA
ATOM     26  O   UNL     1       0.716   9.382  20.177  0.00  0.00    +0.000 OA
BRANCH  24  27
ATOM     27  C   UNL     1       1.515  11.673  19.198  0.00  0.00    +0.000 A 
ATOM     28  C   UNL     1       1.288  12.286  20.434  0.00  0.00    +0.000 A 
ATOM     29  C   UNL     1       1.788  13.570  20.669  0.00  0.00    +0.000 A 
ATOM     30  C   UNL     1       2.519  14.223  19.676  0.00  0.00    +0.000 A 
ATOM     31 CL   UNL     1       3.105  15.815  19.956  0.00  0.00    +0.000 Cl
ATOM     32  C   UNL     1       2.774  13.594  18.455  0.00  0.00    +0.000 A 
ATOM     33  C   UNL     1       2.273  12.312  18.212  0.00  0.00    +0.000 A 
ENDBRANCH  24  27
ENDBRANCH  23  24
ENDBRANCH  22  23
ENDBRANCH  21  22
ENDBRANCH   6  21
TORSDOF 9
ENDMDL
MODEL 6
REMARK VINA RESULT:      -7.9      1.961      2.411
REMARK  Name = 
REMARK  9 active torsions:
REMARK  status: ('A' for Active; 'I' for Inactive)
REMARK    1  A    between atoms: C_2  and  O_3
REMARK    2  A    between atoms: C_2  and  C_4
REMARK    3  A    between atoms: C_9  and  C_10
REMARK    4  A    between atoms: N_12  and  C_13
REMARK    5  A    between atoms: C_18  and  S_19
REMARK    6  A    between atoms: S_19  and  C_20
REMARK    7  A    between atoms: C_20  and  C_21
REMARK    8  A    between atoms: C_21  and  S_22
REMARK    9  A    between atoms: S_22  and  C_25
REMARK                            x       y       z     vdW  Elec       q    Type
REMARK                         _______ _______ _______ _____ _____    ______ ____
ROOT
ATOM      1  C   UNL     1       2.355   4.170  18.318  0.00  0.00    +0.000 A 
ATOM      2  C   UNL     1       1.619   2.976  18.251  0.00  0.00    +0.000 A 
ATOM      3  C   UNL     1       0.709   2.631  19.253  0.00  0.00    +0.000 A 
ATOM      4  C   UNL     1       0.579   3.441  20.372  0.00  0.00    +0.000 A 
ATOM      5  C   UNL     1       1.321   4.615  20.459  0.00  0.00    +0.000 A 
ATOM      6  C   UNL     1       2.135   5.047  19.401  0.00  0.00    +0.000 A 
ENDROOT
BRANCH   1   9
ATOM      7  C   UNL     1       4.641   4.135  17.382  0.00  0.00    +0.000 C 
ATOM      8  O   UNL     1       5.187   3.584  18.334  0.00  0.00    +0.000 OA
ATOM      9  N   UNL     1       3.298   4.486  17.301  0.00  0.00    +0.000 N 
ATOM     10  H   UNL     1       3.037   5.233  16.666  0.00  0.00    +0.000 HD
BRANCH   7  16
ATOM     11  C   UNL     1       6.787   5.006  16.325  0.00  0.00    +0.000 A 
ATOM     12  C   UNL     1       7.580   5.124  15.165  0.00  0.00    +0.000 A 
ATOM     13  C   UNL     1       7.116   4.689  13.923  0.00  0.00    +0.000 A 
ATOM     14  C   UNL     1       5.843   4.141  13.817  0.00  0.00    +0.000 A 
ATOM     15  C   UNL     1       5.041   4.016  14.954  0.00  0.00    +0.000 A 
ATOM     16  C   UNL     1       5.497   4.446  16.214  0.00  0.00    +0.000 A 
BRANCH  11  18
ATOM     17  O   UNL     1       7.570   6.808  17.631  0.00  0.00    +0.000 OA
ATOM     18  C   UNL     1       7.401   5.594  17.553  0.00  0.00    +0.000 C 
BRANCH  18  19
ATOM     19  O   UNL     1       7.868   4.754  18.479  0.00  0.00    +0.000 OA
ATOM     20  H   UNL     1       8.643   5.068  19.004  0.00  0.00    +0.000 HD
ENDBRANCH  18  19
ENDBRANCH  11  18
ENDBRANCH   7  16
ENDBRANCH   1   9
BRANCH   6  21
ATOM     21  S   UNL     1       2.978   6.621  19.584  0.00  0.00    +0.000 S 
BRANCH  21  22
ATOM     22  C   UNL     1       1.673   7.842  19.103  0.00  0.00    +0.000 C 
BRANCH  22  23
ATOM     23  C   UNL     1       1.332   8.909  20.131  0.00  0.00    +0.000 C 
BRANCH  23  24
ATOM     24  S   UNL     1       0.578  10.324  19.348  0.00  0.00    +0.000 S 
ATOM     25  O   UNL     1       1.602  11.313  19.085  0.00  0.00    +0.000 OA
ATOM     26  O   UNL     1      -0.282   9.832  18.287  0.00  0.00    +0.000 OA
BRANCH  24  27
ATOM     27  C   UNL     1      -0.472  10.990  20.625  0.00  0.00    +0.000 A 
ATOM     28  C   UNL     1      -0.321  10.526  21.936  0.00  0.00    +0.000 A 
ATOM     29  C   UNL     1      -1.166  11.008  22.939  0.00  0.00    +0.000 A 
ATOM     30  C   UNL     1      -2.142  11.956  22.630  0.00  0.00    +0.000 A 
ATOM     31 CL   UNL     1      -3.200  12.523  23.860  0.00  0.00    +0.000 Cl
ATOM     32  C   UNL     1      -2.267  12.445  21.327  0.00  0.00    +0.000 A 
ATOM     33  C   UNL     1      -1.428  11.963  20.318  0.00  0.00    +0.000 A 
ENDBRANCH  24  27
ENDBRANCH  23  24
ENDBRANCH  22  23
ENDBRANCH  21  22
ENDBRANCH   6  21
TORSDOF 9
ENDMDL
MODEL 7
REMARK VINA RESULT:      -7.8      2.266      2.812
REMARK  Name = 
REMARK  9 active torsions:
REMARK  status: ('A' for Active; 'I' for Inactive)
REMARK    1  A    between atoms: C_2  and  O_3
REMARK    2  A    between atoms: C_2  and  C_4
REMARK    3  A    between atoms: C_9  and  C_10
REMARK    4  A    between atoms: N_12  and  C_13
REMARK    5  A    between atoms: C_18  and  S_19
REMARK    6  A    between atoms: S_19  and  C_20
REMARK    7  A    between atoms: C_20  and  C_21
REMARK    8  A    between atoms: C_21  and  S_22
REMARK    9  A    between atoms: S_22  and  C_25
REMARK                            x       y       z     vdW  Elec       q    Type
REMARK                         _______ _______ _______ _____ _____    ______ ____
ROOT
ATOM      1  C   UNL     1       2.481   4.292  18.240  0.00  0.00    +0.000 A 
ATOM      2  C   UNL     1       1.822   3.053  18.294  0.00  0.00    +0.000 A 
ATOM      3  C   UNL     1       0.956   2.740  19.344  0.00  0.00    +0.000 A 
ATOM      4  C   UNL     1       0.797   3.634  20.393  0.00  0.00    +0.000 A 
ATOM      5  C   UNL     1       1.465   4.855  20.361  0.00  0.00    +0.000 A 
ATOM      6  C   UNL     1       2.228   5.243  19.249  0.00  0.00    +0.000 A 
ENDROOT
BRANCH   1   9
ATOM      7  C   UNL     1       4.733   4.252  17.224  0.00  0.00    +0.000 C 
ATOM      8  O   UNL     1       5.322   3.754  18.179  0.00  0.00    +0.000 OA
ATOM      9  N   UNL     1       3.382   4.576  17.176  0.00  0.00    +0.000 N 
ATOM     10  H   UNL     1       3.085   5.288  16.517  0.00  0.00    +0.000 HD
BRANCH   7  16
ATOM     11  C   UNL     1       6.688   5.344  16.013  0.00  0.00    +0.000 A 
ATOM     12  C   UNL     1       7.473   5.417  14.844  0.00  0.00    +0.000 A 
ATOM     13  C   UNL     1       7.142   4.687  13.702  0.00  0.00    +0.000 A 
ATOM     14  C   UNL     1       6.009   3.881  13.704  0.00  0.00    +0.000 A 
ATOM     15  C   UNL     1       5.217   3.795  14.851  0.00  0.00    +0.000 A 
ATOM     16  C   UNL     1       5.542   4.522  16.013  0.00  0.00    +0.000 A 
BRANCH  11  18
ATOM     17  O   UNL     1       7.702   5.782  18.097  0.00  0.00    +0.000 OA
ATOM     18  C   UNL     1       7.135   6.249  17.114  0.00  0.00    +0.000 C 
BRANCH  18  19
ATOM     19  O   UNL     1       6.781   7.534  17.045  0.00  0.00    +0.000 OA
ATOM     20  H   UNL     1       7.518   8.192  17.029  0.00  0.00    +0.000 HD
ENDBRANCH  18  19
ENDBRANCH  11  18
ENDBRANCH   7  16
ENDBRANCH   1   9
BRANCH   6  21
ATOM     21  S   UNL     1       2.973   6.876  19.276  0.00  0.00    +0.000 S 
BRANCH  21  22
ATOM     22  C   UNL     1       2.026   7.779  17.967  0.00  0.00    +0.000 C 
BRANCH  22  23
ATOM     23  C   UNL     1       2.149   9.295  17.966  0.00  0.00    +0.000 C 
BRANCH  23  24
ATOM     24  S   UNL     1       0.714  10.046  18.716  0.00  0.00    +0.000 S 
ATOM     25  O   UNL     1      -0.399   9.948  17.795  0.00  0.00    +0.000 OA
ATOM     26  O   UNL     1       0.613   9.541  20.073  0.00  0.00    +0.000 OA
BRANCH  24  27
ATOM     27  C   UNL     1       1.157  11.770  18.815  0.00  0.00    +0.000 A 
ATOM     28  C   UNL     1       2.319  12.208  18.172  0.00  0.00    +0.000 A 
ATOM     29  C   UNL     1       2.701  13.548  18.278  0.00  0.00    +0.000 A 
ATOM     30  C   UNL     1       1.915  14.439  19.009  0.00  0.00    +0.000 A 
ATOM     31 CL   UNL     1       2.405  16.080  19.163  0.00  0.00    +0.000 Cl
ATOM     32  C   UNL     1       0.736  14.007  19.620  0.00  0.00    +0.000 A 
ATOM     33  C   UNL     1       0.351  12.666  19.523  0.00  0.00    +0.000 A 
ENDBRANCH  24  27
ENDBRANCH  23  24
ENDBRANCH  22  23
ENDBRANCH  21  22
ENDBRANCH   6  21
TORSDOF 9
ENDMDL
MODEL 8
REMARK VINA RESULT:      -7.8      2.371      2.818
REMARK  Name = 
REMARK  9 active torsions:
REMARK  status: ('A' for Active; 'I' for Inactive)
REMARK    1  A    between atoms: C_2  and  O_3
REMARK    2  A    between atoms: C_2  and  C_4
REMARK    3  A    between atoms: C_9  and  C_10
REMARK    4  A    between atoms: N_12  and  C_13
REMARK    5  A    between atoms: C_18  and  S_19
REMARK    6  A    between atoms: S_19  and  C_20
REMARK    7  A    between atoms: C_20  and  C_21
REMARK    8  A    between atoms: C_21  and  S_22
REMARK    9  A    between atoms: S_22  and  C_25
REMARK                            x       y       z     vdW  Elec       q    Type
REMARK                         _______ _______ _______ _____ _____    ______ ____
ROOT
ATOM      1  C   UNL     1       2.765   4.170  18.783  0.00  0.00    +0.000 A 
ATOM      2  C   UNL     1       2.411   2.842  19.070  0.00  0.00    +0.000 A 
ATOM      3  C   UNL     1       1.643   2.525  20.192  0.00  0.00    +0.000 A 
ATOM      4  C   UNL     1       1.283   3.525  21.084  0.00  0.00    +0.000 A 
ATOM      5  C   UNL     1       1.650   4.842  20.821  0.00  0.00    +0.000 A 
ATOM      6  C   UNL     1       2.300   5.197  19.630  0.00  0.00    +0.000 A 
ENDROOT
BRANCH   1   9
ATOM      7  C   UNL     1       4.959   4.340  17.658  0.00  0.00    +0.000 C 
ATOM      8  O   UNL     1       5.650   4.030  18.625  0.00  0.00    +0.000 OA
ATOM      9  N   UNL     1       3.574   4.466  17.650  0.00  0.00    +0.000 N 
ATOM     10  H   UNL     1       3.152   5.057  16.942  0.00  0.00    +0.000 HD
BRANCH   7  16
ATOM     11  C   UNL     1       6.768   5.474  16.273  0.00  0.00    +0.000 A 
ATOM     12  C   UNL     1       7.472   5.532  15.052  0.00  0.00    +0.000 A 
ATOM     13  C   UNL     1       7.111   4.731  13.969  0.00  0.00    +0.000 A 
ATOM     14  C   UNL     1       6.028   3.867  14.082  0.00  0.00    +0.000 A 
ATOM     15  C   UNL     1       5.316   3.795  15.282  0.00  0.00    +0.000 A 
ATOM     16  C   UNL     1       5.672   4.593  16.385  0.00  0.00    +0.000 A 
BRANCH  11  18
ATOM     17  O   UNL     1       7.193   7.657  17.059  0.00  0.00    +0.000 OA
ATOM     18  C   UNL     1       7.233   6.454  17.300  0.00  0.00    +0.000 C 
BRANCH  18  19
ATOM     19  O   UNL     1       7.805   5.973  18.405  0.00  0.00    +0.000 OA
ATOM     20  H   UNL     1       8.620   5.429  18.276  0.00  0.00    +0.000 HD
ENDBRANCH  18  19
ENDBRANCH  11  18
ENDBRANCH   7  16
ENDBRANCH   1   9
BRANCH   6  21
ATOM     21  S   UNL     1       2.647   6.937  19.354  0.00  0.00    +0.000 S 
BRANCH  21  22
ATOM     22  C   UNL     1       1.392   7.777  20.424  0.00  0.00    +0.000 C 
BRANCH  22  23
ATOM     23  C   UNL     1       1.434   9.298  20.451  0.00  0.00    +0.000 C 
BRANCH  23  24
ATOM     24  S   UNL     1       0.477   9.980  19.108  0.00  0.00    +0.000 S 
ATOM     25  O   UNL     1       0.890   9.350  17.872  0.00  0.00    +0.000 OA
ATOM     26  O   UNL     1      -0.915   9.987  19.519  0.00  0.00    +0.000 OA
BRANCH  24  27
ATOM     27  C   UNL     1       1.023  11.676  19.035  0.00  0.00    +0.000 A 
ATOM     28  C   UNL     1       2.176  11.985  18.306  0.00  0.00    +0.000 A 
ATOM     29  C   UNL     1       2.639  13.303  18.275  0.00  0.00    +0.000 A 
ATOM     30  C   UNL     1       1.943  14.300  18.959  0.00  0.00    +0.000 A 
ATOM     31 CL   UNL     1       2.534  15.915  18.945  0.00  0.00    +0.000 Cl
ATOM     32  C   UNL     1       0.772  13.995  19.657  0.00  0.00    +0.000 A 
ATOM     33  C   UNL     1       0.306  12.677  19.695  0.00  0.00    +0.000 A 
ENDBRANCH  24  27
ENDBRANCH  23  24
ENDBRANCH  22  23
ENDBRANCH  21  22
ENDBRANCH   6  21
TORSDOF 9
ENDMDL
MODEL 9
REMARK VINA RESULT:      -7.8      2.158      2.411
REMARK  Name = 
REMARK  9 active torsions:
REMARK  status: ('A' for Active; 'I' for Inactive)
REMARK    1  A    between atoms: C_2  and  O_3
REMARK    2  A    between atoms: C_2  and  C_4
REMARK    3  A    between atoms: C_9  and  C_10
REMARK    4  A    between atoms: N_12  and  C_13
REMARK    5  A    between atoms: C_18  and  S_19
REMARK    6  A    between atoms: S_19  and  C_20
REMARK    7  A    between atoms: C_20  and  C_21
REMARK    8  A    between atoms: C_21  and  S_22
REMARK    9  A    between atoms: S_22  and  C_25
REMARK                            x       y       z     vdW  Elec       q    Type
REMARK                         _______ _______ _______ _____ _____    ______ ____
ROOT
ATOM      1  C   UNL     1       2.526   4.145  18.344  0.00  0.00    +0.000 A 
ATOM      2  C   UNL     1       2.020   2.842  18.472  0.00  0.00    +0.000 A 
ATOM      3  C   UNL     1       1.177   2.494  19.530  0.00  0.00    +0.000 A 
ATOM      4  C   UNL     1       0.890   3.427  20.515  0.00  0.00    +0.000 A 
ATOM      5  C   UNL     1       1.407   4.716  20.411  0.00  0.00    +0.000 A 
ATOM      6  C   UNL     1       2.140   5.122  19.285  0.00  0.00    +0.000 A 
ENDROOT
BRANCH   1   9
ATOM      7  C   UNL     1       4.788   4.322  17.363  0.00  0.00    +0.000 C 
ATOM      8  O   UNL     1       5.413   3.969  18.360  0.00  0.00    +0.000 OA
ATOM      9  N   UNL     1       3.408   4.468  17.275  0.00  0.00    +0.000 N 
ATOM     10  H   UNL     1       3.038   5.090  16.564  0.00  0.00    +0.000 HD
BRANCH   7  16
ATOM     11  C   UNL     1       6.720   5.443  16.144  0.00  0.00    +0.000 A 
ATOM     12  C   UNL     1       7.494   5.532  14.968  0.00  0.00    +0.000 A 
ATOM     13  C   UNL     1       7.159   4.807  13.824  0.00  0.00    +0.000 A 
ATOM     14  C   UNL     1       6.035   3.990  13.830  0.00  0.00    +0.000 A 
ATOM     15  C   UNL     1       5.254   3.888  14.984  0.00  0.00    +0.000 A 
ATOM     16  C   UNL     1       5.582   4.609  16.147  0.00  0.00    +0.000 A 
BRANCH  11  18
ATOM     17  O   UNL     1       7.076   7.562  17.116  0.00  0.00    +0.000 OA
ATOM     18  C   UNL     1       7.168   6.345  17.246  0.00  0.00    +0.000 C 
BRANCH  18  19
ATOM     19  O   UNL     1       7.780   5.789  18.294  0.00  0.00    +0.000 OA
ATOM     20  H   UNL     1       8.194   6.411  18.940  0.00  0.00    +0.000 HD
ENDBRANCH  18  19
ENDBRANCH  11  18
ENDBRANCH   7  16
ENDBRANCH   1   9
BRANCH   6  21
ATOM     21  S   UNL     1       2.682   6.831  19.214  0.00  0.00    +0.000 S 
BRANCH  21  22
ATOM     22  C   UNL     1       1.932   7.562  20.740  0.00  0.00    +0.000 C 
BRANCH  22  23
ATOM     23  C   UNL     1       0.715   8.452  20.538  0.00  0.00    +0.000 C 
BRANCH  23  24
ATOM     24  S   UNL     1       0.503   9.557  21.924  0.00  0.00    +0.000 S 
ATOM     25  O   UNL     1      -0.713   9.199  22.623  0.00  0.00    +0.000 OA
ATOM     26  O   UNL     1       1.774   9.638  22.619  0.00  0.00    +0.000 OA
BRANCH  24  27
ATOM     27  C   UNL     1       0.212  11.136  21.149  0.00  0.00    +0.000 A 
ATOM     28  C   UNL     1       0.574  11.310  19.809  0.00  0.00    +0.000 A 
ATOM     29  C   UNL     1       0.392  12.555  19.202  0.00  0.00    +0.000 A 
ATOM     30  C   UNL     1      -0.162  13.609  19.931  0.00  0.00    +0.000 A 
ATOM     31 CL   UNL     1      -0.356  15.148  19.189  0.00  0.00    +0.000 Cl
ATOM     32  C   UNL     1      -0.555  13.423  21.257  0.00  0.00    +0.000 A 
ATOM     33  C   UNL     1      -0.371  12.180  21.872  0.00  0.00    +0.000 A 
ENDBRANCH  24  27
ENDBRANCH  23  24
ENDBRANCH  22  23
ENDBRANCH  21  22
ENDBRANCH   6  21
TORSDOF 9
ENDMDL
