MODEL 1
REMARK VINA RESULT:      -8.2      0.000      0.000
REMARK  Name = 
REMARK  10 active torsions:
REMARK  status: ('A' for Active; 'I' for Inactive)
REMARK    1  A    between atoms: C_1  and  O_2
REMARK    2  A    between atoms: O_2  and  C_3
REMARK    3  A    between atoms: C_6  and  N_7
REMARK    4  A    between atoms: N_7  and  C_8
REMARK    5  A    between atoms: C_8  and  N_10
REMARK    6  A    between atoms: C_12  and  C_13
REMARK    7  A    between atoms: C_16  and  O_17
REMARK    8  A    between atoms: O_17  and  C_18
REMARK    9  A    between atoms: C_20  and  O_21
REMARK   10  A    between atoms: C_23  and  C_24
REMARK                            x       y       z     vdW  Elec       q    Type
REMARK                         _______ _______ _______ _____ _____    ______ ____
ROOT
ATOM      1  N   UNL     1       4.111   6.395  17.489  0.00  0.00    +0.000 N 
ATOM      2  N   UNL     1       3.759   7.541  18.152  0.00  0.00    +0.000 NA
ATOM      3  C   UNL     1       2.498   7.463  18.449  0.00  0.00    +0.000 C 
ATOM      4  C   UNL     1       1.816   6.196  17.997  0.00  0.00    +0.000 C 
ATOM      5  C   UNL     1       2.977   5.445  17.342  0.00  0.00    +0.000 C 
ENDROOT
BRANCH   5   6
ATOM      6  C   UNL     1       3.246   4.078  17.991  0.00  0.00    +0.000 A 
ATOM      7  C   UNL     1       3.625   3.004  17.158  0.00  0.00    +0.000 A 
ATOM      8  C   UNL     1       3.718   1.705  17.648  0.00  0.00    +0.000 A 
ATOM      9  C   UNL     1       3.344   1.439  18.960  0.00  0.00    +0.000 A 
ATOM     10  C   UNL     1       2.922   2.470  19.806  0.00  0.00    +0.000 A 
ATOM     11  C   UNL     1       2.395   2.146  21.067  0.00  0.00    +0.000 A 
ATOM     12  C   UNL     1       1.975   3.139  21.944  0.00  0.00    +0.000 A 
ATOM     13  C   UNL     1       2.213   4.466  21.625  0.00  0.00    +0.000 A 
ATOM     14  C   UNL     1       2.709   4.802  20.359  0.00  0.00    +0.000 A 
ATOM     15  C   UNL     1       2.973   3.819  19.374  0.00  0.00    +0.000 A 
ENDBRANCH   5   6
BRANCH   3  16
ATOM     16  C   UNL     1       1.820   8.529  19.226  0.00  0.00    +0.000 A 
ATOM     17  C   UNL     1       1.465   8.246  20.555  0.00  0.00    +0.000 A 
ATOM     18  C   UNL     1       0.757   9.182  21.314  0.00  0.00    +0.000 A 
ATOM     19  C   UNL     1       0.380  10.399  20.764  0.00  0.00    +0.000 A 
ATOM     20  C   UNL     1       0.737  10.690  19.443  0.00  0.00    +0.000 A 
ATOM     21  C   UNL     1       1.457   9.761  18.685  0.00  0.00    +0.000 A 
BRANCH  19  22
ATOM     22  O   UNL     1      -0.324  11.222  21.598  0.00  0.00    +0.000 OA
ATOM     23  C   UNL     1      -0.816  10.654  22.804  0.00  0.00    +0.000 C 
ENDBRANCH  19  22
BRANCH  21  24
ATOM     24  O   UNL     1       1.793  10.090  17.397  0.00  0.00    +0.000 OA
ATOM     25  H   UNL     1       2.626  10.570  17.393  0.00  0.00    +0.000 HD
ENDBRANCH  21  24
ENDBRANCH   3  16
BRANCH   1  26
ATOM     26  C   UNL     1       5.451   6.084  17.337  0.00  0.00    +0.000 C 
ATOM     27  S   UNL     1       6.346   5.223  18.474  0.00  0.00    +0.000 S 
BRANCH  26  28
ATOM     28  N   UNL     1       6.036   6.362  16.128  0.00  0.00    +0.000 N 
ATOM     29  H   UNL     1       6.248   7.340  15.977  0.00  0.00    +0.000 HD
BRANCH  28  33
ATOM     30  C   UNL     1       6.493   3.713  12.874  0.00  0.00    +0.000 A 
ATOM     31  C   UNL     1       7.514   4.613  13.181  0.00  0.00    +0.000 A 
ATOM     32  C   UNL     1       7.390   5.486  14.269  0.00  0.00    +0.000 A 
ATOM     33  C   UNL     1       6.236   5.473  15.056  0.00  0.00    +0.000 A 
ATOM     34  C   UNL     1       5.241   4.537  14.780  0.00  0.00    +0.000 A 
ATOM     35  C   UNL     1       5.349   3.690  13.670  0.00  0.00    +0.000 A 
BRANCH  30  37
ATOM     36  C   UNL     1       5.614   2.057  11.434  0.00  0.00    +0.000 C 
ATOM     37  O   UNL     1       6.694   2.925  11.773  0.00  0.00    +0.000 OA
ENDBRANCH  30  37
ENDBRANCH  28  33
ENDBRANCH  26  28
ENDBRANCH   1  26
TORSDOF 8
ENDMDL
MODEL 2
REMARK VINA RESULT:      -8.0      4.695     11.704
REMARK  Name = 
REMARK  10 active torsions:
REMARK  status: ('A' for Active; 'I' for Inactive)
REMARK    1  A    between atoms: C_1  and  O_2
REMARK    2  A    between atoms: O_2  and  C_3
REMARK    3  A    between atoms: C_6  and  N_7
REMARK    4  A    between atoms: N_7  and  C_8
REMARK    5  A    between atoms: C_8  and  N_10
REMARK    6  A    between atoms: C_12  and  C_13
REMARK    7  A    between atoms: C_16  and  O_17
REMARK    8  A    between atoms: O_17  and  C_18
REMARK    9  A    between atoms: C_20  and  O_21
REMARK   10  A    between atoms: C_23  and  C_24
REMARK                            x       y       z     vdW  Elec       q    Type
REMARK                         _______ _______ _______ _____ _____    ______ ____
ROOT
ATOM      1  N   UNL     1       0.302  12.356  20.691  0.00  0.00    +0.000 N 
ATOM      2  N   UNL     1       1.114  11.523  19.968  0.00  0.00    +0.000 NA
ATOM      3  C   UNL     1       0.767  10.300  20.224  0.00  0.00    +0.000 C 
ATOM      4  C   UNL     1      -0.374  10.153  21.201  0.00  0.00    +0.000 C 
ATOM      5  C   UNL     1      -0.704  11.616  21.499  0.00  0.00    +0.000 C 
ENDROOT
BRANCH   5   6
ATOM      6  C   UNL     1      -2.153  11.987  21.146  0.00  0.00    +0.000 A 
ATOM      7  C   UNL     1      -2.495  12.134  19.785  0.00  0.00    +0.000 A 
ATOM      8  C   UNL     1      -3.736  12.632  19.399  0.00  0.00    +0.000 A 
ATOM      9  C   UNL     1      -4.626  13.079  20.368  0.00  0.00    +0.000 A 
ATOM     10  C   UNL     1      -4.308  12.990  21.727  0.00  0.00    +0.000 A 
ATOM     11  C   UNL     1      -5.153  13.600  22.669  0.00  0.00    +0.000 A 
ATOM     12  C   UNL     1      -4.881  13.526  24.030  0.00  0.00    +0.000 A 
ATOM     13  C   UNL     1      -3.844  12.718  24.467  0.00  0.00    +0.000 A 
ATOM     14  C   UNL     1      -2.976  12.131  23.538  0.00  0.00    +0.000 A 
ATOM     15  C   UNL     1      -3.118  12.340  22.144  0.00  0.00    +0.000 A 
ENDBRANCH   5   6
BRANCH   3  16
ATOM     16  C   UNL     1       1.423   9.152  19.549  0.00  0.00    +0.000 A 
ATOM     17  C   UNL     1       1.651   7.991  20.304  0.00  0.00    +0.000 A 
ATOM     18  C   UNL     1       2.333   6.906  19.747  0.00  0.00    +0.000 A 
ATOM     19  C   UNL     1       2.807   6.962  18.445  0.00  0.00    +0.000 A 
ATOM     20  C   UNL     1       2.576   8.113  17.684  0.00  0.00    +0.000 A 
ATOM     21  C   UNL     1       1.883   9.196  18.234  0.00  0.00    +0.000 A 
BRANCH  19  22
ATOM     22  O   UNL     1       3.473   5.847  18.019  0.00  0.00    +0.000 OA
ATOM     23  C   UNL     1       4.708   6.049  17.345  0.00  0.00    +0.000 C 
ENDBRANCH  19  22
BRANCH  21  24
ATOM     24  O   UNL     1       1.672  10.302  17.452  0.00  0.00    +0.000 OA
ATOM     25  H   UNL     1       2.516  10.668  17.175  0.00  0.00    +0.000 HD
ENDBRANCH  21  24
ENDBRANCH   3  16
BRANCH   1  26
ATOM     26  C   UNL     1       0.249  13.700  20.368  0.00  0.00    +0.000 C 
ATOM     27  S   UNL     1      -0.048  14.279  18.814  0.00  0.00    +0.000 S 
BRANCH  26  28
ATOM     28  N   UNL     1       0.292  14.604  21.398  0.00  0.00    +0.000 N 
ATOM     29  H   UNL     1       1.217  14.774  21.773  0.00  0.00    +0.000 HD
BRANCH  28  33
ATOM     30  C   UNL     1      -2.896  16.431  23.478  0.00  0.00    +0.000 A 
ATOM     31  C   UNL     1      -2.891  16.430  22.082  0.00  0.00    +0.000 A 
ATOM     32  C   UNL     1      -1.853  15.813  21.374  0.00  0.00    +0.000 A 
ATOM     33  C   UNL     1      -0.802  15.195  22.057  0.00  0.00    +0.000 A 
ATOM     34  C   UNL     1      -0.837  15.150  23.449  0.00  0.00    +0.000 A 
ATOM     35  C   UNL     1      -1.855  15.800  24.158  0.00  0.00    +0.000 A 
BRANCH  30  37
ATOM     36  C   UNL     1      -5.046  17.380  23.232  0.00  0.00    +0.000 C 
ATOM     37  O   UNL     1      -3.935  17.088  24.077  0.00  0.00    +0.000 OA
ENDBRANCH  30  37
ENDBRANCH  28  33
ENDBRANCH  26  28
ENDBRANCH   1  26
TORSDOF 8
ENDMDL
MODEL 3
REMARK VINA RESULT:      -8.0      4.606     11.383
REMARK  Name = 
REMARK  10 active torsions:
REMARK  status: ('A' for Active; 'I' for Inactive)
REMARK    1  A    between atoms: C_1  and  O_2
REMARK    2  A    between atoms: O_2  and  C_3
REMARK    3  A    between atoms: C_6  and  N_7
REMARK    4  A    between atoms: N_7  and  C_8
REMARK    5  A    between atoms: C_8  and  N_10
REMARK    6  A    between atoms: C_12  and  C_13
REMARK    7  A    between atoms: C_16  and  O_17
REMARK    8  A    between atoms: O_17  and  C_18
REMARK    9  A    between atoms: C_20  and  O_21
REMARK   10  A    between atoms: C_23  and  C_24
REMARK                            x       y       z     vdW  Elec       q    Type
REMARK                         _______ _______ _______ _____ _____    ______ ____
ROOT
ATOM      1  N   UNL     1       0.144  12.218  20.505  0.00  0.00    +0.000 N 
ATOM      2  N   UNL     1       1.091  11.397  19.955  0.00  0.00    +0.000 NA
ATOM      3  C   UNL     1       0.642  10.180  19.993  0.00  0.00    +0.000 C 
ATOM      4  C   UNL     1      -0.727  10.027  20.608  0.00  0.00    +0.000 C 
ATOM      5  C   UNL     1      -1.071  11.479  20.941  0.00  0.00    +0.000 C 
ENDROOT
BRANCH   5   6
ATOM      6  C   UNL     1      -2.354  11.964  20.246  0.00  0.00    +0.000 A 
ATOM      7  C   UNL     1      -3.312  12.658  21.016  0.00  0.00    +0.000 A 
ATOM      8  C   UNL     1      -4.565  12.975  20.499  0.00  0.00    +0.000 A 
ATOM      9  C   UNL     1      -4.918  12.522  19.234  0.00  0.00    +0.000 A 
ATOM     10  C   UNL     1      -4.013  11.794  18.456  0.00  0.00    +0.000 A 
ATOM     11  C   UNL     1      -4.456  11.211  17.257  0.00  0.00    +0.000 A 
ATOM     12  C   UNL     1      -3.586  10.489  16.447  0.00  0.00    +0.000 A 
ATOM     13  C   UNL     1      -2.236  10.469  16.757  0.00  0.00    +0.000 A 
ATOM     14  C   UNL     1      -1.788  11.019  17.965  0.00  0.00    +0.000 A 
ATOM     15  C   UNL     1      -2.680  11.600  18.899  0.00  0.00    +0.000 A 
ENDBRANCH   5   6
BRANCH   3  16
ATOM     16  C   UNL     1       1.415   9.052  19.417  0.00  0.00    +0.000 A 
ATOM     17  C   UNL     1       1.623   7.922  20.223  0.00  0.00    +0.000 A 
ATOM     18  C   UNL     1       2.406   6.859  19.765  0.00  0.00    +0.000 A 
ATOM     19  C   UNL     1       3.003   6.909  18.513  0.00  0.00    +0.000 A 
ATOM     20  C   UNL     1       2.794   8.030  17.702  0.00  0.00    +0.000 A 
ATOM     21  C   UNL     1       2.000   9.089  18.152  0.00  0.00    +0.000 A 
BRANCH  19  22
ATOM     22  O   UNL     1       3.761   5.819  18.185  0.00  0.00    +0.000 OA
ATOM     23  C   UNL     1       5.075   6.066  17.704  0.00  0.00    +0.000 C 
ENDBRANCH  19  22
BRANCH  21  24
ATOM     24  O   UNL     1       1.814  10.164  17.323  0.00  0.00    +0.000 OA
ATOM     25  H   UNL     1       2.257  10.935  17.689  0.00  0.00    +0.000 HD
ENDBRANCH  21  24
ENDBRANCH   3  16
BRANCH   1  26
ATOM     26  C   UNL     1       0.231  13.584  20.306  0.00  0.00    +0.000 C 
ATOM     27  S   UNL     1       0.069  14.323  18.801  0.00  0.00    +0.000 S 
BRANCH  26  28
ATOM     28  N   UNL     1       0.304  14.386  21.416  0.00  0.00    +0.000 N 
ATOM     29  H   UNL     1       1.245  14.632  21.698  0.00  0.00    +0.000 HD
BRANCH  28  33
ATOM     30  C   UNL     1      -2.962  15.565  23.817  0.00  0.00    +0.000 A 
ATOM     31  C   UNL     1      -2.114  14.547  24.256  0.00  0.00    +0.000 A 
ATOM     32  C   UNL     1      -1.014  14.155  23.482  0.00  0.00    +0.000 A 
ATOM     33  C   UNL     1      -0.756  14.773  22.257  0.00  0.00    +0.000 A 
ATOM     34  C   UNL     1      -1.573  15.826  21.847  0.00  0.00    +0.000 A 
ATOM     35  C   UNL     1      -2.694  16.192  22.601  0.00  0.00    +0.000 A 
BRANCH  30  37
ATOM     36  C   UNL     1      -5.179  16.372  23.964  0.00  0.00    +0.000 C 
ATOM     37  O   UNL     1      -4.028  15.852  24.626  0.00  0.00    +0.000 OA
ENDBRANCH  30  37
ENDBRANCH  28  33
ENDBRANCH  26  28
ENDBRANCH   1  26
TORSDOF 8
ENDMDL
MODEL 4
REMARK VINA RESULT:      -7.8      4.836     10.000
REMARK  Name = 
REMARK  10 active torsions:
REMARK  status: ('A' for Active; 'I' for Inactive)
REMARK    1  A    between atoms: C_1  and  O_2
REMARK    2  A    between atoms: O_2  and  C_3
REMARK    3  A    between atoms: C_6  and  N_7
REMARK    4  A    between atoms: N_7  and  C_8
REMARK    5  A    between atoms: C_8  and  N_10
REMARK    6  A    between atoms: C_12  and  C_13
REMARK    7  A    between atoms: C_16  and  O_17
REMARK    8  A    between atoms: O_17  and  C_18
REMARK    9  A    between atoms: C_20  and  O_21
REMARK   10  A    between atoms: C_23  and  C_24
REMARK                            x       y       z     vdW  Elec       q    Type
REMARK                         _______ _______ _______ _____ _____    ______ ____
ROOT
ATOM      1  N   UNL     1       0.223  12.058  20.646  0.00  0.00    +0.000 N 
ATOM      2  N   UNL     1       1.167  11.244  20.079  0.00  0.00    +0.000 NA
ATOM      3  C   UNL     1       0.694  10.037  20.049  0.00  0.00    +0.000 C 
ATOM      4  C   UNL     1      -0.693   9.884  20.624  0.00  0.00    +0.000 C 
ATOM      5  C   UNL     1      -1.017  11.325  21.017  0.00  0.00    +0.000 C 
ENDROOT
BRANCH   5   6
ATOM      6  C   UNL     1      -2.272  11.869  20.317  0.00  0.00    +0.000 A 
ATOM      7  C   UNL     1      -3.208  12.594  21.085  0.00  0.00    +0.000 A 
ATOM      8  C   UNL     1      -4.443  12.966  20.561  0.00  0.00    +0.000 A 
ATOM      9  C   UNL     1      -4.802  12.541  19.288  0.00  0.00    +0.000 A 
ATOM     10  C   UNL     1      -3.920  11.785  18.510  0.00  0.00    +0.000 A 
ATOM     11  C   UNL     1      -4.376  11.232  17.302  0.00  0.00    +0.000 A 
ATOM     12  C   UNL     1      -3.529  10.484  16.492  0.00  0.00    +0.000 A 
ATOM     13  C   UNL     1      -2.184  10.406  16.813  0.00  0.00    +0.000 A 
ATOM     14  C   UNL     1      -1.724  10.925  18.030  0.00  0.00    +0.000 A 
ATOM     15  C   UNL     1      -2.600  11.532  18.963  0.00  0.00    +0.000 A 
ENDBRANCH   5   6
BRANCH   3  16
ATOM     16  C   UNL     1       1.458   8.922  19.438  0.00  0.00    +0.000 A 
ATOM     17  C   UNL     1       1.683   7.777  20.218  0.00  0.00    +0.000 A 
ATOM     18  C   UNL     1       2.460   6.725  19.726  0.00  0.00    +0.000 A 
ATOM     19  C   UNL     1       3.034   6.800  18.465  0.00  0.00    +0.000 A 
ATOM     20  C   UNL     1       2.807   7.934  17.679  0.00  0.00    +0.000 A 
ATOM     21  C   UNL     1       2.019   8.983  18.163  0.00  0.00    +0.000 A 
BRANCH  19  22
ATOM     22  O   UNL     1       3.787   5.718  18.102  0.00  0.00    +0.000 OA
ATOM     23  C   UNL     1       4.977   5.975  17.369  0.00  0.00    +0.000 C 
ENDBRANCH  19  22
BRANCH  21  24
ATOM     24  O   UNL     1       1.816  10.074  17.358  0.00  0.00    +0.000 OA
ATOM     25  H   UNL     1       2.517  10.126  16.702  0.00  0.00    +0.000 HD
ENDBRANCH  21  24
ENDBRANCH   3  16
BRANCH   1  26
ATOM     26  C   UNL     1       0.343  13.430  20.515  0.00  0.00    +0.000 C 
ATOM     27  S   UNL     1       0.063  14.518  21.771  0.00  0.00    +0.000 S 
BRANCH  26  28
ATOM     28  N   UNL     1       0.862  13.916  19.343  0.00  0.00    +0.000 N 
ATOM     29  H   UNL     1       0.450  13.524  18.505  0.00  0.00    +0.000 HD
BRANCH  28  33
ATOM     30  C   UNL     1       4.263  16.365  18.842  0.00  0.00    +0.000 A 
ATOM     31  C   UNL     1       3.000  16.864  18.524  0.00  0.00    +0.000 A 
ATOM     32  C   UNL     1       1.857  16.074  18.702  0.00  0.00    +0.000 A 
ATOM     33  C   UNL     1       1.969  14.771  19.192  0.00  0.00    +0.000 A 
ATOM     34  C   UNL     1       3.226  14.294  19.560  0.00  0.00    +0.000 A 
ATOM     35  C   UNL     1       4.372  15.070  19.347  0.00  0.00    +0.000 A 
BRANCH  30  37
ATOM     36  C   UNL     1       6.074  17.583  19.751  0.00  0.00    +0.000 C 
ATOM     37  O   UNL     1       5.320  17.201  18.602  0.00  0.00    +0.000 OA
ENDBRANCH  30  37
ENDBRANCH  28  33
ENDBRANCH  26  28
ENDBRANCH   1  26
TORSDOF 8
ENDMDL
MODEL 5
REMARK VINA RESULT:      -7.8      4.383     10.688
REMARK  Name = 
REMARK  10 active torsions:
REMARK  status: ('A' for Active; 'I' for Inactive)
REMARK    1  A    between atoms: C_1  and  O_2
REMARK    2  A    between atoms: O_2  and  C_3
REMARK    3  A    between atoms: C_6  and  N_7
REMARK    4  A    between atoms: N_7  and  C_8
REMARK    5  A    between atoms: C_8  and  N_10
REMARK    6  A    between atoms: C_12  and  C_13
REMARK    7  A    between atoms: C_16  and  O_17
REMARK    8  A    between atoms: O_17  and  C_18
REMARK    9  A    between atoms: C_20  and  O_21
REMARK   10  A    between atoms: C_23  and  C_24
REMARK                            x       y       z     vdW  Elec       q    Type
REMARK                         _______ _______ _______ _____ _____    ______ ____
ROOT
ATOM      1  N   UNL     1       0.317  11.612  19.495  0.00  0.00    +0.000 N 
ATOM      2  N   UNL     1       0.562  10.364  18.986  0.00  0.00    +0.000 NA
ATOM      3  C   UNL     1       1.236   9.694  19.868  0.00  0.00    +0.000 C 
ATOM      4  C   UNL     1       1.545  10.447  21.139  0.00  0.00    +0.000 C 
ATOM      5  C   UNL     1       0.868  11.790  20.865  0.00  0.00    +0.000 C 
ENDROOT
BRANCH   5   6
ATOM      6  C   UNL     1      -0.207  12.140  21.907  0.00  0.00    +0.000 A 
ATOM      7  C   UNL     1      -1.067  11.115  22.353  0.00  0.00    +0.000 A 
ATOM      8  C   UNL     1      -2.167  11.392  23.161  0.00  0.00    +0.000 A 
ATOM      9  C   UNL     1      -2.479  12.712  23.463  0.00  0.00    +0.000 A 
ATOM     10  C   UNL     1      -1.675  13.760  23.004  0.00  0.00    +0.000 A 
ATOM     11  C   UNL     1      -2.109  15.084  23.185  0.00  0.00    +0.000 A 
ATOM     12  C   UNL     1      -1.335  16.156  22.756  0.00  0.00    +0.000 A 
ATOM     13  C   UNL     1      -0.058  15.917  22.275  0.00  0.00    +0.000 A 
ATOM     14  C   UNL     1       0.373  14.602  22.061  0.00  0.00    +0.000 A 
ATOM     15  C   UNL     1      -0.465  13.489  22.317  0.00  0.00    +0.000 A 
ENDBRANCH   5   6
BRANCH   3  16
ATOM     16  C   UNL     1       1.611   8.276  19.641  0.00  0.00    +0.000 A 
ATOM     17  C   UNL     1       1.433   7.374  20.702  0.00  0.00    +0.000 A 
ATOM     18  C   UNL     1       1.839   6.042  20.575  0.00  0.00    +0.000 A 
ATOM     19  C   UNL     1       2.435   5.593  19.406  0.00  0.00    +0.000 A 
ATOM     20  C   UNL     1       2.609   6.485  18.342  0.00  0.00    +0.000 A 
ATOM     21  C   UNL     1       2.193   7.815  18.461  0.00  0.00    +0.000 A 
BRANCH  19  22
ATOM     22  O   UNL     1       2.805   4.277  19.409  0.00  0.00    +0.000 OA
ATOM     23  C   UNL     1       3.416   3.774  18.228  0.00  0.00    +0.000 C 
ENDBRANCH  19  22
BRANCH  21  24
ATOM     24  O   UNL     1       2.374   8.654  17.393  0.00  0.00    +0.000 OA
ATOM     25  H   UNL     1       2.706   8.155  16.642  0.00  0.00    +0.000 HD
ENDBRANCH  21  24
ENDBRANCH   3  16
BRANCH   1  26
ATOM     26  C   UNL     1      -0.640  12.413  18.898  0.00  0.00    +0.000 C 
ATOM     27  S   UNL     1      -0.453  14.068  18.651  0.00  0.00    +0.000 S 
BRANCH  26  28
ATOM     28  N   UNL     1      -1.731  11.796  18.344  0.00  0.00    +0.000 N 
ATOM     29  H   UNL     1      -1.539  11.285  17.490  0.00  0.00    +0.000 HD
BRANCH  28  33
ATOM     30  C   UNL     1      -5.780  12.005  19.520  0.00  0.00    +0.000 A 
ATOM     31  C   UNL     1      -4.799  12.604  20.311  0.00  0.00    +0.000 A 
ATOM     32  C   UNL     1      -3.452  12.562  19.927  0.00  0.00    +0.000 A 
ATOM     33  C   UNL     1      -3.073  11.912  18.751  0.00  0.00    +0.000 A 
ATOM     34  C   UNL     1      -4.061  11.362  17.936  0.00  0.00    +0.000 A 
ATOM     35  C   UNL     1      -5.402  11.370  18.337  0.00  0.00    +0.000 A 
BRANCH  30  37
ATOM     36  C   UNL     1      -7.534  10.895  20.650  0.00  0.00    +0.000 C 
ATOM     37  O   UNL     1      -7.061  12.070  19.995  0.00  0.00    +0.000 OA
ENDBRANCH  30  37
ENDBRANCH  28  33
ENDBRANCH  26  28
ENDBRANCH   1  26
TORSDOF 8
ENDMDL
MODEL 6
REMARK VINA RESULT:      -7.8      4.610     11.107
REMARK  Name = 
REMARK  10 active torsions:
REMARK  status: ('A' for Active; 'I' for Inactive)
REMARK    1  A    between atoms: C_1  and  O_2
REMARK    2  A    between atoms: O_2  and  C_3
REMARK    3  A    between atoms: C_6  and  N_7
REMARK    4  A    between atoms: N_7  and  C_8
REMARK    5  A    between atoms: C_8  and  N_10
REMARK    6  A    between atoms: C_12  and  C_13
REMARK    7  A    between atoms: C_16  and  O_17
REMARK    8  A    between atoms: O_17  and  C_18
REMARK    9  A    between atoms: C_20  and  O_21
REMARK   10  A    between atoms: C_23  and  C_24
REMARK                            x       y       z     vdW  Elec       q    Type
REMARK                         _______ _______ _______ _____ _____    ______ ____
ROOT
ATOM      1  N   UNL     1      -0.009  12.397  19.856  0.00  0.00    +0.000 N 
ATOM      2  N   UNL     1       0.304  11.234  19.203  0.00  0.00    +0.000 NA
ATOM      3  C   UNL     1       0.975  10.482  20.019  0.00  0.00    +0.000 C 
ATOM      4  C   UNL     1       1.211  11.077  21.385  0.00  0.00    +0.000 C 
ATOM      5  C   UNL     1       0.488  12.418  21.258  0.00  0.00    +0.000 C 
ENDROOT
BRANCH   5   6
ATOM      6  C   UNL     1      -0.634  12.593  22.294  0.00  0.00    +0.000 A 
ATOM      7  C   UNL     1      -1.480  11.495  22.557  0.00  0.00    +0.000 A 
ATOM      8  C   UNL     1      -2.616  11.629  23.351  0.00  0.00    +0.000 A 
ATOM      9  C   UNL     1      -2.979  12.886  23.820  0.00  0.00    +0.000 A 
ATOM     10  C   UNL     1      -2.190  14.007  23.545  0.00  0.00    +0.000 A 
ATOM     11  C   UNL     1      -2.670  15.282  23.889  0.00  0.00    +0.000 A 
ATOM     12  C   UNL     1      -1.914  16.422  23.645  0.00  0.00    +0.000 A 
ATOM     13  C   UNL     1      -0.613  16.284  23.188  0.00  0.00    +0.000 A 
ATOM     14  C   UNL     1      -0.135  15.022  22.811  0.00  0.00    +0.000 A 
ATOM     15  C   UNL     1      -0.948  13.864  22.876  0.00  0.00    +0.000 A 
ENDBRANCH   5   6
BRANCH   3  16
ATOM     16  C   UNL     1       1.416   9.119  19.629  0.00  0.00    +0.000 A 
ATOM     17  C   UNL     1       1.429   8.126  20.621  0.00  0.00    +0.000 A 
ATOM     18  C   UNL     1       1.905   6.844  20.334  0.00  0.00    +0.000 A 
ATOM     19  C   UNL     1       2.386   6.535  19.070  0.00  0.00    +0.000 A 
ATOM     20  C   UNL     1       2.368   7.518  18.074  0.00  0.00    +0.000 A 
ATOM     21  C   UNL     1       1.880   8.798  18.355  0.00  0.00    +0.000 A 
BRANCH  19  22
ATOM     22  O   UNL     1       2.842   5.255  18.917  0.00  0.00    +0.000 OA
ATOM     23  C   UNL     1       3.537   4.956  17.714  0.00  0.00    +0.000 C 
ENDBRANCH  19  22
BRANCH  21  24
ATOM     24  O   UNL     1       1.874   9.729  17.349  0.00  0.00    +0.000 OA
ATOM     25  H   UNL     1       2.761  10.075  17.223  0.00  0.00    +0.000 HD
ENDBRANCH  21  24
ENDBRANCH   3  16
BRANCH   1  26
ATOM     26  C   UNL     1      -0.978  13.232  19.329  0.00  0.00    +0.000 C 
ATOM     27  S   UNL     1      -0.873  14.913  19.346  0.00  0.00    +0.000 S 
BRANCH  26  28
ATOM     28  N   UNL     1      -2.001  12.655  18.623  0.00  0.00    +0.000 N 
ATOM     29  H   UNL     1      -1.801  12.497  17.642  0.00  0.00    +0.000 HD
BRANCH  28  33
ATOM     30  C   UNL     1      -5.936  12.023  20.016  0.00  0.00    +0.000 A 
ATOM     31  C   UNL     1      -5.484  11.339  18.886  0.00  0.00    +0.000 A 
ATOM     32  C   UNL     1      -4.176  11.520  18.420  0.00  0.00    +0.000 A 
ATOM     33  C   UNL     1      -3.308  12.396  19.076  0.00  0.00    +0.000 A 
ATOM     34  C   UNL     1      -3.743  13.036  20.235  0.00  0.00    +0.000 A 
ATOM     35  C   UNL     1      -5.063  12.884  20.679  0.00  0.00    +0.000 A 
BRANCH  30  37
ATOM     36  C   UNL     1      -7.528  11.955  21.761  0.00  0.00    +0.000 C 
ATOM     37  O   UNL     1      -7.238  11.805  20.373  0.00  0.00    +0.000 OA
ENDBRANCH  30  37
ENDBRANCH  28  33
ENDBRANCH  26  28
ENDBRANCH   1  26
TORSDOF 8
ENDMDL
MODEL 7
REMARK VINA RESULT:      -7.7      4.242      9.483
REMARK  Name = 
REMARK  10 active torsions:
REMARK  status: ('A' for Active; 'I' for Inactive)
REMARK    1  A    between atoms: C_1  and  O_2
REMARK    2  A    between atoms: O_2  and  C_3
REMARK    3  A    between atoms: C_6  and  N_7
REMARK    4  A    between atoms: N_7  and  C_8
REMARK    5  A    between atoms: C_8  and  N_10
REMARK    6  A    between atoms: C_12  and  C_13
REMARK    7  A    between atoms: C_16  and  O_17
REMARK    8  A    between atoms: O_17  and  C_18
REMARK    9  A    between atoms: C_20  and  O_21
REMARK   10  A    between atoms: C_23  and  C_24
REMARK                            x       y       z     vdW  Elec       q    Type
REMARK                         _______ _______ _______ _____ _____    ______ ____
ROOT
ATOM      1  N   UNL     1       0.377  11.162  19.614  0.00  0.00    +0.000 N 
ATOM      2  N   UNL     1       0.650   9.910  19.132  0.00  0.00    +0.000 NA
ATOM      3  C   UNL     1       1.331   9.270  20.031  0.00  0.00    +0.000 C 
ATOM      4  C   UNL     1       1.618  10.054  21.288  0.00  0.00    +0.000 C 
ATOM      5  C   UNL     1       0.915  11.378  20.984  0.00  0.00    +0.000 C 
ENDROOT
BRANCH   5   6
ATOM      6  C   UNL     1      -0.172  11.728  22.012  0.00  0.00    +0.000 A 
ATOM      7  C   UNL     1      -0.956  10.680  22.541  0.00  0.00    +0.000 A 
ATOM      8  C   UNL     1      -2.066  10.939  23.341  0.00  0.00    +0.000 A 
ATOM      9  C   UNL     1      -2.467  12.252  23.553  0.00  0.00    +0.000 A 
ATOM     10  C   UNL     1      -1.741  13.317  23.011  0.00  0.00    +0.000 A 
ATOM     11  C   UNL     1      -2.264  14.618  23.102  0.00  0.00    +0.000 A 
ATOM     12  C   UNL     1      -1.571  15.707  22.588  0.00  0.00    +0.000 A 
ATOM     13  C   UNL     1      -0.284  15.523  22.109  0.00  0.00    +0.000 A 
ATOM     14  C   UNL     1       0.236  14.228  21.983  0.00  0.00    +0.000 A 
ATOM     15  C   UNL     1      -0.521  13.081  22.328  0.00  0.00    +0.000 A 
ENDBRANCH   5   6
BRANCH   3  16
ATOM     16  C   UNL     1       1.736   7.856  19.835  0.00  0.00    +0.000 A 
ATOM     17  C   UNL     1       1.435   6.941  20.856  0.00  0.00    +0.000 A 
ATOM     18  C   UNL     1       1.856   5.612  20.764  0.00  0.00    +0.000 A 
ATOM     19  C   UNL     1       2.591   5.178  19.669  0.00  0.00    +0.000 A 
ATOM     20  C   UNL     1       2.888   6.083  18.645  0.00  0.00    +0.000 A 
ATOM     21  C   UNL     1       2.457   7.410  18.728  0.00  0.00    +0.000 A 
BRANCH  19  22
ATOM     22  O   UNL     1       2.962   3.862  19.702  0.00  0.00    +0.000 OA
ATOM     23  C   UNL     1       3.904   3.432  18.729  0.00  0.00    +0.000 C 
ENDBRANCH  19  22
BRANCH  21  24
ATOM     24  O   UNL     1       2.762   8.262  17.699  0.00  0.00    +0.000 OA
ATOM     25  H   UNL     1       2.248   9.069  17.783  0.00  0.00    +0.000 HD
ENDBRANCH  21  24
ENDBRANCH   3  16
BRANCH   1  26
ATOM     26  C   UNL     1      -0.592  11.932  18.996  0.00  0.00    +0.000 C 
ATOM     27  S   UNL     1      -0.274  13.400  18.234  0.00  0.00    +0.000 S 
BRANCH  26  28
ATOM     28  N   UNL     1      -1.846  11.394  18.867  0.00  0.00    +0.000 N 
ATOM     29  H   UNL     1      -2.312  11.195  19.744  0.00  0.00    +0.000 HD
BRANCH  28  33
ATOM     30  C   UNL     1      -3.768  10.279  15.278  0.00  0.00    +0.000 A 
ATOM     31  C   UNL     1      -2.577   9.652  15.647  0.00  0.00    +0.000 A 
ATOM     32  C   UNL     1      -1.935   9.994  16.844  0.00  0.00    +0.000 A 
ATOM     33  C   UNL     1      -2.474  10.975  17.680  0.00  0.00    +0.000 A 
ATOM     34  C   UNL     1      -3.691  11.560  17.335  0.00  0.00    +0.000 A 
ATOM     35  C   UNL     1      -4.314  11.245  16.121  0.00  0.00    +0.000 A 
BRANCH  30  37
ATOM     36  C   UNL     1      -3.377   9.823  12.992  0.00  0.00    +0.000 C 
ATOM     37  O   UNL     1      -4.301   9.899  14.076  0.00  0.00    +0.000 OA
ENDBRANCH  30  37
ENDBRANCH  28  33
ENDBRANCH  26  28
ENDBRANCH   1  26
TORSDOF 8
ENDMDL
MODEL 8
REMARK VINA RESULT:      -7.7      4.693     11.487
REMARK  Name = 
REMARK  10 active torsions:
REMARK  status: ('A' for Active; 'I' for Inactive)
REMARK    1  A    between atoms: C_1  and  O_2
REMARK    2  A    between atoms: O_2  and  C_3
REMARK    3  A    between atoms: C_6  and  N_7
REMARK    4  A    between atoms: N_7  and  C_8
REMARK    5  A    between atoms: C_8  and  N_10
REMARK    6  A    between atoms: C_12  and  C_13
REMARK    7  A    between atoms: C_16  and  O_17
REMARK    8  A    between atoms: O_17  and  C_18
REMARK    9  A    between atoms: C_20  and  O_21
REMARK   10  A    between atoms: C_23  and  C_24
REMARK                            x       y       z     vdW  Elec       q    Type
REMARK                         _______ _______ _______ _____ _____    ______ ____
ROOT
ATOM      1  N   UNL     1       0.094  12.205  20.519  0.00  0.00    +0.000 N 
ATOM      2  N   UNL     1       1.080  11.404  20.008  0.00  0.00    +0.000 NA
ATOM      3  C   UNL     1       0.648  10.181  20.011  0.00  0.00    +0.000 C 
ATOM      4  C   UNL     1      -0.748  10.001  20.554  0.00  0.00    +0.000 C 
ATOM      5  C   UNL     1      -1.130  11.444  20.885  0.00  0.00    +0.000 C 
ENDROOT
BRANCH   5   6
ATOM      6  C   UNL     1      -2.383  11.917  20.131  0.00  0.00    +0.000 A 
ATOM      7  C   UNL     1      -3.365  12.634  20.848  0.00  0.00    +0.000 A 
ATOM      8  C   UNL     1      -4.597  12.944  20.277  0.00  0.00    +0.000 A 
ATOM      9  C   UNL     1      -4.905  12.463  19.011  0.00  0.00    +0.000 A 
ATOM     10  C   UNL     1      -3.975  11.713  18.285  0.00  0.00    +0.000 A 
ATOM     11  C   UNL     1      -4.376  11.103  17.084  0.00  0.00    +0.000 A 
ATOM     12  C   UNL     1      -3.482  10.359  16.325  0.00  0.00    +0.000 A 
ATOM     13  C   UNL     1      -2.144  10.339  16.685  0.00  0.00    +0.000 A 
ATOM     14  C   UNL     1      -1.738  10.916  17.896  0.00  0.00    +0.000 A 
ATOM     15  C   UNL     1      -2.661  11.523  18.782  0.00  0.00    +0.000 A 
ENDBRANCH   5   6
BRANCH   3  16
ATOM     16  C   UNL     1       1.466   9.071  19.462  0.00  0.00    +0.000 A 
ATOM     17  C   UNL     1       1.810   9.121  18.102  0.00  0.00    +0.000 A 
ATOM     18  C   UNL     1       2.513   8.069  17.509  0.00  0.00    +0.000 A 
ATOM     19  C   UNL     1       2.871   6.952  18.249  0.00  0.00    +0.000 A 
ATOM     20  C   UNL     1       2.538   6.898  19.607  0.00  0.00    +0.000 A 
ATOM     21  C   UNL     1       1.846   7.955  20.207  0.00  0.00    +0.000 A 
BRANCH  19  22
ATOM     22  O   UNL     1       3.539   5.982  17.555  0.00  0.00    +0.000 OA
ATOM     23  C   UNL     1       3.147   4.636  17.786  0.00  0.00    +0.000 C 
ENDBRANCH  19  22
BRANCH  21  24
ATOM     24  O   UNL     1       1.547   7.866  21.541  0.00  0.00    +0.000 OA
ATOM     25  H   UNL     1       0.920   8.555  21.779  0.00  0.00    +0.000 HD
ENDBRANCH  21  24
ENDBRANCH   3  16
BRANCH   1  26
ATOM     26  C   UNL     1       0.171  13.575  20.340  0.00  0.00    +0.000 C 
ATOM     27  S   UNL     1       0.081  14.328  18.836  0.00  0.00    +0.000 S 
BRANCH  26  28
ATOM     28  N   UNL     1       0.168  14.365  21.460  0.00  0.00    +0.000 N 
ATOM     29  H   UNL     1       1.087  14.580  21.827  0.00  0.00    +0.000 HD
BRANCH  28  33
ATOM     30  C   UNL     1      -3.104  15.593  23.827  0.00  0.00    +0.000 A 
ATOM     31  C   UNL     1      -2.908  16.165  22.569  0.00  0.00    +0.000 A 
ATOM     32  C   UNL     1      -1.840  15.757  21.761  0.00  0.00    +0.000 A 
ATOM     33  C   UNL     1      -0.951  14.777  22.208  0.00  0.00    +0.000 A 
ATOM     34  C   UNL     1      -1.180  14.169  23.441  0.00  0.00    +0.000 A 
ATOM     35  C   UNL     1      -2.226  14.604  24.265  0.00  0.00    +0.000 A 
BRANCH  30  37
ATOM     36  C   UNL     1      -3.905  17.302  25.250  0.00  0.00    +0.000 C 
ATOM     37  O   UNL     1      -4.155  16.082  24.554  0.00  0.00    +0.000 OA
ENDBRANCH  30  37
ENDBRANCH  28  33
ENDBRANCH  26  28
ENDBRANCH   1  26
TORSDOF 8
ENDMDL
MODEL 9
REMARK VINA RESULT:      -7.7      4.396     10.630
REMARK  Name = 
REMARK  10 active torsions:
REMARK  status: ('A' for Active; 'I' for Inactive)
REMARK    1  A    between atoms: C_1  and  O_2
REMARK    2  A    between atoms: O_2  and  C_3
REMARK    3  A    between atoms: C_6  and  N_7
REMARK    4  A    between atoms: N_7  and  C_8
REMARK    5  A    between atoms: C_8  and  N_10
REMARK    6  A    between atoms: C_12  and  C_13
REMARK    7  A    between atoms: C_16  and  O_17
REMARK    8  A    between atoms: O_17  and  C_18
REMARK    9  A    between atoms: C_20  and  O_21
REMARK   10  A    between atoms: C_23  and  C_24
REMARK                            x       y       z     vdW  Elec       q    Type
REMARK                         _______ _______ _______ _____ _____    ______ ____
ROOT
ATOM      1  N   UNL     1       0.397  11.211  19.447  0.00  0.00    +0.000 N 
ATOM      2  N   UNL     1       0.638   9.938  19.002  0.00  0.00    +0.000 NA
ATOM      3  C   UNL     1       1.333   9.320  19.906  0.00  0.00    +0.000 C 
ATOM      4  C   UNL     1       1.663  10.142  21.127  0.00  0.00    +0.000 C 
ATOM      5  C   UNL     1       0.973  11.466  20.794  0.00  0.00    +0.000 C 
ENDROOT
BRANCH   5   6
ATOM      6  C   UNL     1      -0.082  11.869  21.836  0.00  0.00    +0.000 A 
ATOM      7  C   UNL     1      -0.920  10.863  22.364  0.00  0.00    +0.000 A 
ATOM      8  C   UNL     1      -2.005  11.178  23.177  0.00  0.00    +0.000 A 
ATOM      9  C   UNL     1      -2.327  12.510  23.404  0.00  0.00    +0.000 A 
ATOM     10  C   UNL     1      -1.546  13.537  22.864  0.00  0.00    +0.000 A 
ATOM     11  C   UNL     1      -1.993  14.865  22.972  0.00  0.00    +0.000 A 
ATOM     12  C   UNL     1      -1.242  15.917  22.460  0.00  0.00    +0.000 A 
ATOM     13  C   UNL     1       0.027  15.663  21.966  0.00  0.00    +0.000 A 
ATOM     14  C   UNL     1       0.469  14.341  21.824  0.00  0.00    +0.000 A 
ATOM     15  C   UNL     1      -0.348  13.237  22.167  0.00  0.00    +0.000 A 
ENDBRANCH   5   6
BRANCH   3  16
ATOM     16  C   UNL     1       1.711   7.893  19.749  0.00  0.00    +0.000 A 
ATOM     17  C   UNL     1       1.384   7.011  20.791  0.00  0.00    +0.000 A 
ATOM     18  C   UNL     1       1.780   5.672  20.737  0.00  0.00    +0.000 A 
ATOM     19  C   UNL     1       2.514   5.195  19.660  0.00  0.00    +0.000 A 
ATOM     20  C   UNL     1       2.837   6.067  18.615  0.00  0.00    +0.000 A 
ATOM     21  C   UNL     1       2.431   7.405  18.660  0.00  0.00    +0.000 A 
BRANCH  19  22
ATOM     22  O   UNL     1       2.859   3.874  19.729  0.00  0.00    +0.000 OA
ATOM     23  C   UNL     1       4.176   3.527  19.325  0.00  0.00    +0.000 C 
ENDBRANCH  19  22
BRANCH  21  24
ATOM     24  O   UNL     1       2.761   8.224  17.612  0.00  0.00    +0.000 OA
ATOM     25  H   UNL     1       3.183   7.708  16.920  0.00  0.00    +0.000 HD
ENDBRANCH  21  24
ENDBRANCH   3  16
BRANCH   1  26
ATOM     26  C   UNL     1      -0.576  11.974  18.826  0.00  0.00    +0.000 C 
ATOM     27  S   UNL     1      -0.346  13.572  18.346  0.00  0.00    +0.000 S 
BRANCH  26  28
ATOM     28  N   UNL     1      -1.733  11.345  18.447  0.00  0.00    +0.000 N 
ATOM     29  H   UNL     1      -1.602  10.567  17.812  0.00  0.00    +0.000 HD
BRANCH  28  33
ATOM     30  C   UNL     1      -5.636  12.679  19.348  0.00  0.00    +0.000 A 
ATOM     31  C   UNL     1      -5.412  11.927  18.194  0.00  0.00    +0.000 A 
ATOM     32  C   UNL     1      -4.128  11.459  17.888  0.00  0.00    +0.000 A 
ATOM     33  C   UNL     1      -3.052  11.746  18.731  0.00  0.00    +0.000 A 
ATOM     34  C   UNL     1      -3.288  12.451  19.910  0.00  0.00    +0.000 A 
ATOM     35  C   UNL     1      -4.564  12.951  20.197  0.00  0.00    +0.000 A 
BRANCH  30  37
ATOM     36  C   UNL     1      -7.726  13.188  18.371  0.00  0.00    +0.000 C 
ATOM     37  O   UNL     1      -6.917  13.119  19.543  0.00  0.00    +0.000 OA
ENDBRANCH  30  37
ENDBRANCH  28  33
ENDBRANCH  26  28
ENDBRANCH   1  26
TORSDOF 8
ENDMDL
