MODEL 1
REMARK VINA RESULT:      -7.9      0.000      0.000
REMARK  Name = 
REMARK  4 active torsions:
REMARK  status: ('A' for Active; 'I' for Inactive)
REMARK    1  A    between atoms: C_1  and  N_2
REMARK    2  A    between atoms: N_5  and  C_6
REMARK    3  A    between atoms: C_6  and  C_8
REMARK    4  A    between atoms: C_16  and  C_17
REMARK                            x       y       z     vdW  Elec       q    Type
REMARK                         _______ _______ _______ _____ _____    ______ ____
ROOT
ATOM      1  C   UNL     1       1.232   4.665  20.742  0.00  0.00    +0.000 C 
ATOM      2  N   UNL     1       2.573   4.848  20.227  0.00  0.00    +0.000 N 
ATOM      3  S   UNL     1       3.548   3.494  20.005  0.00  0.00    +0.000 S 
ATOM      4  C   UNL     1       4.643   4.459  19.005  0.00  0.00    +0.000 A 
ATOM      5  N   UNL     1       5.765   3.961  18.622  0.00  0.00    +0.000 NA
ATOM      6  N   UNL     1       4.139   5.707  18.739  0.00  0.00    +0.000 NA
ATOM      7  C   UNL     1       3.034   5.895  19.426  0.00  0.00    +0.000 A 
ENDROOT
BRANCH   7   8
ATOM      8  C   UNL     1       2.336   7.209  19.295  0.00  0.00    +0.000 A 
ATOM      9  C   UNL     1       2.298   7.846  18.048  0.00  0.00    +0.000 A 
ATOM     10  C   UNL     1       1.634   9.071  17.903  0.00  0.00    +0.000 A 
ATOM     11  C   UNL     1       1.002   9.650  19.000  0.00  0.00    +0.000 A 
ATOM     12 CL   UNL     1       0.172  11.146  18.826  0.00  0.00    +0.000 Cl
ATOM     13  C   UNL     1       1.056   9.036  20.250  0.00  0.00    +0.000 A 
ATOM     14  C   UNL     1       1.744   7.831  20.400  0.00  0.00    +0.000 A 
ENDBRANCH   7   8
BRANCH   5  15
ATOM     15  C   UNL     1       6.645   4.750  17.929  0.00  0.00    +0.000 C 
ATOM     16  O   UNL     1       7.504   5.481  18.415  0.00  0.00    +0.000 OA
BRANCH  15  17
ATOM     17  C   UNL     1       6.612   4.584  16.440  0.00  0.00    +0.000 A 
ATOM     18  C   UNL     1       7.538   5.281  15.648  0.00  0.00    +0.000 A 
ATOM     19  C   UNL     1       7.554   5.111  14.260  0.00  0.00    +0.000 A 
ATOM     20  C   UNL     1       6.637   4.247  13.660  0.00  0.00    +0.000 A 
ATOM     21 CL   UNL     1       6.662   4.026  11.955  0.00  0.00    +0.000 Cl
ATOM     22  C   UNL     1       5.708   3.556  14.434  0.00  0.00    +0.000 A 
ATOM     23  C   UNL     1       5.694   3.723  15.822  0.00  0.00    +0.000 A 
ENDBRANCH  15  17
ENDBRANCH   5  15
TORSDOF 3
ENDMDL
MODEL 2
REMARK VINA RESULT:      -7.8      0.126      1.016
REMARK  Name = 
REMARK  4 active torsions:
REMARK  status: ('A' for Active; 'I' for Inactive)
REMARK    1  A    between atoms: C_1  and  N_2
REMARK    2  A    between atoms: N_5  and  C_6
REMARK    3  A    between atoms: C_6  and  C_8
REMARK    4  A    between atoms: C_16  and  C_17
REMARK                            x       y       z     vdW  Elec       q    Type
REMARK                         _______ _______ _______ _____ _____    ______ ____
ROOT
ATOM      1  C   UNL     1       1.084   4.760  20.624  0.00  0.00    +0.000 C 
ATOM      2  N   UNL     1       2.446   4.907  20.156  0.00  0.00    +0.000 N 
ATOM      3  S   UNL     1       3.393   3.527  19.969  0.00  0.00    +0.000 S 
ATOM      4  C   UNL     1       4.547   4.461  19.007  0.00  0.00    +0.000 A 
ATOM      5  N   UNL     1       5.668   3.933  18.664  0.00  0.00    +0.000 NA
ATOM      6  N   UNL     1       4.085   5.721  18.722  0.00  0.00    +0.000 NA
ATOM      7  C   UNL     1       2.962   5.939  19.369  0.00  0.00    +0.000 A 
ENDROOT
BRANCH   7   8
ATOM      8  C   UNL     1       2.303   7.271  19.212  0.00  0.00    +0.000 A 
ATOM      9  C   UNL     1       1.709   7.880  20.326  0.00  0.00    +0.000 A 
ATOM     10  C   UNL     1       1.101   9.134  20.200  0.00  0.00    +0.000 A 
ATOM     11  C   UNL     1       1.097   9.782  18.968  0.00  0.00    +0.000 A 
ATOM     12 CL   UNL     1       0.365  11.331  18.811  0.00  0.00    +0.000 Cl
ATOM     13  C   UNL     1       1.663   9.174  17.850  0.00  0.00    +0.000 A 
ATOM     14  C   UNL     1       2.242   7.909  17.969  0.00  0.00    +0.000 A 
ENDBRANCH   7   8
BRANCH   5  15
ATOM     15  C   UNL     1       6.592   4.697  18.001  0.00  0.00    +0.000 C 
ATOM     16  O   UNL     1       7.469   5.385  18.515  0.00  0.00    +0.000 OA
BRANCH  15  17
ATOM     17  C   UNL     1       6.581   4.557  16.509  0.00  0.00    +0.000 A 
ATOM     18  C   UNL     1       7.506   5.282  15.741  0.00  0.00    +0.000 A 
ATOM     19  C   UNL     1       7.543   5.137  14.351  0.00  0.00    +0.000 A 
ATOM     20  C   UNL     1       6.648   4.269  13.723  0.00  0.00    +0.000 A 
ATOM     21 CL   UNL     1       6.699   4.078  12.016  0.00  0.00    +0.000 Cl
ATOM     22  C   UNL     1       5.720   3.550  14.473  0.00  0.00    +0.000 A 
ATOM     23  C   UNL     1       5.685   3.692  15.864  0.00  0.00    +0.000 A 
ENDBRANCH  15  17
ENDBRANCH   5  15
TORSDOF 3
ENDMDL
MODEL 3
REMARK VINA RESULT:      -7.8      0.086      1.428
REMARK  Name = 
REMARK  4 active torsions:
REMARK  status: ('A' for Active; 'I' for Inactive)
REMARK    1  A    between atoms: C_1  and  N_2
REMARK    2  A    between atoms: N_5  and  C_6
REMARK    3  A    between atoms: C_6  and  C_8
REMARK    4  A    between atoms: C_16  and  C_17
REMARK                            x       y       z     vdW  Elec       q    Type
REMARK                         _______ _______ _______ _____ _____    ______ ____
ROOT
ATOM      1  C   UNL     1       1.152   4.643  20.679  0.00  0.00    +0.000 C 
ATOM      2  N   UNL     1       2.503   4.825  20.193  0.00  0.00    +0.000 N 
ATOM      3  S   UNL     1       3.475   3.468  19.973  0.00  0.00    +0.000 S 
ATOM      4  C   UNL     1       4.595   4.439  19.007  0.00  0.00    +0.000 A 
ATOM      5  N   UNL     1       5.721   3.939  18.639  0.00  0.00    +0.000 NA
ATOM      6  N   UNL     1       4.102   5.693  18.747  0.00  0.00    +0.000 NA
ATOM      7  C   UNL     1       2.986   5.879  19.414  0.00  0.00    +0.000 A 
ENDROOT
BRANCH   7   8
ATOM      8  C   UNL     1       2.297   7.198  19.285  0.00  0.00    +0.000 A 
ATOM      9  C   UNL     1       1.738   7.796  20.423  0.00  0.00    +0.000 A 
ATOM     10  C   UNL     1       1.103   9.040  20.324  0.00  0.00    +0.000 A 
ATOM     11  C   UNL     1       1.036   9.687  19.094  0.00  0.00    +0.000 A 
ATOM     12 CL   UNL     1       0.272  11.223  18.968  0.00  0.00    +0.000 Cl
ATOM     13  C   UNL     1       1.567   9.090  17.952  0.00  0.00    +0.000 A 
ATOM     14  C   UNL     1       2.173   7.836  18.046  0.00  0.00    +0.000 A 
ENDBRANCH   7   8
BRANCH   5  15
ATOM     15  C   UNL     1       6.619   4.731  17.974  0.00  0.00    +0.000 C 
ATOM     16  O   UNL     1       7.446   5.481  18.485  0.00  0.00    +0.000 OA
BRANCH  15  17
ATOM     17  C   UNL     1       6.651   4.546  16.487  0.00  0.00    +0.000 A 
ATOM     18  C   UNL     1       5.763   3.640  15.885  0.00  0.00    +0.000 A 
ATOM     19  C   UNL     1       5.746   3.481  14.496  0.00  0.00    +0.000 A 
ATOM     20  C   UNL     1       6.623   4.223  13.705  0.00  0.00    +0.000 A 
ATOM     21 CL   UNL     1       6.596   4.039  11.996  0.00  0.00    +0.000 Cl
ATOM     22  C   UNL     1       7.514   5.120  14.290  0.00  0.00    +0.000 A 
ATOM     23  C   UNL     1       7.529   5.282  15.679  0.00  0.00    +0.000 A 
ENDBRANCH  15  17
ENDBRANCH   5  15
TORSDOF 3
ENDMDL
MODEL 4
REMARK VINA RESULT:      -7.8      0.110      1.015
REMARK  Name = 
REMARK  4 active torsions:
REMARK  status: ('A' for Active; 'I' for Inactive)
REMARK    1  A    between atoms: C_1  and  N_2
REMARK    2  A    between atoms: N_5  and  C_6
REMARK    3  A    between atoms: C_6  and  C_8
REMARK    4  A    between atoms: C_16  and  C_17
REMARK                            x       y       z     vdW  Elec       q    Type
REMARK                         _______ _______ _______ _____ _____    ______ ____
ROOT
ATOM      1  C   UNL     1       1.242   4.527  20.739  0.00  0.00    +0.000 C 
ATOM      2  N   UNL     1       2.586   4.725  20.238  0.00  0.00    +0.000 N 
ATOM      3  S   UNL     1       3.569   3.378  20.000  0.00  0.00    +0.000 S 
ATOM      4  C   UNL     1       4.667   4.365  19.025  0.00  0.00    +0.000 A 
ATOM      5  N   UNL     1       5.794   3.879  18.642  0.00  0.00    +0.000 NA
ATOM      6  N   UNL     1       4.159   5.615  18.776  0.00  0.00    +0.000 NA
ATOM      7  C   UNL     1       3.048   5.787  19.457  0.00  0.00    +0.000 A 
ENDROOT
BRANCH   7   8
ATOM      8  C   UNL     1       2.345   7.100  19.343  0.00  0.00    +0.000 A 
ATOM      9  C   UNL     1       2.303   7.752  18.103  0.00  0.00    +0.000 A 
ATOM     10  C   UNL     1       1.635   8.975  17.974  0.00  0.00    +0.000 A 
ATOM     11  C   UNL     1       1.002   9.539  19.078  0.00  0.00    +0.000 A 
ATOM     12 CL   UNL     1       0.165  11.033  18.923  0.00  0.00    +0.000 Cl
ATOM     13  C   UNL     1       1.059   8.910  20.321  0.00  0.00    +0.000 A 
ATOM     14  C   UNL     1       1.752   7.706  20.455  0.00  0.00    +0.000 A 
ENDBRANCH   7   8
BRANCH   5  15
ATOM     15  C   UNL     1       6.675   4.683  17.969  0.00  0.00    +0.000 C 
ATOM     16  O   UNL     1       7.513   5.426  18.474  0.00  0.00    +0.000 OA
BRANCH  15  17
ATOM     17  C   UNL     1       6.675   4.521  16.480  0.00  0.00    +0.000 A 
ATOM     18  C   UNL     1       5.729   3.675  15.878  0.00  0.00    +0.000 A 
ATOM     19  C   UNL     1       5.682   3.539  14.487  0.00  0.00    +0.000 A 
ATOM     20  C   UNL     1       6.587   4.246  13.693  0.00  0.00    +0.000 A 
ATOM     21 CL   UNL     1       6.524   4.092  11.983  0.00  0.00    +0.000 Cl
ATOM     22  C   UNL     1       7.535   5.082  14.279  0.00  0.00    +0.000 A 
ATOM     23  C   UNL     1       7.580   5.221  15.669  0.00  0.00    +0.000 A 
ENDBRANCH  15  17
ENDBRANCH   5  15
TORSDOF 3
ENDMDL
MODEL 5
REMARK VINA RESULT:      -7.5      2.364      2.888
REMARK  Name = 
REMARK  4 active torsions:
REMARK  status: ('A' for Active; 'I' for Inactive)
REMARK    1  A    between atoms: C_1  and  N_2
REMARK    2  A    between atoms: N_5  and  C_6
REMARK    3  A    between atoms: C_6  and  C_8
REMARK    4  A    between atoms: C_16  and  C_17
REMARK                            x       y       z     vdW  Elec       q    Type
REMARK                         _______ _______ _______ _____ _____    ______ ____
ROOT
ATOM      1  C   UNL     1       1.190   4.171  20.576  0.00  0.00    +0.000 C 
ATOM      2  N   UNL     1       2.318   4.286  19.675  0.00  0.00    +0.000 N 
ATOM      3  S   UNL     1       2.950   2.885  18.986  0.00  0.00    +0.000 S 
ATOM      4  C   UNL     1       3.820   3.873  17.804  0.00  0.00    +0.000 A 
ATOM      5  N   UNL     1       4.676   3.322  17.018  0.00  0.00    +0.000 NA
ATOM      6  N   UNL     1       3.463   5.195  17.869  0.00  0.00    +0.000 NA
ATOM      7  C   UNL     1       2.668   5.391  18.897  0.00  0.00    +0.000 A 
ENDROOT
BRANCH   7   8
ATOM      8  C   UNL     1       2.180   6.778  19.159  0.00  0.00    +0.000 A 
ATOM      9  C   UNL     1       2.154   7.708  18.111  0.00  0.00    +0.000 A 
ATOM     10  C   UNL     1       1.685   9.008  18.336  0.00  0.00    +0.000 A 
ATOM     11  C   UNL     1       1.234   9.373  19.601  0.00  0.00    +0.000 A 
ATOM     12 CL   UNL     1       0.642  10.963  19.880  0.00  0.00    +0.000 Cl
ATOM     13  C   UNL     1       1.280   8.464  20.656  0.00  0.00    +0.000 A 
ATOM     14  C   UNL     1       1.777   7.177  20.438  0.00  0.00    +0.000 A 
ENDBRANCH   7   8
BRANCH   5  15
ATOM     15  C   UNL     1       5.412   4.110  16.173  0.00  0.00    +0.000 C 
ATOM     16  O   UNL     1       5.355   4.113  14.946  0.00  0.00    +0.000 OA
BRANCH  15  17
ATOM     17  C   UNL     1       6.266   5.141  16.848  0.00  0.00    +0.000 A 
ATOM     18  C   UNL     1       6.164   6.485  16.455  0.00  0.00    +0.000 A 
ATOM     19  C   UNL     1       6.920   7.471  17.097  0.00  0.00    +0.000 A 
ATOM     20  C   UNL     1       7.786   7.113  18.131  0.00  0.00    +0.000 A 
ATOM     21 CL   UNL     1       8.706   8.323  18.932  0.00  0.00    +0.000 Cl
ATOM     22  C   UNL     1       7.901   5.781  18.525  0.00  0.00    +0.000 A 
ATOM     23  C   UNL     1       7.143   4.796  17.886  0.00  0.00    +0.000 A 
ENDBRANCH  15  17
ENDBRANCH   5  15
TORSDOF 3
ENDMDL
MODEL 6
REMARK VINA RESULT:      -7.4      2.364      2.914
REMARK  Name = 
REMARK  4 active torsions:
REMARK  status: ('A' for Active; 'I' for Inactive)
REMARK    1  A    between atoms: C_1  and  N_2
REMARK    2  A    between atoms: N_5  and  C_6
REMARK    3  A    between atoms: C_6  and  C_8
REMARK    4  A    between atoms: C_16  and  C_17
REMARK                            x       y       z     vdW  Elec       q    Type
REMARK                         _______ _______ _______ _____ _____    ______ ____
ROOT
ATOM      1  C   UNL     1       1.249   4.092  20.684  0.00  0.00    +0.000 C 
ATOM      2  N   UNL     1       2.370   4.215  19.776  0.00  0.00    +0.000 N 
ATOM      3  S   UNL     1       3.013   2.819  19.088  0.00  0.00    +0.000 S 
ATOM      4  C   UNL     1       3.865   3.811  17.897  0.00  0.00    +0.000 A 
ATOM      5  N   UNL     1       4.721   3.266  17.108  0.00  0.00    +0.000 NA
ATOM      6  N   UNL     1       3.493   5.130  17.959  0.00  0.00    +0.000 NA
ATOM      7  C   UNL     1       2.703   5.321  18.991  0.00  0.00    +0.000 A 
ENDROOT
BRANCH   7   8
ATOM      8  C   UNL     1       2.201   6.704  19.251  0.00  0.00    +0.000 A 
ATOM      9  C   UNL     1       2.185   7.637  18.206  0.00  0.00    +0.000 A 
ATOM     10  C   UNL     1       1.703   8.933  18.427  0.00  0.00    +0.000 A 
ATOM     11  C   UNL     1       1.231   9.291  19.687  0.00  0.00    +0.000 A 
ATOM     12 CL   UNL     1       0.624  10.876  19.962  0.00  0.00    +0.000 Cl
ATOM     13  C   UNL     1       1.267   8.378  20.739  0.00  0.00    +0.000 A 
ATOM     14  C   UNL     1       1.776   7.095  20.525  0.00  0.00    +0.000 A 
ENDBRANCH   7   8
BRANCH   5  15
ATOM     15  C   UNL     1       5.444   4.059  16.255  0.00  0.00    +0.000 C 
ATOM     16  O   UNL     1       5.425   4.013  15.028  0.00  0.00    +0.000 OA
BRANCH  15  17
ATOM     17  C   UNL     1       6.224   5.156  16.914  0.00  0.00    +0.000 A 
ATOM     18  C   UNL     1       7.150   4.837  17.920  0.00  0.00    +0.000 A 
ATOM     19  C   UNL     1       7.918   5.838  18.520  0.00  0.00    +0.000 A 
ATOM     20  C   UNL     1       7.758   7.165  18.119  0.00  0.00    +0.000 A 
ATOM     21 CL   UNL     1       8.712   8.398  18.845  0.00  0.00    +0.000 Cl
ATOM     22  C   UNL     1       6.838   7.496  17.127  0.00  0.00    +0.000 A 
ATOM     23  C   UNL     1       6.071   6.494  16.524  0.00  0.00    +0.000 A 
ENDBRANCH  15  17
ENDBRANCH   5  15
TORSDOF 3
ENDMDL
MODEL 7
REMARK VINA RESULT:      -7.4      2.567      8.190
REMARK  Name = 
REMARK  4 active torsions:
REMARK  status: ('A' for Active; 'I' for Inactive)
REMARK    1  A    between atoms: C_1  and  N_2
REMARK    2  A    between atoms: N_5  and  C_6
REMARK    3  A    between atoms: C_6  and  C_8
REMARK    4  A    between atoms: C_16  and  C_17
REMARK                            x       y       z     vdW  Elec       q    Type
REMARK                         _______ _______ _______ _____ _____    ______ ____
ROOT
ATOM      1  C   UNL     1       3.824   2.751  19.684  0.00  0.00    +0.000 C 
ATOM      2  N   UNL     1       3.144   4.028  19.621  0.00  0.00    +0.000 N 
ATOM      3  S   UNL     1       2.203   4.512  20.931  0.00  0.00    +0.000 S 
ATOM      4  C   UNL     1       2.189   6.163  20.298  0.00  0.00    +0.000 A 
ATOM      5  N   UNL     1       1.437   7.051  20.846  0.00  0.00    +0.000 NA
ATOM      6  N   UNL     1       3.034   6.316  19.228  0.00  0.00    +0.000 NA
ATOM      7  C   UNL     1       3.518   5.147  18.874  0.00  0.00    +0.000 A 
ENDROOT
BRANCH   7   8
ATOM      8  C   UNL     1       4.448   5.092  17.706  0.00  0.00    +0.000 A 
ATOM      9  C   UNL     1       5.495   6.019  17.615  0.00  0.00    +0.000 A 
ATOM     10  C   UNL     1       6.384   5.972  16.535  0.00  0.00    +0.000 A 
ATOM     11  C   UNL     1       6.234   4.995  15.556  0.00  0.00    +0.000 A 
ATOM     12 CL   UNL     1       7.332   4.922  14.235  0.00  0.00    +0.000 Cl
ATOM     13  C   UNL     1       5.181   4.085  15.624  0.00  0.00    +0.000 A 
ATOM     14  C   UNL     1       4.276   4.151  16.685  0.00  0.00    +0.000 A 
ENDBRANCH   7   8
BRANCH   5  15
ATOM     15  C   UNL     1       1.362   8.300  20.289  0.00  0.00    +0.000 C 
ATOM     16  O   UNL     1       1.851   8.649  19.217  0.00  0.00    +0.000 OA
BRANCH  15  17
ATOM     17  C   UNL     1       0.490   9.273  21.023  0.00  0.00    +0.000 A 
ATOM     18  C   UNL     1       0.241   9.080  22.391  0.00  0.00    +0.000 A 
ATOM     19  C   UNL     1      -0.536   9.997  23.106  0.00  0.00    +0.000 A 
ATOM     20  C   UNL     1      -1.072  11.107  22.452  0.00  0.00    +0.000 A 
ATOM     21 CL   UNL     1      -2.017  12.242  23.331  0.00  0.00    +0.000 Cl
ATOM     22  C   UNL     1      -0.839  11.305  21.093  0.00  0.00    +0.000 A 
ATOM     23  C   UNL     1      -0.059  10.391  20.378  0.00  0.00    +0.000 A 
ENDBRANCH  15  17
ENDBRANCH   5  15
TORSDOF 3
ENDMDL
MODEL 8
REMARK VINA RESULT:      -7.4      2.376      8.046
REMARK  Name = 
REMARK  4 active torsions:
REMARK  status: ('A' for Active; 'I' for Inactive)
REMARK    1  A    between atoms: C_1  and  N_2
REMARK    2  A    between atoms: N_5  and  C_6
REMARK    3  A    between atoms: C_6  and  C_8
REMARK    4  A    between atoms: C_16  and  C_17
REMARK                            x       y       z     vdW  Elec       q    Type
REMARK                         _______ _______ _______ _____ _____    ______ ____
ROOT
ATOM      1  C   UNL     1       4.294   2.647  19.501  0.00  0.00    +0.000 C 
ATOM      2  N   UNL     1       3.556   3.891  19.436  0.00  0.00    +0.000 N 
ATOM      3  S   UNL     1       2.592   4.331  20.745  0.00  0.00    +0.000 S 
ATOM      4  C   UNL     1       2.501   5.980  20.110  0.00  0.00    +0.000 A 
ATOM      5  N   UNL     1       1.707   6.831  20.656  0.00  0.00    +0.000 NA
ATOM      6  N   UNL     1       3.338   6.170  19.040  0.00  0.00    +0.000 NA
ATOM      7  C   UNL     1       3.877   5.025  18.688  0.00  0.00    +0.000 A 
ENDROOT
BRANCH   7   8
ATOM      8  C   UNL     1       4.808   5.012  17.519  0.00  0.00    +0.000 A 
ATOM      9  C   UNL     1       4.450   4.307  16.363  0.00  0.00    +0.000 A 
ATOM     10  C   UNL     1       5.304   4.297  15.253  0.00  0.00    +0.000 A 
ATOM     11  C   UNL     1       6.506   4.997  15.297  0.00  0.00    +0.000 A 
ATOM     12 CL   UNL     1       7.551   5.002  13.932  0.00  0.00    +0.000 Cl
ATOM     13  C   UNL     1       6.882   5.681  16.451  0.00  0.00    +0.000 A 
ATOM     14  C   UNL     1       6.044   5.665  17.568  0.00  0.00    +0.000 A 
ENDBRANCH   7   8
BRANCH   5  15
ATOM     15  C   UNL     1       1.575   8.075  20.097  0.00  0.00    +0.000 C 
ATOM     16  O   UNL     1       1.961   8.417  18.982  0.00  0.00    +0.000 OA
BRANCH  15  17
ATOM     17  C   UNL     1       0.767   9.050  20.899  0.00  0.00    +0.000 A 
ATOM     18  C   UNL     1       0.152  10.134  20.251  0.00  0.00    +0.000 A 
ATOM     19  C   UNL     1      -0.640  11.033  20.972  0.00  0.00    +0.000 A 
ATOM     20  C   UNL     1      -0.814  10.855  22.345  0.00  0.00    +0.000 A 
ATOM     21 CL   UNL     1      -1.797  11.951  23.231  0.00  0.00    +0.000 Cl
ATOM     22  C   UNL     1      -0.202   9.788  23.000  0.00  0.00    +0.000 A 
ATOM     23  C   UNL     1       0.587   8.886  22.280  0.00  0.00    +0.000 A 
ENDBRANCH  15  17
ENDBRANCH   5  15
TORSDOF 3
ENDMDL
MODEL 9
REMARK VINA RESULT:      -7.4      2.370      8.054
REMARK  Name = 
REMARK  4 active torsions:
REMARK  status: ('A' for Active; 'I' for Inactive)
REMARK    1  A    between atoms: C_1  and  N_2
REMARK    2  A    between atoms: N_5  and  C_6
REMARK    3  A    between atoms: C_6  and  C_8
REMARK    4  A    between atoms: C_16  and  C_17
REMARK                            x       y       z     vdW  Elec       q    Type
REMARK                         _______ _______ _______ _____ _____    ______ ____
ROOT
ATOM      1  C   UNL     1       4.289   2.679  19.400  0.00  0.00    +0.000 C 
ATOM      2  N   UNL     1       3.553   3.923  19.332  0.00  0.00    +0.000 N 
ATOM      3  S   UNL     1       2.561   4.349  20.625  0.00  0.00    +0.000 S 
ATOM      4  C   UNL     1       2.483   6.004  20.006  0.00  0.00    +0.000 A 
ATOM      5  N   UNL     1       1.678   6.850  20.544  0.00  0.00    +0.000 NA
ATOM      6  N   UNL     1       3.343   6.207  18.957  0.00  0.00    +0.000 NA
ATOM      7  C   UNL     1       3.890   5.066  18.604  0.00  0.00    +0.000 A 
ENDROOT
BRANCH   7   8
ATOM      8  C   UNL     1       4.847   5.065  17.456  0.00  0.00    +0.000 A 
ATOM      9  C   UNL     1       4.541   4.324  16.307  0.00  0.00    +0.000 A 
ATOM     10  C   UNL     1       5.419   4.325  15.216  0.00  0.00    +0.000 A 
ATOM     11  C   UNL     1       6.592   5.073  15.271  0.00  0.00    +0.000 A 
ATOM     12 CL   UNL     1       7.666   5.091  13.928  0.00  0.00    +0.000 Cl
ATOM     13  C   UNL     1       6.916   5.793  16.419  0.00  0.00    +0.000 A 
ATOM     14  C   UNL     1       6.056   5.766  17.518  0.00  0.00    +0.000 A 
ENDBRANCH   7   8
BRANCH   5  15
ATOM     15  C   UNL     1       1.557   8.100  19.997  0.00  0.00    +0.000 C 
ATOM     16  O   UNL     1       1.968   8.454  18.895  0.00  0.00    +0.000 OA
BRANCH  15  17
ATOM     17  C   UNL     1       0.731   9.066  20.791  0.00  0.00    +0.000 A 
ATOM     18  C   UNL     1       0.597   8.882  22.177  0.00  0.00    +0.000 A 
ATOM     19  C   UNL     1      -0.134   9.793  22.945  0.00  0.00    +0.000 A 
ATOM     20  C   UNL     1      -0.740  10.888  22.328  0.00  0.00    +0.000 A 
ATOM     21 CL   UNL     1      -1.628  12.017  23.271  0.00  0.00    +0.000 Cl
ATOM     22  C   UNL     1      -0.621  11.077  20.952  0.00  0.00    +0.000 A 
ATOM     23  C   UNL     1       0.113  10.169  20.184  0.00  0.00    +0.000 A 
ENDBRANCH  15  17
ENDBRANCH   5  15
TORSDOF 3
ENDMDL
