MODEL 1
REMARK VINA RESULT:      -6.9      0.000      0.000
REMARK  Name = 
REMARK  7 active torsions:
REMARK  status: ('A' for Active; 'I' for Inactive)
REMARK    1  A    between atoms: C_2  and  C_3
REMARK    2  A    between atoms: C_3  and  C_4
REMARK    3  A    between atoms: C_4  and  C_5
REMARK    4  A    between atoms: C_5  and  N_6
REMARK    5  A    between atoms: C_9  and  N_10
REMARK    6  A    between atoms: C_13  and  S_14
REMARK    7  A    between atoms: S_14  and  C_15
REMARK                            x       y       z     vdW  Elec       q    Type
REMARK                         _______ _______ _______ _____ _____    ______ ____
ROOT
ATOM      1  N   UNL     1       5.849   4.948  16.358  0.00  0.00    +0.000 N 
ATOM      2  C   UNL     1       7.201   5.208  16.433  0.00  0.00    +0.000 A 
ATOM      3  N   UNL     1       7.869   5.471  17.518  0.00  0.00    +0.000 NA
ATOM      4  C   UNL     1       7.176   5.462  18.724  0.00  0.00    +0.000 A 
ATOM      5  C   UNL     1       5.842   5.262  18.783  0.00  0.00    +0.000 A 
ATOM      6  N   UNL     1       4.927   5.253  19.798  0.00  0.00    +0.000 NA
ATOM      7  C   UNL     1       3.816   4.982  19.172  0.00  0.00    +0.000 A 
ATOM      8  N   UNL     1       3.883   4.796  17.797  0.00  0.00    +0.000 NA
ATOM      9  C   UNL     1       5.139   4.977  17.529  0.00  0.00    +0.000 A 
ENDROOT
BRANCH   4  10
ATOM     10  N   UNL     1       7.894   5.674  19.884  0.00  0.00    +0.000 N 
ATOM     11  H   UNL     1       8.307   6.599  19.884  0.00  0.00    +0.000 HD
ATOM     12  H   UNL     1       7.365   5.442  20.719  0.00  0.00    +0.000 HD
ENDBRANCH   4  10
BRANCH   1  13
ATOM     13  C   UNL     1       5.199   4.583  15.109  0.00  0.00    +0.000 C 
BRANCH  13  14
ATOM     14  C   UNL     1       6.143   4.731  13.906  0.00  0.00    +0.000 C 
BRANCH  14  15
ATOM     15  C   UNL     1       6.307   3.448  13.095  0.00  0.00    +0.000 C 
BRANCH  15  17
ATOM     16  N   UNL     1       4.178   3.189  11.326  0.00  0.00    +0.000 NA
ATOM     17  C   UNL     1       5.143   3.307  12.127  0.00  0.00    +0.000 C 
ENDBRANCH  15  17
ENDBRANCH  14  15
ENDBRANCH  13  14
ENDBRANCH   1  13
BRANCH   7  18
ATOM     18  S   UNL     1       2.284   4.895  19.989  0.00  0.00    +0.000 S 
BRANCH  18  19
ATOM     19  C   UNL     1       1.851   6.620  20.089  0.00  0.00    +0.000 A 
ATOM     20  C   UNL     1       2.121   7.452  18.998  0.00  0.00    +0.000 A 
ATOM     21  C   UNL     1       1.761   8.799  19.042  0.00  0.00    +0.000 A 
ATOM     22 CL   UNL     1       2.101   9.813  17.693  0.00  0.00    +0.000 Cl
ATOM     23  C   UNL     1       1.125   9.329  20.159  0.00  0.00    +0.000 A 
ATOM     24  C   UNL     1       0.847   8.497  21.240  0.00  0.00    +0.000 A 
ATOM     25 CL   UNL     1       0.048   9.136  22.623  0.00  0.00    +0.000 Cl
ATOM     26  C   UNL     1       1.200   7.145  21.209  0.00  0.00    +0.000 A 
ENDBRANCH  18  19
ENDBRANCH   7  18
TORSDOF 7
ENDMDL
MODEL 2
REMARK VINA RESULT:      -6.8      0.398      1.881
REMARK  Name = 
REMARK  7 active torsions:
REMARK  status: ('A' for Active; 'I' for Inactive)
REMARK    1  A    between atoms: C_2  and  C_3
REMARK    2  A    between atoms: C_3  and  C_4
REMARK    3  A    between atoms: C_4  and  C_5
REMARK    4  A    between atoms: C_5  and  N_6
REMARK    5  A    between atoms: C_9  and  N_10
REMARK    6  A    between atoms: C_13  and  S_14
REMARK    7  A    between atoms: S_14  and  C_15
REMARK                            x       y       z     vdW  Elec       q    Type
REMARK                         _______ _______ _______ _____ _____    ______ ____
ROOT
ATOM      1  N   UNL     1       5.840   4.508  16.220  0.00  0.00    +0.000 N 
ATOM      2  C   UNL     1       7.162   4.893  16.169  0.00  0.00    +0.000 A 
ATOM      3  N   UNL     1       7.842   5.422  17.144  0.00  0.00    +0.000 NA
ATOM      4  C   UNL     1       7.199   5.592  18.365  0.00  0.00    +0.000 A 
ATOM      5  C   UNL     1       5.893   5.293  18.535  0.00  0.00    +0.000 A 
ATOM      6  N   UNL     1       5.023   5.406  19.583  0.00  0.00    +0.000 NA
ATOM      7  C   UNL     1       3.920   4.922  19.084  0.00  0.00    +0.000 A 
ATOM      8  N   UNL     1       3.952   4.474  17.768  0.00  0.00    +0.000 NA
ATOM      9  C   UNL     1       5.175   4.706  17.402  0.00  0.00    +0.000 A 
ENDROOT
BRANCH   4  10
ATOM     10  N   UNL     1       7.936   6.090  19.421  0.00  0.00    +0.000 N 
ATOM     11  H   UNL     1       7.754   5.559  20.265  0.00  0.00    +0.000 HD
ATOM     12  H   UNL     1       8.918   6.205  19.192  0.00  0.00    +0.000 HD
ENDBRANCH   4  10
BRANCH   1  13
ATOM     13  C   UNL     1       5.181   3.848  15.104  0.00  0.00    +0.000 C 
BRANCH  13  14
ATOM     14  C   UNL     1       5.620   4.433  13.753  0.00  0.00    +0.000 C 
BRANCH  14  15
ATOM     15  C   UNL     1       5.867   3.374  12.680  0.00  0.00    +0.000 C 
BRANCH  15  17
ATOM     16  N   UNL     1       3.728   3.338  10.903  0.00  0.00    +0.000 NA
ATOM     17  C   UNL     1       4.698   3.354  11.708  0.00  0.00    +0.000 C 
ENDBRANCH  15  17
ENDBRANCH  14  15
ENDBRANCH  13  14
ENDBRANCH   1  13
BRANCH   7  18
ATOM     18  S   UNL     1       2.435   4.867  19.985  0.00  0.00    +0.000 S 
BRANCH  18  19
ATOM     19  C   UNL     1       1.954   6.581  19.960  0.00  0.00    +0.000 A 
ATOM     20  C   UNL     1       1.306   7.121  21.076  0.00  0.00    +0.000 A 
ATOM     21  C   UNL     1       0.950   8.469  21.092  0.00  0.00    +0.000 A 
ATOM     22 CL   UNL     1       0.151   9.121  22.470  0.00  0.00    +0.000 Cl
ATOM     23  C   UNL     1       1.239   9.294  20.009  0.00  0.00    +0.000 A 
ATOM     24  C   UNL     1       1.894   8.757  18.904  0.00  0.00    +0.000 A 
ATOM     25 CL   UNL     1       2.271   9.768  17.564  0.00  0.00    +0.000 Cl
ATOM     26  C   UNL     1       2.258   7.409  18.875  0.00  0.00    +0.000 A 
ENDBRANCH  18  19
ENDBRANCH   7  18
TORSDOF 7
ENDMDL
MODEL 3
REMARK VINA RESULT:      -6.7      4.694      7.896
REMARK  Name = 
REMARK  7 active torsions:
REMARK  status: ('A' for Active; 'I' for Inactive)
REMARK    1  A    between atoms: C_2  and  C_3
REMARK    2  A    between atoms: C_3  and  C_4
REMARK    3  A    between atoms: C_4  and  C_5
REMARK    4  A    between atoms: C_5  and  N_6
REMARK    5  A    between atoms: C_9  and  N_10
REMARK    6  A    between atoms: C_13  and  S_14
REMARK    7  A    between atoms: S_14  and  C_15
REMARK                            x       y       z     vdW  Elec       q    Type
REMARK                         _______ _______ _______ _____ _____    ______ ____
ROOT
ATOM      1  N   UNL     1       4.403   3.774  17.246  0.00  0.00    +0.000 N 
ATOM      2  C   UNL     1       4.695   3.790  18.593  0.00  0.00    +0.000 A 
ATOM      3  N   UNL     1       5.828   4.146  19.124  0.00  0.00    +0.000 NA
ATOM      4  C   UNL     1       6.836   4.581  18.270  0.00  0.00    +0.000 A 
ATOM      5  C   UNL     1       6.692   4.574  16.928  0.00  0.00    +0.000 A 
ATOM      6  N   UNL     1       7.513   4.890  15.883  0.00  0.00    +0.000 NA
ATOM      7  C   UNL     1       6.747   4.676  14.849  0.00  0.00    +0.000 A 
ATOM      8  N   UNL     1       5.450   4.239  15.091  0.00  0.00    +0.000 NA
ATOM      9  C   UNL     1       5.396   4.158  16.384  0.00  0.00    +0.000 A 
ENDROOT
BRANCH   4  10
ATOM     10  N   UNL     1       8.017   5.023  18.834  0.00  0.00    +0.000 N 
ATOM     11  H   UNL     1       8.693   4.270  18.882  0.00  0.00    +0.000 HD
ATOM     12  H   UNL     1       8.358   5.878  18.407  0.00  0.00    +0.000 HD
ENDBRANCH   4  10
BRANCH   1  13
ATOM     13  C   UNL     1       3.079   3.439  16.746  0.00  0.00    +0.000 C 
BRANCH  13  14
ATOM     14  C   UNL     1       1.970   3.904  17.702  0.00  0.00    +0.000 C 
BRANCH  14  15
ATOM     15  C   UNL     1       1.226   2.754  18.379  0.00  0.00    +0.000 C 
BRANCH  15  17
ATOM     16  N   UNL     1       1.242   3.132  21.134  0.00  0.00    +0.000 NA
ATOM     17  C   UNL     1       1.235   2.961  19.885  0.00  0.00    +0.000 C 
ENDBRANCH  15  17
ENDBRANCH  14  15
ENDBRANCH  13  14
ENDBRANCH   1  13
BRANCH   7  18
ATOM     18  S   UNL     1       7.309   4.874  13.216  0.00  0.00    +0.000 S 
BRANCH  18  19
ATOM     19  C   UNL     1       6.263   3.721  12.351  0.00  0.00    +0.000 A 
ATOM     20  C   UNL     1       5.089   4.188  11.753  0.00  0.00    +0.000 A 
ATOM     21  C   UNL     1       4.271   3.310  11.042  0.00  0.00    +0.000 A 
ATOM     22 CL   UNL     1       2.827   3.897  10.311  0.00  0.00    +0.000 Cl
ATOM     23  C   UNL     1       4.612   1.967  10.912  0.00  0.00    +0.000 A 
ATOM     24  C   UNL     1       5.787   1.507  11.499  0.00  0.00    +0.000 A 
ATOM     25 CL   UNL     1       6.230  -0.147  11.334  0.00  0.00    +0.000 Cl
ATOM     26  C   UNL     1       6.617   2.376  12.212  0.00  0.00    +0.000 A 
ENDBRANCH  18  19
ENDBRANCH   7  18
TORSDOF 7
ENDMDL
MODEL 4
REMARK VINA RESULT:      -6.7      2.909      4.512
REMARK  Name = 
REMARK  7 active torsions:
REMARK  status: ('A' for Active; 'I' for Inactive)
REMARK    1  A    between atoms: C_2  and  C_3
REMARK    2  A    between atoms: C_3  and  C_4
REMARK    3  A    between atoms: C_4  and  C_5
REMARK    4  A    between atoms: C_5  and  N_6
REMARK    5  A    between atoms: C_9  and  N_10
REMARK    6  A    between atoms: C_13  and  S_14
REMARK    7  A    between atoms: S_14  and  C_15
REMARK                            x       y       z     vdW  Elec       q    Type
REMARK                         _______ _______ _______ _____ _____    ______ ____
ROOT
ATOM      1  N   UNL     1       5.906   3.860  12.811  0.00  0.00    +0.000 N 
ATOM      2  C   UNL     1       6.627   4.395  11.765  0.00  0.00    +0.000 A 
ATOM      3  N   UNL     1       7.664   5.174  11.871  0.00  0.00    +0.000 NA
ATOM      4  C   UNL     1       8.116   5.480  13.150  0.00  0.00    +0.000 A 
ATOM      5  C   UNL     1       7.474   5.054  14.259  0.00  0.00    +0.000 A 
ATOM      6  N   UNL     1       7.665   5.244  15.598  0.00  0.00    +0.000 NA
ATOM      7  C   UNL     1       6.700   4.541  16.122  0.00  0.00    +0.000 A 
ATOM      8  N   UNL     1       5.849   3.870  15.251  0.00  0.00    +0.000 NA
ATOM      9  C   UNL     1       6.308   4.185  14.080  0.00  0.00    +0.000 A 
ENDROOT
BRANCH   4  10
ATOM     10  N   UNL     1       9.256   6.251  13.266  0.00  0.00    +0.000 N 
ATOM     11  H   UNL     1       9.071   7.205  12.980  0.00  0.00    +0.000 HD
ATOM     12  H   UNL     1       9.702   6.154  14.173  0.00  0.00    +0.000 HD
ENDBRANCH   4  10
BRANCH   1  13
ATOM     13  C   UNL     1       4.808   2.931  12.599  0.00  0.00    +0.000 C 
BRANCH  13  14
ATOM     14  C   UNL     1       4.435   2.813  11.113  0.00  0.00    +0.000 C 
BRANCH  14  15
ATOM     15  C   UNL     1       2.988   3.200  10.813  0.00  0.00    +0.000 C 
BRANCH  15  17
ATOM     16  N   UNL     1       2.895   4.714   8.484  0.00  0.00    +0.000 NA
ATOM     17  C   UNL     1       2.937   4.027   9.539  0.00  0.00    +0.000 C 
ENDBRANCH  15  17
ENDBRANCH  14  15
ENDBRANCH  13  14
ENDBRANCH   1  13
BRANCH   7  18
ATOM     18  S   UNL     1       6.428   4.463  17.837  0.00  0.00    +0.000 S 
BRANCH  18  19
ATOM     19  C   UNL     1       4.706   4.906  17.932  0.00  0.00    +0.000 A 
ATOM     20  C   UNL     1       4.344   6.252  17.811  0.00  0.00    +0.000 A 
ATOM     21  C   UNL     1       2.999   6.618  17.850  0.00  0.00    +0.000 A 
ATOM     22 CL   UNL     1       2.566   8.278  17.701  0.00  0.00    +0.000 Cl
ATOM     23  C   UNL     1       2.003   5.658  18.000  0.00  0.00    +0.000 A 
ATOM     24  C   UNL     1       2.365   4.318  18.110  0.00  0.00    +0.000 A 
ATOM     25 CL   UNL     1       1.145   3.118  18.282  0.00  0.00    +0.000 Cl
ATOM     26  C   UNL     1       3.709   3.936  18.071  0.00  0.00    +0.000 A 
ENDBRANCH  18  19
ENDBRANCH   7  18
TORSDOF 7
ENDMDL
MODEL 5
REMARK VINA RESULT:      -6.6      2.975      4.682
REMARK  Name = 
REMARK  7 active torsions:
REMARK  status: ('A' for Active; 'I' for Inactive)
REMARK    1  A    between atoms: C_2  and  C_3
REMARK    2  A    between atoms: C_3  and  C_4
REMARK    3  A    between atoms: C_4  and  C_5
REMARK    4  A    between atoms: C_5  and  N_6
REMARK    5  A    between atoms: C_9  and  N_10
REMARK    6  A    between atoms: C_13  and  S_14
REMARK    7  A    between atoms: S_14  and  C_15
REMARK                            x       y       z     vdW  Elec       q    Type
REMARK                         _______ _______ _______ _____ _____    ______ ____
ROOT
ATOM      1  N   UNL     1       6.068   3.796  12.643  0.00  0.00    +0.000 N 
ATOM      2  C   UNL     1       6.802   4.389  11.638  0.00  0.00    +0.000 A 
ATOM      3  N   UNL     1       7.796   5.212  11.803  0.00  0.00    +0.000 NA
ATOM      4  C   UNL     1       8.185   5.507  13.106  0.00  0.00    +0.000 A 
ATOM      5  C   UNL     1       7.521   5.025  14.178  0.00  0.00    +0.000 A 
ATOM      6  N   UNL     1       7.652   5.190  15.528  0.00  0.00    +0.000 NA
ATOM      7  C   UNL     1       6.702   4.432  15.997  0.00  0.00    +0.000 A 
ATOM      8  N   UNL     1       5.918   3.743  15.079  0.00  0.00    +0.000 NA
ATOM      9  C   UNL     1       6.406   4.108  13.934  0.00  0.00    +0.000 A 
ENDROOT
BRANCH   4  10
ATOM     10  N   UNL     1       9.282   6.326  13.284  0.00  0.00    +0.000 N 
ATOM     11  H   UNL     1       9.880   6.305  12.466  0.00  0.00    +0.000 HD
ATOM     12  H   UNL     1       9.027   7.256  13.603  0.00  0.00    +0.000 HD
ENDBRANCH   4  10
BRANCH   1  13
ATOM     13  C   UNL     1       5.023   2.823  12.367  0.00  0.00    +0.000 C 
BRANCH  13  14
ATOM     14  C   UNL     1       3.781   3.476  11.743  0.00  0.00    +0.000 C 
BRANCH  14  15
ATOM     15  C   UNL     1       3.427   2.923  10.364  0.00  0.00    +0.000 C 
BRANCH  15  17
ATOM     16  N   UNL     1       2.358   4.954   8.794  0.00  0.00    +0.000 NA
ATOM     17  C   UNL     1       2.842   4.033   9.506  0.00  0.00    +0.000 C 
ENDBRANCH  15  17
ENDBRANCH  14  15
ENDBRANCH  13  14
ENDBRANCH   1  13
BRANCH   7  18
ATOM     18  S   UNL     1       6.369   4.299  17.698  0.00  0.00    +0.000 S 
BRANCH  18  19
ATOM     19  C   UNL     1       4.680   4.860  17.762  0.00  0.00    +0.000 A 
ATOM     20  C   UNL     1       3.659   3.920  17.940  0.00  0.00    +0.000 A 
ATOM     21  C   UNL     1       2.332   4.339  18.025  0.00  0.00    +0.000 A 
ATOM     22 CL   UNL     1       1.085   3.173  18.243  0.00  0.00    +0.000 Cl
ATOM     23  C   UNL     1       2.005   5.689  17.944  0.00  0.00    +0.000 A 
ATOM     24  C   UNL     1       3.023   6.624  17.778  0.00  0.00    +0.000 A 
ATOM     25 CL   UNL     1       2.636   8.297  17.690  0.00  0.00    +0.000 Cl
ATOM     26  C   UNL     1       4.358   6.218  17.692  0.00  0.00    +0.000 A 
ENDBRANCH  18  19
ENDBRANCH   7  18
TORSDOF 7
ENDMDL
MODEL 6
REMARK VINA RESULT:      -6.5      1.037      1.111
REMARK  Name = 
REMARK  7 active torsions:
REMARK  status: ('A' for Active; 'I' for Inactive)
REMARK    1  A    between atoms: C_2  and  C_3
REMARK    2  A    between atoms: C_3  and  C_4
REMARK    3  A    between atoms: C_4  and  C_5
REMARK    4  A    between atoms: C_5  and  N_6
REMARK    5  A    between atoms: C_9  and  N_10
REMARK    6  A    between atoms: C_13  and  S_14
REMARK    7  A    between atoms: S_14  and  C_15
REMARK                            x       y       z     vdW  Elec       q    Type
REMARK                         _______ _______ _______ _____ _____    ______ ____
ROOT
ATOM      1  N   UNL     1       5.753   4.737  15.264  0.00  0.00    +0.000 N 
ATOM      2  C   UNL     1       6.980   5.337  15.078  0.00  0.00    +0.000 A 
ATOM      3  N   UNL     1       7.631   6.034  15.963  0.00  0.00    +0.000 NA
ATOM      4  C   UNL     1       7.064   6.169  17.226  0.00  0.00    +0.000 A 
ATOM      5  C   UNL     1       5.848   5.666  17.524  0.00  0.00    +0.000 A 
ATOM      6  N   UNL     1       5.054   5.695  18.636  0.00  0.00    +0.000 NA
ATOM      7  C   UNL     1       4.017   5.001  18.259  0.00  0.00    +0.000 A 
ATOM      8  N   UNL     1       4.025   4.483  16.970  0.00  0.00    +0.000 NA
ATOM      9  C   UNL     1       5.157   4.895  16.487  0.00  0.00    +0.000 A 
ENDROOT
BRANCH   4  10
ATOM     10  N   UNL     1       7.783   6.851  18.188  0.00  0.00    +0.000 N 
ATOM     11  H   UNL     1       7.168   7.421  18.757  0.00  0.00    +0.000 HD
ATOM     12  H   UNL     1       8.409   6.246  18.710  0.00  0.00    +0.000 HD
ENDBRANCH   4  10
BRANCH   1  13
ATOM     13  C   UNL     1       5.135   3.907  14.243  0.00  0.00    +0.000 C 
BRANCH  13  14
ATOM     14  C   UNL     1       6.032   3.758  13.004  0.00  0.00    +0.000 C 
BRANCH  14  15
ATOM     15  C   UNL     1       5.563   2.673  12.037  0.00  0.00    +0.000 C 
BRANCH  15  17
ATOM     16  N   UNL     1       3.388   3.605  10.577  0.00  0.00    +0.000 NA
ATOM     17  C   UNL     1       4.374   3.182  11.239  0.00  0.00    +0.000 C 
ENDBRANCH  15  17
ENDBRANCH  14  15
ENDBRANCH  13  14
ENDBRANCH   1  13
BRANCH   7  18
ATOM     18  S   UNL     1       2.638   4.753  19.288  0.00  0.00    +0.000 S 
BRANCH  18  19
ATOM     19  C   UNL     1       2.125   6.432  19.585  0.00  0.00    +0.000 A 
ATOM     20  C   UNL     1       2.298   7.383  18.575  0.00  0.00    +0.000 A 
ATOM     21  C   UNL     1       1.873   8.697  18.773  0.00  0.00    +0.000 A 
ATOM     22 CL   UNL     1       2.093   9.859  17.522  0.00  0.00    +0.000 Cl
ATOM     23  C   UNL     1       1.268   9.077  19.967  0.00  0.00    +0.000 A 
ATOM     24  C   UNL     1       1.087   8.126  20.967  0.00  0.00    +0.000 A 
ATOM     25 CL   UNL     1       0.328   8.577  22.443  0.00  0.00    +0.000 Cl
ATOM     26  C   UNL     1       1.506   6.806  20.782  0.00  0.00    +0.000 A 
ENDBRANCH  18  19
ENDBRANCH   7  18
TORSDOF 7
ENDMDL
MODEL 7
REMARK VINA RESULT:      -6.5      3.737      7.538
REMARK  Name = 
REMARK  7 active torsions:
REMARK  status: ('A' for Active; 'I' for Inactive)
REMARK    1  A    between atoms: C_2  and  C_3
REMARK    2  A    between atoms: C_3  and  C_4
REMARK    3  A    between atoms: C_4  and  C_5
REMARK    4  A    between atoms: C_5  and  N_6
REMARK    5  A    between atoms: C_9  and  N_10
REMARK    6  A    between atoms: C_13  and  S_14
REMARK    7  A    between atoms: S_14  and  C_15
REMARK                            x       y       z     vdW  Elec       q    Type
REMARK                         _______ _______ _______ _____ _____    ______ ____
ROOT
ATOM      1  N   UNL     1       1.928   5.360  20.100  0.00  0.00    +0.000 N 
ATOM      2  C   UNL     1       1.014   4.420  20.523  0.00  0.00    +0.000 A 
ATOM      3  N   UNL     1       0.832   3.242  20.002  0.00  0.00    +0.000 NA
ATOM      4  C   UNL     1       1.649   2.872  18.938  0.00  0.00    +0.000 A 
ATOM      5  C   UNL     1       2.555   3.716  18.402  0.00  0.00    +0.000 A 
ATOM      6  N   UNL     1       3.426   3.632  17.353  0.00  0.00    +0.000 NA
ATOM      7  C   UNL     1       4.021   4.792  17.388  0.00  0.00    +0.000 A 
ATOM      8  N   UNL     1       3.637   5.680  18.386  0.00  0.00    +0.000 NA
ATOM      9  C   UNL     1       2.713   5.032  19.026  0.00  0.00    +0.000 A 
ENDROOT
BRANCH   4  10
ATOM     10  N   UNL     1       1.505   1.598  18.426  0.00  0.00    +0.000 N 
ATOM     11  H   UNL     1       2.410   1.190  18.225  0.00  0.00    +0.000 HD
ATOM     12  H   UNL     1       0.889   1.018  18.987  0.00  0.00    +0.000 HD
ENDBRANCH   4  10
BRANCH   1  13
ATOM     13  C   UNL     1       2.119   6.623  20.796  0.00  0.00    +0.000 C 
BRANCH  13  14
ATOM     14  C   UNL     1       0.806   7.411  20.926  0.00  0.00    +0.000 C 
BRANCH  14  15
ATOM     15  C   UNL     1       1.008   8.920  21.047  0.00  0.00    +0.000 C 
BRANCH  15  17
ATOM     16  N   UNL     1       0.334   9.744  23.615  0.00  0.00    +0.000 NA
ATOM     17  C   UNL     1       0.640   9.370  22.451  0.00  0.00    +0.000 C 
ENDBRANCH  15  17
ENDBRANCH  14  15
ENDBRANCH  13  14
ENDBRANCH   1  13
BRANCH   7  18
ATOM     18  S   UNL     1       5.220   5.261  16.220  0.00  0.00    +0.000 S 
BRANCH  18  19
ATOM     19  C   UNL     1       6.410   6.080  17.260  0.00  0.00    +0.000 A 
ATOM     20  C   UNL     1       7.015   5.361  18.296  0.00  0.00    +0.000 A 
ATOM     21  C   UNL     1       7.974   5.973  19.103  0.00  0.00    +0.000 A 
ATOM     22 CL   UNL     1       8.709   5.078  20.376  0.00  0.00    +0.000 Cl
ATOM     23  C   UNL     1       8.348   7.295  18.885  0.00  0.00    +0.000 A 
ATOM     24  C   UNL     1       7.754   8.005  17.846  0.00  0.00    +0.000 A 
ATOM     25 CL   UNL     1       8.217   9.636  17.556  0.00  0.00    +0.000 Cl
ATOM     26  C   UNL     1       6.793   7.405  17.029  0.00  0.00    +0.000 A 
ENDBRANCH  18  19
ENDBRANCH   7  18
TORSDOF 7
ENDMDL
MODEL 8
REMARK VINA RESULT:      -6.4      3.161      4.896
REMARK  Name = 
REMARK  7 active torsions:
REMARK  status: ('A' for Active; 'I' for Inactive)
REMARK    1  A    between atoms: C_2  and  C_3
REMARK    2  A    between atoms: C_3  and  C_4
REMARK    3  A    between atoms: C_4  and  C_5
REMARK    4  A    between atoms: C_5  and  N_6
REMARK    5  A    between atoms: C_9  and  N_10
REMARK    6  A    between atoms: C_13  and  S_14
REMARK    7  A    between atoms: S_14  and  C_15
REMARK                            x       y       z     vdW  Elec       q    Type
REMARK                         _______ _______ _______ _____ _____    ______ ____
ROOT
ATOM      1  N   UNL     1       3.268   6.018  18.286  0.00  0.00    +0.000 N 
ATOM      2  C   UNL     1       3.172   4.655  18.104  0.00  0.00    +0.000 A 
ATOM      3  N   UNL     1       2.448   3.839  18.813  0.00  0.00    +0.000 NA
ATOM      4  C   UNL     1       1.670   4.381  19.832  0.00  0.00    +0.000 A 
ATOM      5  C   UNL     1       1.706   5.695  20.139  0.00  0.00    +0.000 A 
ATOM      6  N   UNL     1       1.103   6.463  21.095  0.00  0.00    +0.000 NA
ATOM      7  C   UNL     1       1.557   7.655  20.825  0.00  0.00    +0.000 A 
ATOM      8  N   UNL     1       2.428   7.782  19.750  0.00  0.00    +0.000 NA
ATOM      9  C   UNL     1       2.544   6.566  19.312  0.00  0.00    +0.000 A 
ENDROOT
BRANCH   4  10
ATOM     10  N   UNL     1       0.850   3.528  20.542  0.00  0.00    +0.000 N 
ATOM     11  H   UNL     1       1.238   3.340  21.459  0.00  0.00    +0.000 HD
ATOM     12  H   UNL     1      -0.120   3.829  20.543  0.00  0.00    +0.000 HD
ENDBRANCH   4  10
BRANCH   1  13
ATOM     13  C   UNL     1       4.041   6.866  17.392  0.00  0.00    +0.000 C 
BRANCH  13  14
ATOM     14  C   UNL     1       5.261   6.130  16.816  0.00  0.00    +0.000 C 
BRANCH  14  15
ATOM     15  C   UNL     1       6.594   6.624  17.378  0.00  0.00    +0.000 C 
BRANCH  15  17
ATOM     16  N   UNL     1       7.130   5.322  19.775  0.00  0.00    +0.000 NA
ATOM     17  C   UNL     1       6.887   5.912  18.689  0.00  0.00    +0.000 C 
ENDBRANCH  15  17
ENDBRANCH  14  15
ENDBRANCH  13  14
ENDBRANCH   1  13
BRANCH   7  18
ATOM     18  S   UNL     1       1.146   9.047  21.781  0.00  0.00    +0.000 S 
BRANCH  18  19
ATOM     19  C   UNL     1       0.440  10.116  20.545  0.00  0.00    +0.000 A 
ATOM     20  C   UNL     1       1.004  11.379  20.337  0.00  0.00    +0.000 A 
ATOM     21  C   UNL     1       0.487  12.221  19.352  0.00  0.00    +0.000 A 
ATOM     22 CL   UNL     1       1.190  13.773  19.107  0.00  0.00    +0.000 Cl
ATOM     23  C   UNL     1      -0.583  11.816  18.560  0.00  0.00    +0.000 A 
ATOM     24  C   UNL     1      -1.136  10.555  18.761  0.00  0.00    +0.000 A 
ATOM     25 CL   UNL     1      -2.451  10.036  17.781  0.00  0.00    +0.000 Cl
ATOM     26  C   UNL     1      -0.628   9.701  19.743  0.00  0.00    +0.000 A 
ENDBRANCH  18  19
ENDBRANCH   7  18
TORSDOF 7
ENDMDL
MODEL 9
REMARK VINA RESULT:      -6.3      2.931      4.151
REMARK  Name = 
REMARK  7 active torsions:
REMARK  status: ('A' for Active; 'I' for Inactive)
REMARK    1  A    between atoms: C_2  and  C_3
REMARK    2  A    between atoms: C_3  and  C_4
REMARK    3  A    between atoms: C_4  and  C_5
REMARK    4  A    between atoms: C_5  and  N_6
REMARK    5  A    between atoms: C_9  and  N_10
REMARK    6  A    between atoms: C_13  and  S_14
REMARK    7  A    between atoms: S_14  and  C_15
REMARK                            x       y       z     vdW  Elec       q    Type
REMARK                         _______ _______ _______ _____ _____    ______ ____
ROOT
ATOM      1  N   UNL     1       4.980   4.613  18.203  0.00  0.00    +0.000 N 
ATOM      2  C   UNL     1       4.768   3.586  19.097  0.00  0.00    +0.000 A 
ATOM      3  N   UNL     1       3.818   3.529  19.984  0.00  0.00    +0.000 NA
ATOM      4  C   UNL     1       2.906   4.578  20.025  0.00  0.00    +0.000 A 
ATOM      5  C   UNL     1       3.026   5.664  19.232  0.00  0.00    +0.000 A 
ATOM      6  N   UNL     1       2.323   6.828  19.104  0.00  0.00    +0.000 NA
ATOM      7  C   UNL     1       2.959   7.435  18.141  0.00  0.00    +0.000 A 
ATOM      8  N   UNL     1       4.051   6.784  17.582  0.00  0.00    +0.000 NA
ATOM      9  C   UNL     1       4.118   5.677  18.256  0.00  0.00    +0.000 A 
ENDROOT
BRANCH   4  10
ATOM     10  N   UNL     1       1.857   4.489  20.919  0.00  0.00    +0.000 N 
ATOM     11  H   UNL     1       1.678   3.523  21.164  0.00  0.00    +0.000 HD
ATOM     12  H   UNL     1       1.963   5.118  21.709  0.00  0.00    +0.000 HD
ENDBRANCH   4  10
BRANCH   1  13
ATOM     13  C   UNL     1       6.021   4.555  17.189  0.00  0.00    +0.000 C 
BRANCH  13  14
ATOM     14  C   UNL     1       7.426   4.613  17.807  0.00  0.00    +0.000 C 
BRANCH  14  15
ATOM     15  C   UNL     1       7.634   5.803  18.742  0.00  0.00    +0.000 C 
BRANCH  15  17
ATOM     16  N   UNL     1       7.663   8.155  17.260  0.00  0.00    +0.000 NA
ATOM     17  C   UNL     1       7.650   7.089  17.932  0.00  0.00    +0.000 C 
ENDBRANCH  15  17
ENDBRANCH  14  15
ENDBRANCH  13  14
ENDBRANCH   1  13
BRANCH   7  18
ATOM     18  S   UNL     1       2.514   9.022  17.586  0.00  0.00    +0.000 S 
BRANCH  18  19
ATOM     19  C   UNL     1       1.260   9.461  18.772  0.00  0.00    +0.000 A 
ATOM     20  C   UNL     1       0.060  10.018  18.316  0.00  0.00    +0.000 A 
ATOM     21  C   UNL     1      -0.949  10.339  19.223  0.00  0.00    +0.000 A 
ATOM     22 CL   UNL     1      -2.420  11.025  18.650  0.00  0.00    +0.000 Cl
ATOM     23  C   UNL     1      -0.782  10.105  20.585  0.00  0.00    +0.000 A 
ATOM     24  C   UNL     1       0.407   9.541  21.035  0.00  0.00    +0.000 A 
ATOM     25 CL   UNL     1       0.621   9.232  22.714  0.00  0.00    +0.000 Cl
ATOM     26  C   UNL     1       1.426   9.212  20.137  0.00  0.00    +0.000 A 
ENDBRANCH  18  19
ENDBRANCH   7  18
TORSDOF 7
ENDMDL
