MODEL 1
REMARK VINA RESULT:      -7.7      0.000      0.000
REMARK  Name = 
REMARK  3 active torsions:
REMARK  status: ('A' for Active; 'I' for Inactive)
REMARK    1  A    between atoms: C_1  and  C_2
REMARK    2  A    between atoms: C_2  and  C_3
REMARK    3  A    between atoms: C_14  and  C_15
REMARK                            x       y       z     vdW  Elec       q    Type
REMARK                         _______ _______ _______ _____ _____    ______ ____
ROOT
ATOM      1  C   UNL     1       7.187   7.023  17.475  0.00  0.00    +0.000 C 
ATOM      2  C   UNL     1       7.208   5.545  17.065  0.00  0.00    +0.000 C 
ATOM      3  C   UNL     1       8.262   4.790  17.881  0.00  0.00    +0.000 C 
ATOM      4  O   UNL     1       7.676   5.521  15.671  0.00  0.00    +0.000 OA
ATOM      5  C   UNL     1       6.924   4.909  14.692  0.00  0.00    +0.000 A 
ATOM      6  C   UNL     1       7.502   4.884  13.423  0.00  0.00    +0.000 A 
ATOM      7  C   UNL     1       6.823   4.277  12.369  0.00  0.00    +0.000 A 
ATOM      8 CL   UNL     1       7.537   4.239  10.804  0.00  0.00    +0.000 Cl
ATOM      9  C   UNL     1       5.570   3.694  12.569  0.00  0.00    +0.000 A 
ATOM     10  C   UNL     1       4.980   3.719  13.836  0.00  0.00    +0.000 A 
ATOM     11  C   UNL     1       5.656   4.327  14.896  0.00  0.00    +0.000 A 
ATOM     12  C   UNL     1       5.144   4.390  16.237  0.00  0.00    +0.000 A 
ATOM     13  N   UNL     1       3.969   3.987  16.795  0.00  0.00    +0.000 N 
ATOM     14  C   UNL     1       4.019   4.252  18.154  0.00  0.00    +0.000 A 
ATOM     15  N   UNL     1       5.184   4.814  18.446  0.00  0.00    +0.000 NA
ATOM     16  C   UNL     1       5.859   4.934  17.265  0.00  0.00    +0.000 A 
ATOM     17  H   UNL     1       3.204   3.526  16.324  0.00  0.00    +0.000 HD
ENDROOT
BRANCH  14  18
ATOM     18  C   UNL     1       2.929   3.960  19.107  0.00  0.00    +0.000 A 
ATOM     19  C   UNL     1       2.147   4.976  19.706  0.00  0.00    +0.000 A 
ATOM     20 BR   UNL     1       2.374   6.844  19.378  0.00  0.00    +0.000 Br
ATOM     21  C   UNL     1       1.101   4.668  20.592  0.00  0.00    +0.000 A 
ATOM     22  C   UNL     1       0.794   3.346  20.891  0.00  0.00    +0.000 A 
ATOM     23  C   UNL     1       1.542   2.328  20.319  0.00  0.00    +0.000 A 
ATOM     24  C   UNL     1       2.603   2.624  19.447  0.00  0.00    +0.000 A 
ATOM     25 BR   UNL     1       3.574   1.094  18.838  0.00  0.00    +0.000 Br
ENDBRANCH  14  18
TORSDOF 1
ENDMDL
MODEL 2
REMARK VINA RESULT:      -7.5      0.249      1.981
REMARK  Name = 
REMARK  3 active torsions:
REMARK  status: ('A' for Active; 'I' for Inactive)
REMARK    1  A    between atoms: C_1  and  C_2
REMARK    2  A    between atoms: C_2  and  C_3
REMARK    3  A    between atoms: C_14  and  C_15
REMARK                            x       y       z     vdW  Elec       q    Type
REMARK                         _______ _______ _______ _____ _____    ______ ____
ROOT
ATOM      1  C   UNL     1       6.874   7.403  17.451  0.00  0.00    +0.000 C 
ATOM      2  C   UNL     1       7.072   5.915  17.131  0.00  0.00    +0.000 C 
ATOM      3  C   UNL     1       8.178   5.332  18.016  0.00  0.00    +0.000 C 
ATOM      4  O   UNL     1       7.582   5.865  15.753  0.00  0.00    +0.000 OA
ATOM      5  C   UNL     1       6.934   5.117  14.795  0.00  0.00    +0.000 A 
ATOM      6  C   UNL     1       7.550   5.085  13.543  0.00  0.00    +0.000 A 
ATOM      7  C   UNL     1       6.975   4.346  12.512  0.00  0.00    +0.000 A 
ATOM      8 CL   UNL     1       7.737   4.299  10.970  0.00  0.00    +0.000 Cl
ATOM      9  C   UNL     1       5.790   3.638  12.717  0.00  0.00    +0.000 A 
ATOM     10  C   UNL     1       5.162   3.668  13.965  0.00  0.00    +0.000 A 
ATOM     11  C   UNL     1       5.732   4.409  15.003  0.00  0.00    +0.000 A 
ATOM     12  C   UNL     1       5.176   4.489  16.324  0.00  0.00    +0.000 A 
ATOM     13  N   UNL     1       4.036   3.989  16.877  0.00  0.00    +0.000 N 
ATOM     14  C   UNL     1       4.015   4.335  18.218  0.00  0.00    +0.000 A 
ATOM     15  N   UNL     1       5.100   5.040  18.504  0.00  0.00    +0.000 NA
ATOM     16  C   UNL     1       5.794   5.168  17.335  0.00  0.00    +0.000 A 
ATOM     17  H   UNL     1       3.343   3.419  16.417  0.00  0.00    +0.000 HD
ENDROOT
BRANCH  14  18
ATOM     18  C   UNL     1       2.935   3.977  19.160  0.00  0.00    +0.000 A 
ATOM     19  C   UNL     1       2.627   2.636  19.494  0.00  0.00    +0.000 A 
ATOM     20 BR   UNL     1       3.545   1.115  18.793  0.00  0.00    +0.000 Br
ATOM     21  C   UNL     1       1.609   2.326  20.410  0.00  0.00    +0.000 A 
ATOM     22  C   UNL     1       0.885   3.335  21.032  0.00  0.00    +0.000 A 
ATOM     23  C   UNL     1       1.164   4.659  20.726  0.00  0.00    +0.000 A 
ATOM     24  C   UNL     1       2.166   4.982  19.797  0.00  0.00    +0.000 A 
ATOM     25 BR   UNL     1       2.336   6.852  19.437  0.00  0.00    +0.000 Br
ENDBRANCH  14  18
TORSDOF 1
ENDMDL
MODEL 3
REMARK VINA RESULT:      -7.0      5.810      8.447
REMARK  Name = 
REMARK  3 active torsions:
REMARK  status: ('A' for Active; 'I' for Inactive)
REMARK    1  A    between atoms: C_1  and  C_2
REMARK    2  A    between atoms: C_2  and  C_3
REMARK    3  A    between atoms: C_14  and  C_15
REMARK                            x       y       z     vdW  Elec       q    Type
REMARK                         _______ _______ _______ _____ _____    ______ ____
ROOT
ATOM      1  C   UNL     1       2.226  10.614  17.781  0.00  0.00    +0.000 C 
ATOM      2  C   UNL     1       1.063   9.812  18.381  0.00  0.00    +0.000 C 
ATOM      3  C   UNL     1       0.059   9.445  17.285  0.00  0.00    +0.000 C 
ATOM      4  O   UNL     1       0.362  10.737  19.285  0.00  0.00    +0.000 OA
ATOM      5  C   UNL     1       0.164  10.404  20.607  0.00  0.00    +0.000 A 
ATOM      6  C   UNL     1      -0.578  11.324  21.350  0.00  0.00    +0.000 A 
ATOM      7  C   UNL     1      -0.841  11.071  22.694  0.00  0.00    +0.000 A 
ATOM      8 CL   UNL     1      -1.761  12.200  23.610  0.00  0.00    +0.000 Cl
ATOM      9  C   UNL     1      -0.371   9.908  23.306  0.00  0.00    +0.000 A 
ATOM     10  C   UNL     1       0.378   8.983  22.572  0.00  0.00    +0.000 A 
ATOM     11  C   UNL     1       0.646   9.232  21.225  0.00  0.00    +0.000 A 
ATOM     12  C   UNL     1       1.389   8.338  20.381  0.00  0.00    +0.000 A 
ATOM     13  N   UNL     1       2.032   7.162  20.624  0.00  0.00    +0.000 N 
ATOM     14  C   UNL     1       2.551   6.695  19.428  0.00  0.00    +0.000 A 
ATOM     15  N   UNL     1       2.257   7.552  18.460  0.00  0.00    +0.000 NA
ATOM     16  C   UNL     1       1.577   8.579  19.051  0.00  0.00    +0.000 A 
ATOM     17  H   UNL     1       2.085   6.675  21.506  0.00  0.00    +0.000 HD
ENDROOT
BRANCH  14  18
ATOM     18  C   UNL     1       3.322   5.444  19.279  0.00  0.00    +0.000 A 
ATOM     19  C   UNL     1       4.573   5.392  18.617  0.00  0.00    +0.000 A 
ATOM     20 BR   UNL     1       5.439   6.903  17.834  0.00  0.00    +0.000 Br
ATOM     21  C   UNL     1       5.294   4.192  18.509  0.00  0.00    +0.000 A 
ATOM     22  C   UNL     1       4.804   3.020  19.071  0.00  0.00    +0.000 A 
ATOM     23  C   UNL     1       3.582   3.038  19.726  0.00  0.00    +0.000 A 
ATOM     24  C   UNL     1       2.841   4.227  19.823  0.00  0.00    +0.000 A 
ATOM     25 BR   UNL     1       1.142   4.032  20.677  0.00  0.00    +0.000 Br
ENDBRANCH  14  18
TORSDOF 1
ENDMDL
MODEL 4
REMARK VINA RESULT:      -6.9      5.816      8.529
REMARK  Name = 
REMARK  3 active torsions:
REMARK  status: ('A' for Active; 'I' for Inactive)
REMARK    1  A    between atoms: C_1  and  C_2
REMARK    2  A    between atoms: C_2  and  C_3
REMARK    3  A    between atoms: C_14  and  C_15
REMARK                            x       y       z     vdW  Elec       q    Type
REMARK                         _______ _______ _______ _____ _____    ______ ____
ROOT
ATOM      1  C   UNL     1       2.208  10.628  17.790  0.00  0.00    +0.000 C 
ATOM      2  C   UNL     1       1.045   9.825  18.387  0.00  0.00    +0.000 C 
ATOM      3  C   UNL     1       0.039   9.465  17.290  0.00  0.00    +0.000 C 
ATOM      4  O   UNL     1       0.346  10.747  19.296  0.00  0.00    +0.000 OA
ATOM      5  C   UNL     1       0.148  10.409  20.617  0.00  0.00    +0.000 A 
ATOM      6  C   UNL     1      -0.592  11.326  21.363  0.00  0.00    +0.000 A 
ATOM      7  C   UNL     1      -0.855  11.068  22.707  0.00  0.00    +0.000 A 
ATOM      8 CL   UNL     1      -1.772  12.195  23.628  0.00  0.00    +0.000 Cl
ATOM      9  C   UNL     1      -0.385   9.902  23.314  0.00  0.00    +0.000 A 
ATOM     10  C   UNL     1       0.361   8.979  22.575  0.00  0.00    +0.000 A 
ATOM     11  C   UNL     1       0.629   9.233  21.228  0.00  0.00    +0.000 A 
ATOM     12  C   UNL     1       1.370   8.342  20.381  0.00  0.00    +0.000 A 
ATOM     13  N   UNL     1       2.011   7.164  20.618  0.00  0.00    +0.000 N 
ATOM     14  C   UNL     1       2.529   6.702  19.419  0.00  0.00    +0.000 A 
ATOM     15  N   UNL     1       2.236   7.563  18.455  0.00  0.00    +0.000 NA
ATOM     16  C   UNL     1       1.557   8.589  19.051  0.00  0.00    +0.000 A 
ATOM     17  H   UNL     1       2.064   6.673  21.498  0.00  0.00    +0.000 HD
ENDROOT
BRANCH  14  18
ATOM     18  C   UNL     1       3.298   5.450  19.264  0.00  0.00    +0.000 A 
ATOM     19  C   UNL     1       2.870   4.218  19.814  0.00  0.00    +0.000 A 
ATOM     20 BR   UNL     1       1.261   3.989  20.818  0.00  0.00    +0.000 Br
ATOM     21  C   UNL     1       3.610   3.039  19.632  0.00  0.00    +0.000 A 
ATOM     22  C   UNL     1       4.782   3.048  18.886  0.00  0.00    +0.000 A 
ATOM     23  C   UNL     1       5.228   4.239  18.333  0.00  0.00    +0.000 A 
ATOM     24  C   UNL     1       4.507   5.429  18.525  0.00  0.00    +0.000 A 
ATOM     25 BR   UNL     1       5.330   6.981  17.770  0.00  0.00    +0.000 Br
ENDBRANCH  14  18
TORSDOF 1
ENDMDL
MODEL 5
REMARK VINA RESULT:      -6.6      9.315     11.241
REMARK  Name = 
REMARK  3 active torsions:
REMARK  status: ('A' for Active; 'I' for Inactive)
REMARK    1  A    between atoms: C_1  and  C_2
REMARK    2  A    between atoms: C_2  and  C_3
REMARK    3  A    between atoms: C_14  and  C_15
REMARK                            x       y       z     vdW  Elec       q    Type
REMARK                         _______ _______ _______ _____ _____    ______ ____
ROOT
ATOM      1  C   UNL     1       0.605   9.834  20.297  0.00  0.00    +0.000 C 
ATOM      2  C   UNL     1       0.352  10.703  19.057  0.00  0.00    +0.000 C 
ATOM      3  C   UNL     1       0.104   9.812  17.836  0.00  0.00    +0.000 C 
ATOM      4  O   UNL     1       1.615  11.410  18.797  0.00  0.00    +0.000 OA
ATOM      5  C   UNL     1       1.640  12.785  18.714  0.00  0.00    +0.000 A 
ATOM      6  C   UNL     1       2.878  13.341  18.390  0.00  0.00    +0.000 A 
ATOM      7  C   UNL     1       3.002  14.723  18.272  0.00  0.00    +0.000 A 
ATOM      8 CL   UNL     1       4.527  15.411  17.867  0.00  0.00    +0.000 Cl
ATOM      9  C   UNL     1       1.902  15.558  18.474  0.00  0.00    +0.000 A 
ATOM     10  C   UNL     1       0.659  15.011  18.804  0.00  0.00    +0.000 A 
ATOM     11  C   UNL     1       0.528  13.626  18.925  0.00  0.00    +0.000 A 
ATOM     12  C   UNL     1      -0.707  12.966  19.242  0.00  0.00    +0.000 A 
ATOM     13  N   UNL     1      -1.950  13.433  19.548  0.00  0.00    +0.000 N 
ATOM     14  C   UNL     1      -2.791  12.346  19.723  0.00  0.00    +0.000 A 
ATOM     15  N   UNL     1      -2.103  11.228  19.546  0.00  0.00    +0.000 NA
ATOM     16  C   UNL     1      -0.816  11.606  19.288  0.00  0.00    +0.000 A 
ATOM     17  H   UNL     1      -2.237  14.399  19.591  0.00  0.00    +0.000 HD
ENDROOT
BRANCH  14  18
ATOM     18  C   UNL     1      -4.224  12.442  20.069  0.00  0.00    +0.000 A 
ATOM     19  C   UNL     1      -5.254  12.216  19.124  0.00  0.00    +0.000 A 
ATOM     20 BR   UNL     1      -4.954  11.758  17.294  0.00  0.00    +0.000 Br
ATOM     21  C   UNL     1      -6.609  12.292  19.486  0.00  0.00    +0.000 A 
ATOM     22  C   UNL     1      -6.975  12.575  20.796  0.00  0.00    +0.000 A 
ATOM     23  C   UNL     1      -5.990  12.802  21.745  0.00  0.00    +0.000 A 
ATOM     24  C   UNL     1      -4.632  12.748  21.391  0.00  0.00    +0.000 A 
ATOM     25 BR   UNL     1      -3.428  13.182  22.812  0.00  0.00    +0.000 Br
ENDBRANCH  14  18
TORSDOF 1
ENDMDL
MODEL 6
REMARK VINA RESULT:      -6.5      9.335     11.221
REMARK  Name = 
REMARK  3 active torsions:
REMARK  status: ('A' for Active; 'I' for Inactive)
REMARK    1  A    between atoms: C_1  and  C_2
REMARK    2  A    between atoms: C_2  and  C_3
REMARK    3  A    between atoms: C_14  and  C_15
REMARK                            x       y       z     vdW  Elec       q    Type
REMARK                         _______ _______ _______ _____ _____    ______ ____
ROOT
ATOM      1  C   UNL     1       0.519   9.781  20.252  0.00  0.00    +0.000 C 
ATOM      2  C   UNL     1       0.280  10.667  19.022  0.00  0.00    +0.000 C 
ATOM      3  C   UNL     1       0.034   9.795  17.787  0.00  0.00    +0.000 C 
ATOM      4  O   UNL     1       1.550  11.369  18.780  0.00  0.00    +0.000 OA
ATOM      5  C   UNL     1       1.587  12.745  18.715  0.00  0.00    +0.000 A 
ATOM      6  C   UNL     1       2.831  13.295  18.408  0.00  0.00    +0.000 A 
ATOM      7  C   UNL     1       2.966  14.678  18.308  0.00  0.00    +0.000 A 
ATOM      8 CL   UNL     1       4.499  15.359  17.923  0.00  0.00    +0.000 Cl
ATOM      9  C   UNL     1       1.871  15.518  18.514  0.00  0.00    +0.000 A 
ATOM     10  C   UNL     1       0.621  14.977  18.828  0.00  0.00    +0.000 A 
ATOM     11  C   UNL     1       0.480  13.591  18.931  0.00  0.00    +0.000 A 
ATOM     12  C   UNL     1      -0.763  12.936  19.230  0.00  0.00    +0.000 A 
ATOM     13  N   UNL     1      -2.004  13.408  19.534  0.00  0.00    +0.000 N 
ATOM     14  C   UNL     1      -2.855  12.326  19.689  0.00  0.00    +0.000 A 
ATOM     15  N   UNL     1      -2.174  11.205  19.501  0.00  0.00    +0.000 NA
ATOM     16  C   UNL     1      -0.882  11.577  19.258  0.00  0.00    +0.000 A 
ATOM     17  H   UNL     1      -2.285  14.376  19.588  0.00  0.00    +0.000 HD
ENDROOT
BRANCH  14  18
ATOM     18  C   UNL     1      -4.289  12.428  20.026  0.00  0.00    +0.000 A 
ATOM     19  C   UNL     1      -4.748  12.714  21.334  0.00  0.00    +0.000 A 
ATOM     20 BR   UNL     1      -3.603  13.010  22.834  0.00  0.00    +0.000 Br
ATOM     21  C   UNL     1      -6.118  12.827  21.621  0.00  0.00    +0.000 A 
ATOM     22  C   UNL     1      -7.065  12.678  20.616  0.00  0.00    +0.000 A 
ATOM     23  C   UNL     1      -6.648  12.398  19.324  0.00  0.00    +0.000 A 
ATOM     24  C   UNL     1      -5.282  12.263  19.028  0.00  0.00    +0.000 A 
ATOM     25 BR   UNL     1      -4.911  11.781  17.215  0.00  0.00    +0.000 Br
ENDBRANCH  14  18
TORSDOF 1
ENDMDL
MODEL 7
REMARK VINA RESULT:      -6.5      9.463     11.722
REMARK  Name = 
REMARK  3 active torsions:
REMARK  status: ('A' for Active; 'I' for Inactive)
REMARK    1  A    between atoms: C_1  and  C_2
REMARK    2  A    between atoms: C_2  and  C_3
REMARK    3  A    between atoms: C_14  and  C_15
REMARK                            x       y       z     vdW  Elec       q    Type
REMARK                         _______ _______ _______ _____ _____    ______ ____
ROOT
ATOM      1  C   UNL     1       1.452  10.739  20.550  0.00  0.00    +0.000 C 
ATOM      2  C   UNL     1      -0.028  10.344  20.635  0.00  0.00    +0.000 C 
ATOM      3  C   UNL     1      -0.195   9.136  21.562  0.00  0.00    +0.000 C 
ATOM      4  O   UNL     1      -0.398   9.881  19.289  0.00  0.00    +0.000 OA
ATOM      5  C   UNL     1      -1.461  10.451  18.622  0.00  0.00    +0.000 A 
ATOM      6  C   UNL     1      -1.765   9.882  17.385  0.00  0.00    +0.000 A 
ATOM      7  C   UNL     1      -2.830  10.382  16.640  0.00  0.00    +0.000 A 
ATOM      8 CL   UNL     1      -3.211   9.677  15.118  0.00  0.00    +0.000 Cl
ATOM      9  C   UNL     1      -3.595  11.447  17.117  0.00  0.00    +0.000 A 
ATOM     10  C   UNL     1      -3.295  12.029  18.352  0.00  0.00    +0.000 A 
ATOM     11  C   UNL     1      -2.228  11.532  19.103  0.00  0.00    +0.000 A 
ATOM     12  C   UNL     1      -1.850  12.047  20.390  0.00  0.00    +0.000 A 
ATOM     13  N   UNL     1      -2.314  13.084  21.140  0.00  0.00    +0.000 N 
ATOM     14  C   UNL     1      -1.612  13.106  22.334  0.00  0.00    +0.000 A 
ATOM     15  N   UNL     1      -0.723  12.123  22.336  0.00  0.00    +0.000 NA
ATOM     16  C   UNL     1      -0.843  11.495  21.128  0.00  0.00    +0.000 A 
ATOM     17  H   UNL     1      -3.073  13.706  20.905  0.00  0.00    +0.000 HD
ENDROOT
BRANCH  14  18
ATOM     18  C   UNL     1      -1.824  14.091  23.414  0.00  0.00    +0.000 A 
ATOM     19  C   UNL     1      -2.882  13.982  24.349  0.00  0.00    +0.000 A 
ATOM     20 BR   UNL     1      -4.169  12.570  24.358  0.00  0.00    +0.000 Br
ATOM     21  C   UNL     1      -3.046  14.921  25.380  0.00  0.00    +0.000 A 
ATOM     22  C   UNL     1      -2.157  15.978  25.522  0.00  0.00    +0.000 A 
ATOM     23  C   UNL     1      -1.110  16.113  24.622  0.00  0.00    +0.000 A 
ATOM     24  C   UNL     1      -0.946  15.192  23.575  0.00  0.00    +0.000 A 
ATOM     25 BR   UNL     1       0.494  15.598  22.385  0.00  0.00    +0.000 Br
ENDBRANCH  14  18
TORSDOF 1
ENDMDL
MODEL 8
REMARK VINA RESULT:      -6.4      9.388     11.314
REMARK  Name = 
REMARK  3 active torsions:
REMARK  status: ('A' for Active; 'I' for Inactive)
REMARK    1  A    between atoms: C_1  and  C_2
REMARK    2  A    between atoms: C_2  and  C_3
REMARK    3  A    between atoms: C_14  and  C_15
REMARK                            x       y       z     vdW  Elec       q    Type
REMARK                         _______ _______ _______ _____ _____    ______ ____
ROOT
ATOM      1  C   UNL     1       0.704  10.291  20.964  0.00  0.00    +0.000 C 
ATOM      2  C   UNL     1       0.666  10.986  19.596  0.00  0.00    +0.000 C 
ATOM      3  C   UNL     1       0.889   9.960  18.481  0.00  0.00    +0.000 C 
ATOM      4  O   UNL     1       1.833  11.881  19.568  0.00  0.00    +0.000 OA
ATOM      5  C   UNL     1       1.676  13.225  19.311  0.00  0.00    +0.000 A 
ATOM      6  C   UNL     1       2.859  13.961  19.236  0.00  0.00    +0.000 A 
ATOM      7  C   UNL     1       2.804  15.327  18.969  0.00  0.00    +0.000 A 
ATOM      8 CL   UNL     1       4.262  16.235  18.869  0.00  0.00    +0.000 Cl
ATOM      9  C   UNL     1       1.579  15.968  18.778  0.00  0.00    +0.000 A 
ATOM     10  C   UNL     1       0.388  15.240  18.857  0.00  0.00    +0.000 A 
ATOM     11  C   UNL     1       0.436  13.870  19.126  0.00  0.00    +0.000 A 
ATOM     12  C   UNL     1      -0.727  13.033  19.209  0.00  0.00    +0.000 A 
ATOM     13  N   UNL     1      -2.061  13.296  19.131  0.00  0.00    +0.000 N 
ATOM     14  C   UNL     1      -2.748  12.098  19.234  0.00  0.00    +0.000 A 
ATOM     15  N   UNL     1      -1.879  11.108  19.384  0.00  0.00    +0.000 NA
ATOM     16  C   UNL     1      -0.641  11.685  19.407  0.00  0.00    +0.000 A 
ATOM     17  H   UNL     1      -2.489  14.196  18.972  0.00  0.00    +0.000 HD
ENDROOT
BRANCH  14  18
ATOM     18  C   UNL     1      -4.219  11.968  19.195  0.00  0.00    +0.000 A 
ATOM     19  C   UNL     1      -4.917  11.539  18.041  0.00  0.00    +0.000 A 
ATOM     20 BR   UNL     1      -4.080  11.068  16.390  0.00  0.00    +0.000 Br
ATOM     21  C   UNL     1      -6.315  11.403  18.040  0.00  0.00    +0.000 A 
ATOM     22  C   UNL     1      -7.052  11.671  19.187  0.00  0.00    +0.000 A 
ATOM     23  C   UNL     1      -6.397  12.093  20.334  0.00  0.00    +0.000 A 
ATOM     24  C   UNL     1      -5.001  12.251  20.342  0.00  0.00    +0.000 A 
ATOM     25 BR   UNL     1      -4.294  12.932  21.983  0.00  0.00    +0.000 Br
ENDBRANCH  14  18
TORSDOF 1
ENDMDL
MODEL 9
REMARK VINA RESULT:      -6.4      9.544     11.728
REMARK  Name = 
REMARK  3 active torsions:
REMARK  status: ('A' for Active; 'I' for Inactive)
REMARK    1  A    between atoms: C_1  and  C_2
REMARK    2  A    between atoms: C_2  and  C_3
REMARK    3  A    between atoms: C_14  and  C_15
REMARK                            x       y       z     vdW  Elec       q    Type
REMARK                         _______ _______ _______ _____ _____    ______ ____
ROOT
ATOM      1  C   UNL     1       1.351  11.000  20.013  0.00  0.00    +0.000 C 
ATOM      2  C   UNL     1      -0.089  10.515  20.225  0.00  0.00    +0.000 C 
ATOM      3  C   UNL     1      -0.097   9.273  21.121  0.00  0.00    +0.000 C 
ATOM      4  O   UNL     1      -0.561  10.070  18.905  0.00  0.00    +0.000 OA
ATOM      5  C   UNL     1      -1.714  10.594  18.362  0.00  0.00    +0.000 A 
ATOM      6  C   UNL     1      -2.103  10.043  17.141  0.00  0.00    +0.000 A 
ATOM      7  C   UNL     1      -3.262  10.500  16.518  0.00  0.00    +0.000 A 
ATOM      8 CL   UNL     1      -3.748   9.818  15.015  0.00  0.00    +0.000 Cl
ATOM      9  C   UNL     1      -4.037  11.504  17.102  0.00  0.00    +0.000 A 
ATOM     10  C   UNL     1      -3.652  12.066  18.322  0.00  0.00    +0.000 A 
ATOM     11  C   UNL     1      -2.490  11.613  18.951  0.00  0.00    +0.000 A 
ATOM     12  C   UNL     1      -2.020  12.112  20.213  0.00  0.00    +0.000 A 
ATOM     13  N   UNL     1      -2.468  13.097  21.039  0.00  0.00    +0.000 N 
ATOM     14  C   UNL     1      -1.655  13.127  22.161  0.00  0.00    +0.000 A 
ATOM     15  N   UNL     1      -0.716  12.199  22.044  0.00  0.00    +0.000 NA
ATOM     16  C   UNL     1      -0.916  11.601  20.832  0.00  0.00    +0.000 A 
ATOM     17  H   UNL     1      -3.280  13.679  20.899  0.00  0.00    +0.000 HD
ENDROOT
BRANCH  14  18
ATOM     18  C   UNL     1      -1.818  14.065  23.290  0.00  0.00    +0.000 A 
ATOM     19  C   UNL     1      -0.957  15.170  23.494  0.00  0.00    +0.000 A 
ATOM     20 BR   UNL     1       0.515  15.612  22.360  0.00  0.00    +0.000 Br
ATOM     21  C   UNL     1      -1.149  16.059  24.565  0.00  0.00    +0.000 A 
ATOM     22  C   UNL     1      -2.208  15.885  25.447  0.00  0.00    +0.000 A 
ATOM     23  C   UNL     1      -3.069  14.812  25.273  0.00  0.00    +0.000 A 
ATOM     24  C   UNL     1      -2.876  13.905  24.218  0.00  0.00    +0.000 A 
ATOM     25 BR   UNL     1      -4.105  12.441  24.202  0.00  0.00    +0.000 Br
ENDBRANCH  14  18
TORSDOF 1
ENDMDL
