MODEL 1
REMARK VINA RESULT:      -9.1      0.000      0.000
REMARK  Name = 
REMARK  4 active torsions:
REMARK  status: ('A' for Active; 'I' for Inactive)
REMARK    1  A    between atoms: C_2  and  C_13
REMARK    2  A    between atoms: N_3  and  C_4
REMARK    3  A    between atoms: C_18  and  C_19
REMARK    4  A    between atoms: C_23  and  C_24
REMARK                            x       y       z     vdW  Elec       q    Type
REMARK                         _______ _______ _______ _____ _____    ______ ____
ROOT
ATOM      1  C   UNL     1       2.918   4.527  19.750  0.00  0.00    +0.000 A 
ATOM      2  C   UNL     1       1.964   3.830  20.520  0.00  0.00    +0.000 A 
ATOM      3  C   UNL     1       2.267   2.594  21.084  0.00  0.00    +0.000 A 
ATOM      4  C   UNL     1       3.524   2.041  20.881  0.00  0.00    +0.000 A 
ATOM      5  C   UNL     1       4.480   2.734  20.131  0.00  0.00    +0.000 A 
ATOM      6  C   UNL     1       4.216   3.991  19.536  0.00  0.00    +0.000 A 
ENDROOT
BRANCH   6   7
ATOM      7  C   UNL     1       5.304   4.653  18.751  0.00  0.00    +0.000 A 
ATOM      8  C   UNL     1       6.242   5.514  19.344  0.00  0.00    +0.000 A 
ATOM      9  C   UNL     1       7.226   6.161  18.589  0.00  0.00    +0.000 A 
ATOM     10  C   UNL     1       7.346   5.907  17.225  0.00  0.00    +0.000 A 
ATOM     11  C   UNL     1       6.481   5.006  16.599  0.00  0.00    +0.000 A 
ATOM     12  C   UNL     1       5.457   4.414  17.366  0.00  0.00    +0.000 A 
BRANCH  11  13
ATOM     13  C   UNL     1       6.628   4.646  15.194  0.00  0.00    +0.000 A 
ATOM     14  C   UNL     1       5.943   3.658  14.517  0.00  0.00    +0.000 A 
ATOM     15  N   UNL     1       6.389   3.726  13.225  0.00  0.00    +0.000 N 
ATOM     16  C   UNL     1       7.308   4.733  13.158  0.00  0.00    +0.000 A 
ATOM     17  N   UNL     1       7.475   5.306  14.327  0.00  0.00    +0.000 NA
ATOM     18  H   UNL     1       6.088   3.145  12.454  0.00  0.00    +0.000 HD
ENDBRANCH  11  13
ENDBRANCH   6   7
BRANCH   1  20
ATOM     19  O   UNL     1       2.253   5.751  17.870  0.00  0.00    +0.000 OA
ATOM     20  C   UNL     1       2.441   5.773  19.079  0.00  0.00    +0.000 C 
ATOM     21  N   UNL     1       2.255   6.855  19.922  0.00  0.00    +0.000 N 
ATOM     22  H   UNL     1       2.446   6.771  20.914  0.00  0.00    +0.000 HD
BRANCH  21  23
ATOM     23  C   UNL     1       1.904   8.144  19.488  0.00  0.00    +0.000 A 
ATOM     24  N   UNL     1       2.288   8.631  18.285  0.00  0.00    +0.000 NA
ATOM     25  C   UNL     1       1.970   9.898  17.959  0.00  0.00    +0.000 A 
ATOM     26  N   UNL     1       1.292  10.799  18.700  0.00  0.00    +0.000 NA
ATOM     27  C   UNL     1       0.926  10.268  19.872  0.00  0.00    +0.000 A 
ATOM     28  N   UNL     1       0.252  10.894  20.879  0.00  0.00    +0.000 N 
ATOM     29  C   UNL     1       0.097   9.989  21.893  0.00  0.00    +0.000 A 
ATOM     30  N   UNL     1       0.638   8.821  21.604  0.00  0.00    +0.000 NA
ATOM     31  C   UNL     1       1.171   8.985  20.340  0.00  0.00    +0.000 A 
ATOM     32  H   UNL     1      -0.055  11.856  20.862  0.00  0.00    +0.000 HD
ENDBRANCH  21  23
ENDBRANCH   1  20
TORSDOF 4
ENDMDL
MODEL 2
REMARK VINA RESULT:      -8.9      1.586      2.576
REMARK  Name = 
REMARK  4 active torsions:
REMARK  status: ('A' for Active; 'I' for Inactive)
REMARK    1  A    between atoms: C_2  and  C_13
REMARK    2  A    between atoms: N_3  and  C_4
REMARK    3  A    between atoms: C_18  and  C_19
REMARK    4  A    between atoms: C_23  and  C_24
REMARK                            x       y       z     vdW  Elec       q    Type
REMARK                         _______ _______ _______ _____ _____    ______ ____
ROOT
ATOM      1  C   UNL     1       2.670   4.343  19.948  0.00  0.00    +0.000 A 
ATOM      2  C   UNL     1       1.893   3.802  20.993  0.00  0.00    +0.000 A 
ATOM      3  C   UNL     1       2.248   2.599  21.597  0.00  0.00    +0.000 A 
ATOM      4  C   UNL     1       3.380   1.925  21.161  0.00  0.00    +0.000 A 
ATOM      5  C   UNL     1       4.164   2.463  20.136  0.00  0.00    +0.000 A 
ATOM      6  C   UNL     1       3.841   3.681  19.490  0.00  0.00    +0.000 A 
ENDROOT
BRANCH   6   7
ATOM      7  C   UNL     1       4.741   4.175  18.403  0.00  0.00    +0.000 A 
ATOM      8  C   UNL     1       4.737   3.623  17.112  0.00  0.00    +0.000 A 
ATOM      9  C   UNL     1       5.617   4.067  16.119  0.00  0.00    +0.000 A 
ATOM     10  C   UNL     1       6.480   5.131  16.369  0.00  0.00    +0.000 A 
ATOM     11  C   UNL     1       6.476   5.762  17.616  0.00  0.00    +0.000 A 
ATOM     12  C   UNL     1       5.627   5.257  18.621  0.00  0.00    +0.000 A 
BRANCH  11  13
ATOM     13  C   UNL     1       7.299   6.933  17.891  0.00  0.00    +0.000 A 
ATOM     14  C   UNL     1       8.234   7.071  18.895  0.00  0.00    +0.000 A 
ATOM     15  N   UNL     1       8.771   8.318  18.725  0.00  0.00    +0.000 N 
ATOM     16  C   UNL     1       8.162   8.885  17.643  0.00  0.00    +0.000 A 
ATOM     17  N   UNL     1       7.270   8.077  17.119  0.00  0.00    +0.000 NA
ATOM     18  H   UNL     1       9.495   8.743  19.288  0.00  0.00    +0.000 HD
ENDBRANCH  11  13
ENDBRANCH   6   7
BRANCH   1  20
ATOM     19  O   UNL     1       1.586   5.438  18.188  0.00  0.00    +0.000 OA
ATOM     20  C   UNL     1       2.121   5.562  19.281  0.00  0.00    +0.000 C 
ATOM     21  N   UNL     1       2.279   6.738  19.993  0.00  0.00    +0.000 N 
ATOM     22  H   UNL     1       2.745   6.734  20.893  0.00  0.00    +0.000 HD
BRANCH  21  23
ATOM     23  C   UNL     1       1.924   8.007  19.510  0.00  0.00    +0.000 A 
ATOM     24  N   UNL     1       2.311   8.452  18.292  0.00  0.00    +0.000 NA
ATOM     25  C   UNL     1       1.988   9.705  17.918  0.00  0.00    +0.000 A 
ATOM     26  N   UNL     1       1.300  10.628  18.622  0.00  0.00    +0.000 NA
ATOM     27  C   UNL     1       0.930  10.138  19.810  0.00  0.00    +0.000 A 
ATOM     28  N   UNL     1       0.247  10.797  20.790  0.00  0.00    +0.000 N 
ATOM     29  C   UNL     1       0.092   9.929  21.836  0.00  0.00    +0.000 A 
ATOM     30  N   UNL     1       0.642   8.754  21.593  0.00  0.00    +0.000 NA
ATOM     31  C   UNL     1       1.181   8.875  20.326  0.00  0.00    +0.000 A 
ATOM     32  H   UNL     1      -0.065  11.755  20.736  0.00  0.00    +0.000 HD
ENDBRANCH  21  23
ENDBRANCH   1  20
TORSDOF 4
ENDMDL
MODEL 3
REMARK VINA RESULT:      -8.7      3.689      6.392
REMARK  Name = 
REMARK  4 active torsions:
REMARK  status: ('A' for Active; 'I' for Inactive)
REMARK    1  A    between atoms: C_2  and  C_13
REMARK    2  A    between atoms: N_3  and  C_4
REMARK    3  A    between atoms: C_18  and  C_19
REMARK    4  A    between atoms: C_23  and  C_24
REMARK                            x       y       z     vdW  Elec       q    Type
REMARK                         _______ _______ _______ _____ _____    ______ ____
ROOT
ATOM      1  C   UNL     1      -0.335  10.312  20.706  0.00  0.00    +0.000 A 
ATOM      2  C   UNL     1      -1.019  10.910  21.785  0.00  0.00    +0.000 A 
ATOM      3  C   UNL     1      -0.748  10.533  23.097  0.00  0.00    +0.000 A 
ATOM      4  C   UNL     1       0.204   9.554  23.344  0.00  0.00    +0.000 A 
ATOM      5  C   UNL     1       0.897   8.968  22.279  0.00  0.00    +0.000 A 
ATOM      6  C   UNL     1       0.653   9.315  20.929  0.00  0.00    +0.000 A 
ENDROOT
BRANCH   6   7
ATOM      7  C   UNL     1       1.445   8.632  19.860  0.00  0.00    +0.000 A 
ATOM      8  C   UNL     1       1.786   9.266  18.654  0.00  0.00    +0.000 A 
ATOM      9  C   UNL     1       2.489   8.599  17.646  0.00  0.00    +0.000 A 
ATOM     10  C   UNL     1       2.936   7.295  17.845  0.00  0.00    +0.000 A 
ATOM     11  C   UNL     1       2.684   6.642  19.054  0.00  0.00    +0.000 A 
ATOM     12  C   UNL     1       1.919   7.311  20.031  0.00  0.00    +0.000 A 
BRANCH  11  13
ATOM     13  C   UNL     1       3.209   5.312  19.337  0.00  0.00    +0.000 A 
ATOM     14  C   UNL     1       4.433   4.806  18.950  0.00  0.00    +0.000 A 
ATOM     15  N   UNL     1       4.490   3.546  19.481  0.00  0.00    +0.000 N 
ATOM     16  C   UNL     1       3.328   3.332  20.163  0.00  0.00    +0.000 A 
ATOM     17  N   UNL     1       2.535   4.376  20.095  0.00  0.00    +0.000 NA
ATOM     18  H   UNL     1       5.256   2.893  19.396  0.00  0.00    +0.000 HD
ENDBRANCH  11  13
ENDBRANCH   6   7
BRANCH   1  20
ATOM     19  O   UNL     1      -0.208  11.579  18.743  0.00  0.00    +0.000 OA
ATOM     20  C   UNL     1      -0.802  10.690  19.338  0.00  0.00    +0.000 C 
ATOM     21  N   UNL     1      -1.890   9.971  18.874  0.00  0.00    +0.000 N 
ATOM     22  H   UNL     1      -2.316   9.255  19.450  0.00  0.00    +0.000 HD
BRANCH  21  23
ATOM     23  C   UNL     1      -2.546  10.229  17.659  0.00  0.00    +0.000 A 
ATOM     24  N   UNL     1      -2.040   9.838  16.467  0.00  0.00    +0.000 NA
ATOM     25  C   UNL     1      -2.690  10.174  15.336  0.00  0.00    +0.000 A 
ATOM     26  N   UNL     1      -3.831  10.884  15.217  0.00  0.00    +0.000 NA
ATOM     27  C   UNL     1      -4.298  11.236  16.420  0.00  0.00    +0.000 A 
ATOM     28  N   UNL     1      -5.411  11.979  16.681  0.00  0.00    +0.000 N 
ATOM     29  C   UNL     1      -5.508  12.109  18.040  0.00  0.00    +0.000 A 
ATOM     30  N   UNL     1      -4.520  11.502  18.669  0.00  0.00    +0.000 NA
ATOM     31  C   UNL     1      -3.746  10.957  17.662  0.00  0.00    +0.000 A 
ATOM     32  H   UNL     1      -6.029  12.364  15.982  0.00  0.00    +0.000 HD
ENDBRANCH  21  23
ENDBRANCH   1  20
TORSDOF 4
ENDMDL
MODEL 4
REMARK VINA RESULT:      -8.6      1.276      1.313
REMARK  Name = 
REMARK  4 active torsions:
REMARK  status: ('A' for Active; 'I' for Inactive)
REMARK    1  A    between atoms: C_2  and  C_13
REMARK    2  A    between atoms: N_3  and  C_4
REMARK    3  A    between atoms: C_18  and  C_19
REMARK    4  A    between atoms: C_23  and  C_24
REMARK                            x       y       z     vdW  Elec       q    Type
REMARK                         _______ _______ _______ _____ _____    ______ ____
ROOT
ATOM      1  C   UNL     1       2.527   4.557  18.894  0.00  0.00    +0.000 A 
ATOM      2  C   UNL     1       1.286   4.007  19.278  0.00  0.00    +0.000 A 
ATOM      3  C   UNL     1       0.978   2.679  18.996  0.00  0.00    +0.000 A 
ATOM      4  C   UNL     1       1.902   1.890  18.326  0.00  0.00    +0.000 A 
ATOM      5  C   UNL     1       3.141   2.425  17.957  0.00  0.00    +0.000 A 
ATOM      6  C   UNL     1       3.498   3.770  18.218  0.00  0.00    +0.000 A 
ENDROOT
BRANCH   6   7
ATOM      7  C   UNL     1       4.846   4.250  17.784  0.00  0.00    +0.000 A 
ATOM      8  C   UNL     1       5.830   4.659  18.698  0.00  0.00    +0.000 A 
ATOM      9  C   UNL     1       7.070   5.147  18.275  0.00  0.00    +0.000 A 
ATOM     10  C   UNL     1       7.390   5.172  16.919  0.00  0.00    +0.000 A 
ATOM     11  C   UNL     1       6.473   4.712  15.972  0.00  0.00    +0.000 A 
ATOM     12  C   UNL     1       5.206   4.283  16.416  0.00  0.00    +0.000 A 
BRANCH  11  13
ATOM     13  C   UNL     1       6.800   4.638  14.553  0.00  0.00    +0.000 A 
ATOM     14  C   UNL     1       6.214   3.820  13.610  0.00  0.00    +0.000 A 
ATOM     15  N   UNL     1       6.821   4.137  12.425  0.00  0.00    +0.000 N 
ATOM     16  C   UNL     1       7.734   5.118  12.679  0.00  0.00    +0.000 A 
ATOM     17  N   UNL     1       7.747   5.442  13.951  0.00  0.00    +0.000 NA
ATOM     18  H   UNL     1       6.625   3.729  11.521  0.00  0.00    +0.000 HD
ENDBRANCH  11  13
ENDBRANCH   6   7
BRANCH   1  20
ATOM     19  O   UNL     1       3.563   6.397  19.901  0.00  0.00    +0.000 OA
ATOM     20  C   UNL     1       2.696   6.023  19.122  0.00  0.00    +0.000 C 
ATOM     21  N   UNL     1       1.830   6.829  18.404  0.00  0.00    +0.000 N 
ATOM     22  H   UNL     1       1.140   6.418  17.786  0.00  0.00    +0.000 HD
BRANCH  21  23
ATOM     23  C   UNL     1       1.754   8.225  18.540  0.00  0.00    +0.000 A 
ATOM     24  N   UNL     1       2.169   9.070  17.569  0.00  0.00    +0.000 NA
ATOM     25  C   UNL     1       2.127  10.397  17.791  0.00  0.00    +0.000 A 
ATOM     26  N   UNL     1       1.710  11.037  18.904  0.00  0.00    +0.000 NA
ATOM     27  C   UNL     1       1.300  10.162  19.827  0.00  0.00    +0.000 A 
ATOM     28  N   UNL     1       0.841  10.448  21.080  0.00  0.00    +0.000 N 
ATOM     29  C   UNL     1       0.543   9.260  21.689  0.00  0.00    +0.000 A 
ATOM     30  N   UNL     1       0.792   8.225  20.909  0.00  0.00    +0.000 NA
ATOM     31  C   UNL     1       1.277   8.778  19.739  0.00  0.00    +0.000 A 
ATOM     32  H   UNL     1       0.757  11.376  21.469  0.00  0.00    +0.000 HD
ENDBRANCH  21  23
ENDBRANCH   1  20
TORSDOF 4
ENDMDL
MODEL 5
REMARK VINA RESULT:      -8.3      1.758      7.000
REMARK  Name = 
REMARK  4 active torsions:
REMARK  status: ('A' for Active; 'I' for Inactive)
REMARK    1  A    between atoms: C_2  and  C_13
REMARK    2  A    between atoms: N_3  and  C_4
REMARK    3  A    between atoms: C_18  and  C_19
REMARK    4  A    between atoms: C_23  and  C_24
REMARK                            x       y       z     vdW  Elec       q    Type
REMARK                         _______ _______ _______ _____ _____    ______ ____
ROOT
ATOM      1  C   UNL     1       3.357   3.690  19.761  0.00  0.00    +0.000 A 
ATOM      2  C   UNL     1       3.329   2.399  20.326  0.00  0.00    +0.000 A 
ATOM      3  C   UNL     1       2.301   2.017  21.182  0.00  0.00    +0.000 A 
ATOM      4  C   UNL     1       1.293   2.922  21.485  0.00  0.00    +0.000 A 
ATOM      5  C   UNL     1       1.306   4.199  20.916  0.00  0.00    +0.000 A 
ATOM      6  C   UNL     1       2.332   4.633  20.043  0.00  0.00    +0.000 A 
ENDROOT
BRANCH   6   7
ATOM      7  C   UNL     1       2.258   6.019  19.484  0.00  0.00    +0.000 A 
ATOM      8  C   UNL     1       2.663   6.326  18.175  0.00  0.00    +0.000 A 
ATOM      9  C   UNL     1       2.629   7.634  17.682  0.00  0.00    +0.000 A 
ATOM     10  C   UNL     1       2.119   8.667  18.465  0.00  0.00    +0.000 A 
ATOM     11  C   UNL     1       1.639   8.404  19.750  0.00  0.00    +0.000 A 
ATOM     12  C   UNL     1       1.741   7.090  20.250  0.00  0.00    +0.000 A 
BRANCH  11  13
ATOM     13  C   UNL     1       1.017   9.439  20.568  0.00  0.00    +0.000 A 
ATOM     14  C   UNL     1       0.495   9.289  21.836  0.00  0.00    +0.000 A 
ATOM     15  N   UNL     1       0.066  10.536  22.203  0.00  0.00    +0.000 N 
ATOM     16  C   UNL     1       0.339  11.386  21.171  0.00  0.00    +0.000 A 
ATOM     17  N   UNL     1       0.911  10.757  20.171  0.00  0.00    +0.000 NA
ATOM     18  H   UNL     1      -0.365  10.788  23.081  0.00  0.00    +0.000 HD
ENDBRANCH  11  13
ENDBRANCH   6   7
BRANCH   1  20
ATOM     19  O   UNL     1       5.613   4.282  19.572  0.00  0.00    +0.000 OA
ATOM     20  C   UNL     1       4.576   4.038  18.970  0.00  0.00    +0.000 C 
ATOM     21  N   UNL     1       4.398   4.046  17.598  0.00  0.00    +0.000 N 
ATOM     22  H   UNL     1       3.493   3.834  17.196  0.00  0.00    +0.000 HD
BRANCH  21  23
ATOM     23  C   UNL     1       5.383   4.438  16.677  0.00  0.00    +0.000 A 
ATOM     24  N   UNL     1       5.674   3.709  15.574  0.00  0.00    +0.000 NA
ATOM     25  C   UNL     1       6.674   4.110  14.767  0.00  0.00    +0.000 A 
ATOM     26  N   UNL     1       7.471   5.190  14.910  0.00  0.00    +0.000 NA
ATOM     27  C   UNL     1       7.138   5.882  16.004  0.00  0.00    +0.000 A 
ATOM     28  N   UNL     1       7.743   7.011  16.475  0.00  0.00    +0.000 N 
ATOM     29  C   UNL     1       7.092   7.378  17.621  0.00  0.00    +0.000 A 
ATOM     30  N   UNL     1       6.111   6.549  17.922  0.00  0.00    +0.000 NA
ATOM     31  C   UNL     1       6.134   5.599  16.919  0.00  0.00    +0.000 A 
ATOM     32  H   UNL     1       8.536   7.466  16.045  0.00  0.00    +0.000 HD
ENDBRANCH  21  23
ENDBRANCH   1  20
TORSDOF 4
ENDMDL
MODEL 6
REMARK VINA RESULT:      -8.3      1.936      2.848
REMARK  Name = 
REMARK  4 active torsions:
REMARK  status: ('A' for Active; 'I' for Inactive)
REMARK    1  A    between atoms: C_2  and  C_13
REMARK    2  A    between atoms: N_3  and  C_4
REMARK    3  A    between atoms: C_18  and  C_19
REMARK    4  A    between atoms: C_23  and  C_24
REMARK                            x       y       z     vdW  Elec       q    Type
REMARK                         _______ _______ _______ _____ _____    ______ ____
ROOT
ATOM      1  C   UNL     1       2.378   4.632  18.954  0.00  0.00    +0.000 A 
ATOM      2  C   UNL     1       1.316   4.046  19.674  0.00  0.00    +0.000 A 
ATOM      3  C   UNL     1       0.960   2.717  19.462  0.00  0.00    +0.000 A 
ATOM      4  C   UNL     1       1.658   1.963  18.529  0.00  0.00    +0.000 A 
ATOM      5  C   UNL     1       2.722   2.534  17.823  0.00  0.00    +0.000 A 
ATOM      6  C   UNL     1       3.118   3.881  18.001  0.00  0.00    +0.000 A 
ENDROOT
BRANCH   6   7
ATOM      7  C   UNL     1       4.269   4.401  17.199  0.00  0.00    +0.000 A 
ATOM      8  C   UNL     1       4.457   4.067  15.848  0.00  0.00    +0.000 A 
ATOM      9  C   UNL     1       5.561   4.526  15.124  0.00  0.00    +0.000 A 
ATOM     10  C   UNL     1       6.477   5.395  15.714  0.00  0.00    +0.000 A 
ATOM     11  C   UNL     1       6.299   5.813  17.035  0.00  0.00    +0.000 A 
ATOM     12  C   UNL     1       5.214   5.288  17.765  0.00  0.00    +0.000 A 
BRANCH  11  13
ATOM     13  C   UNL     1       7.183   6.788  17.661  0.00  0.00    +0.000 A 
ATOM     14  C   UNL     1       7.981   6.592  18.769  0.00  0.00    +0.000 A 
ATOM     15  N   UNL     1       8.651   7.771  18.949  0.00  0.00    +0.000 N 
ATOM     16  C   UNL     1       8.251   8.627  17.964  0.00  0.00    +0.000 A 
ATOM     17  N   UNL     1       7.368   8.066  17.172  0.00  0.00    +0.000 NA
ATOM     18  H   UNL     1       9.327   7.974  19.672  0.00  0.00    +0.000 HD
ENDBRANCH  11  13
ENDBRANCH   6   7
BRANCH   1  20
ATOM     19  O   UNL     1       3.477   6.463  19.911  0.00  0.00    +0.000 OA
ATOM     20  C   UNL     1       2.584   6.097  19.159  0.00  0.00    +0.000 C 
ATOM     21  N   UNL     1       1.716   6.912  18.452  0.00  0.00    +0.000 N 
ATOM     22  H   UNL     1       1.003   6.508  17.857  0.00  0.00    +0.000 HD
BRANCH  21  23
ATOM     23  C   UNL     1       1.672   8.311  18.572  0.00  0.00    +0.000 A 
ATOM     24  N   UNL     1       2.116   9.135  17.596  0.00  0.00    +0.000 NA
ATOM     25  C   UNL     1       2.103  10.465  17.803  0.00  0.00    +0.000 A 
ATOM     26  N   UNL     1       1.692  11.127  18.905  0.00  0.00    +0.000 NA
ATOM     27  C   UNL     1       1.253  10.273  19.834  0.00  0.00    +0.000 A 
ATOM     28  N   UNL     1       0.790  10.584  21.079  0.00  0.00    +0.000 N 
ATOM     29  C   UNL     1       0.459   9.410  21.699  0.00  0.00    +0.000 A 
ATOM     30  N   UNL     1       0.690   8.361  20.933  0.00  0.00    +0.000 NA
ATOM     31  C   UNL     1       1.198   8.888  19.761  0.00  0.00    +0.000 A 
ATOM     32  H   UNL     1       0.725  11.517  21.458  0.00  0.00    +0.000 HD
ENDBRANCH  21  23
ENDBRANCH   1  20
TORSDOF 4
ENDMDL
MODEL 7
REMARK VINA RESULT:      -8.2      0.989      1.812
REMARK  Name = 
REMARK  4 active torsions:
REMARK  status: ('A' for Active; 'I' for Inactive)
REMARK    1  A    between atoms: C_2  and  C_13
REMARK    2  A    between atoms: N_3  and  C_4
REMARK    3  A    between atoms: C_18  and  C_19
REMARK    4  A    between atoms: C_23  and  C_24
REMARK                            x       y       z     vdW  Elec       q    Type
REMARK                         _______ _______ _______ _____ _____    ______ ____
ROOT
ATOM      1  C   UNL     1       2.398   4.715  19.705  0.00  0.00    +0.000 A 
ATOM      2  C   UNL     1       1.211   4.105  20.160  0.00  0.00    +0.000 A 
ATOM      3  C   UNL     1       1.015   2.734  20.019  0.00  0.00    +0.000 A 
ATOM      4  C   UNL     1       2.000   1.961  19.421  0.00  0.00    +0.000 A 
ATOM      5  C   UNL     1       3.186   2.557  18.982  0.00  0.00    +0.000 A 
ATOM      6  C   UNL     1       3.429   3.947  19.100  0.00  0.00    +0.000 A 
ENDROOT
BRANCH   6   7
ATOM      7  C   UNL     1       4.730   4.491  18.600  0.00  0.00    +0.000 A 
ATOM      8  C   UNL     1       5.686   5.063  19.456  0.00  0.00    +0.000 A 
ATOM      9  C   UNL     1       6.877   5.607  18.968  0.00  0.00    +0.000 A 
ATOM     10  C   UNL     1       7.181   5.531  17.611  0.00  0.00    +0.000 A 
ATOM     11  C   UNL     1       6.296   4.911  16.726  0.00  0.00    +0.000 A 
ATOM     12  C   UNL     1       5.073   4.426  17.230  0.00  0.00    +0.000 A 
BRANCH  11  13
ATOM     13  C   UNL     1       6.615   4.732  15.314  0.00  0.00    +0.000 A 
ATOM     14  C   UNL     1       5.980   3.892  14.423  0.00  0.00    +0.000 A 
ATOM     15  N   UNL     1       6.601   4.101  13.221  0.00  0.00    +0.000 N 
ATOM     16  C   UNL     1       7.570   5.042  13.416  0.00  0.00    +0.000 A 
ATOM     17  N   UNL     1       7.605   5.441  14.665  0.00  0.00    +0.000 NA
ATOM     18  H   UNL     1       6.380   3.650  12.344  0.00  0.00    +0.000 HD
ENDBRANCH  11  13
ENDBRANCH   6   7
BRANCH   1  20
ATOM     19  O   UNL     1       3.324   6.795  19.167  0.00  0.00    +0.000 OA
ATOM     20  C   UNL     1       2.444   6.206  19.779  0.00  0.00    +0.000 C 
ATOM     21  N   UNL     1       1.453   6.782  20.555  0.00  0.00    +0.000 N 
ATOM     22  H   UNL     1       0.770   6.202  21.029  0.00  0.00    +0.000 HD
BRANCH  21  23
ATOM     23  C   UNL     1       1.368   8.155  20.837  0.00  0.00    +0.000 A 
ATOM     24  N   UNL     1       1.417   8.640  22.099  0.00  0.00    +0.000 NA
ATOM     25  C   UNL     1       1.266   9.962  22.301  0.00  0.00    +0.000 A 
ATOM     26  N   UNL     1       1.060  10.923  21.376  0.00  0.00    +0.000 NA
ATOM     27  C   UNL     1       1.032  10.398  20.147  0.00  0.00    +0.000 A 
ATOM     28  N   UNL     1       0.818  11.065  18.976  0.00  0.00    +0.000 N 
ATOM     29  C   UNL     1       0.860  10.143  17.965  0.00  0.00    +0.000 A 
ATOM     30  N   UNL     1       1.078   8.922  18.414  0.00  0.00    +0.000 NA
ATOM     31  C   UNL     1       1.180   9.066  19.785  0.00  0.00    +0.000 A 
ATOM     32  H   UNL     1       0.648  12.057  18.896  0.00  0.00    +0.000 HD
ENDBRANCH  21  23
ENDBRANCH   1  20
TORSDOF 4
ENDMDL
MODEL 8
REMARK VINA RESULT:      -8.2      1.806      7.433
REMARK  Name = 
REMARK  4 active torsions:
REMARK  status: ('A' for Active; 'I' for Inactive)
REMARK    1  A    between atoms: C_2  and  C_13
REMARK    2  A    between atoms: N_3  and  C_4
REMARK    3  A    between atoms: C_18  and  C_19
REMARK    4  A    between atoms: C_23  and  C_24
REMARK                            x       y       z     vdW  Elec       q    Type
REMARK                         _______ _______ _______ _____ _____    ______ ____
ROOT
ATOM      1  C   UNL     1       3.297   3.956  19.890  0.00  0.00    +0.000 A 
ATOM      2  C   UNL     1       3.305   2.610  20.311  0.00  0.00    +0.000 A 
ATOM      3  C   UNL     1       2.190   2.050  20.927  0.00  0.00    +0.000 A 
ATOM      4  C   UNL     1       1.059   2.828  21.133  0.00  0.00    +0.000 A 
ATOM      5  C   UNL     1       1.039   4.159  20.704  0.00  0.00    +0.000 A 
ATOM      6  C   UNL     1       2.149   4.773  20.076  0.00  0.00    +0.000 A 
ENDROOT
BRANCH   6   7
ATOM      7  C   UNL     1       2.032   6.203  19.653  0.00  0.00    +0.000 A 
ATOM      8  C   UNL     1       2.399   6.642  18.371  0.00  0.00    +0.000 A 
ATOM      9  C   UNL     1       2.325   7.989  18.005  0.00  0.00    +0.000 A 
ATOM     10  C   UNL     1       1.810   8.931  18.892  0.00  0.00    +0.000 A 
ATOM     11  C   UNL     1       1.366   8.537  20.157  0.00  0.00    +0.000 A 
ATOM     12  C   UNL     1       1.509   7.185  20.527  0.00  0.00    +0.000 A 
BRANCH  11  13
ATOM     13  C   UNL     1       0.740   9.474  21.082  0.00  0.00    +0.000 A 
ATOM     14  C   UNL     1       0.633  10.841  20.929  0.00  0.00    +0.000 A 
ATOM     15  N   UNL     1      -0.064  11.276  22.023  0.00  0.00    +0.000 N 
ATOM     16  C   UNL     1      -0.355  10.184  22.788  0.00  0.00    +0.000 A 
ATOM     17  N   UNL     1       0.115   9.084  22.249  0.00  0.00    +0.000 NA
ATOM     18  H   UNL     1      -0.326  12.230  22.228  0.00  0.00    +0.000 HD
ENDBRANCH  11  13
ENDBRANCH   6   7
BRANCH   1  20
ATOM     19  O   UNL     1       5.505   4.680  20.158  0.00  0.00    +0.000 OA
ATOM     20  C   UNL     1       4.590   4.491  19.368  0.00  0.00    +0.000 C 
ATOM     21  N   UNL     1       4.618   4.722  18.004  0.00  0.00    +0.000 N 
ATOM     22  H   UNL     1       3.800   4.538  17.435  0.00  0.00    +0.000 HD
BRANCH  21  23
ATOM     23  C   UNL     1       5.697   5.311  17.325  0.00  0.00    +0.000 A 
ATOM     24  N   UNL     1       6.412   6.333  17.850  0.00  0.00    +0.000 NA
ATOM     25  C   UNL     1       7.393   6.892  17.117  0.00  0.00    +0.000 A 
ATOM     26  N   UNL     1       7.784   6.564  15.868  0.00  0.00    +0.000 NA
ATOM     27  C   UNL     1       7.058   5.544  15.398  0.00  0.00    +0.000 A 
ATOM     28  N   UNL     1       7.156   4.969  14.165  0.00  0.00    +0.000 N 
ATOM     29  C   UNL     1       6.221   3.973  14.101  0.00  0.00    +0.000 A 
ATOM     30  N   UNL     1       5.518   3.878  15.214  0.00  0.00    +0.000 NA
ATOM     31  C   UNL     1       6.028   4.866  16.035  0.00  0.00    +0.000 A 
ATOM     32  H   UNL     1       7.802   5.252  13.442  0.00  0.00    +0.000 HD
ENDBRANCH  21  23
ENDBRANCH   1  20
TORSDOF 4
ENDMDL
MODEL 9
REMARK VINA RESULT:      -8.2      4.074      6.333
REMARK  Name = 
REMARK  4 active torsions:
REMARK  status: ('A' for Active; 'I' for Inactive)
REMARK    1  A    between atoms: C_2  and  C_13
REMARK    2  A    between atoms: N_3  and  C_4
REMARK    3  A    between atoms: C_18  and  C_19
REMARK    4  A    between atoms: C_23  and  C_24
REMARK                            x       y       z     vdW  Elec       q    Type
REMARK                         _______ _______ _______ _____ _____    ______ ____
ROOT
ATOM      1  C   UNL     1       5.434   4.518  15.459  0.00  0.00    +0.000 A 
ATOM      2  C   UNL     1       5.024   3.989  14.217  0.00  0.00    +0.000 A 
ATOM      3  C   UNL     1       5.875   4.016  13.116  0.00  0.00    +0.000 A 
ATOM      4  C   UNL     1       7.139   4.574  13.242  0.00  0.00    +0.000 A 
ATOM      5  C   UNL     1       7.557   5.086  14.475  0.00  0.00    +0.000 A 
ATOM      6  C   UNL     1       6.727   5.084  15.621  0.00  0.00    +0.000 A 
ENDROOT
BRANCH   6   7
ATOM      7  C   UNL     1       7.264   5.655  16.895  0.00  0.00    +0.000 A 
ATOM      8  C   UNL     1       7.590   4.854  18.001  0.00  0.00    +0.000 A 
ATOM      9  C   UNL     1       8.049   5.407  19.201  0.00  0.00    +0.000 A 
ATOM     10  C   UNL     1       8.266   6.779  19.304  0.00  0.00    +0.000 A 
ATOM     11  C   UNL     1       8.023   7.614  18.211  0.00  0.00    +0.000 A 
ATOM     12  C   UNL     1       7.500   7.043  17.033  0.00  0.00    +0.000 A 
BRANCH  11  13
ATOM     13  C   UNL     1       8.319   9.041  18.249  0.00  0.00    +0.000 A 
ATOM     14  C   UNL     1       9.236   9.674  19.062  0.00  0.00    +0.000 A 
ATOM     15  N   UNL     1       9.186  10.995  18.707  0.00  0.00    +0.000 N 
ATOM     16  C   UNL     1       8.264  11.119  17.709  0.00  0.00    +0.000 A 
ATOM     17  N   UNL     1       7.724   9.961  17.410  0.00  0.00    +0.000 NA
ATOM     18  H   UNL     1       9.737  11.744  19.102  0.00  0.00    +0.000 HD
ENDBRANCH  11  13
ENDBRANCH   6   7
BRANCH   1  20
ATOM     19  O   UNL     1       4.122   5.643  17.036  0.00  0.00    +0.000 OA
ATOM     20  C   UNL     1       4.395   4.562  16.531  0.00  0.00    +0.000 C 
ATOM     21  N   UNL     1       3.831   3.339  16.849  0.00  0.00    +0.000 N 
ATOM     22  H   UNL     1       4.133   2.497  16.374  0.00  0.00    +0.000 HD
BRANCH  21  23
ATOM     23  C   UNL     1       2.909   3.141  17.890  0.00  0.00    +0.000 A 
ATOM     24  N   UNL     1       1.582   3.353  17.731  0.00  0.00    +0.000 NA
ATOM     25  C   UNL     1       0.763   3.205  18.789  0.00  0.00    +0.000 A 
ATOM     26  N   UNL     1       1.093   2.861  20.051  0.00  0.00    +0.000 NA
ATOM     27  C   UNL     1       2.410   2.651  20.154  0.00  0.00    +0.000 A 
ATOM     28  N   UNL     1       3.099   2.316  21.283  0.00  0.00    +0.000 N 
ATOM     29  C   UNL     1       4.420   2.212  20.941  0.00  0.00    +0.000 A 
ATOM     30  N   UNL     1       4.625   2.469  19.663  0.00  0.00    +0.000 NA
ATOM     31  C   UNL     1       3.370   2.755  19.158  0.00  0.00    +0.000 A 
ATOM     32  H   UNL     1       2.689   2.187  22.196  0.00  0.00    +0.000 HD
ENDBRANCH  21  23
ENDBRANCH   1  20
TORSDOF 4
ENDMDL
