MODEL 1
REMARK VINA RESULT:      -8.0      0.000      0.000
REMARK  Name = 
REMARK  7 active torsions:
REMARK  status: ('A' for Active; 'I' for Inactive)
REMARK    1  A    between atoms: C_1  and  C_2
REMARK    2  A    between atoms: C_2  and  C_3
REMARK    3  A    between atoms: C_2  and  C_4
REMARK    4  A    between atoms: C_2  and  C_5
REMARK    5  A    between atoms: N_8  and  C_9
REMARK    6  A    between atoms: C_17  and  C_18
REMARK    7  A    between atoms: C_18  and  C_19
REMARK                            x       y       z     vdW  Elec       q    Type
REMARK                         _______ _______ _______ _____ _____    ______ ____
ROOT
ATOM      1  C   UNL     1       0.480   9.400  20.213  0.00  0.00    +0.000 A 
ATOM      2  N   UNL     1      -0.457  10.178  19.542  0.00  0.00    +0.000 NA
ATOM      3  C   UNL     1      -0.293  10.197  18.244  0.00  0.00    +0.000 A 
ATOM      4  N   UNL     1      -1.101  10.869  17.390  0.00  0.00    +0.000 N 
ATOM      5  S   UNL     1       1.064   9.287  17.725  0.00  0.00    +0.000 S 
ATOM      6  C   UNL     1       1.381   8.776  19.359  0.00  0.00    +0.000 A 
ATOM      7  H   UNL     1      -0.788  11.093  16.456  0.00  0.00    +0.000 HD
ENDROOT
BRANCH   4   8
ATOM      8  C   UNL     1      -2.441  11.227  17.684  0.00  0.00    +0.000 A 
ATOM      9  C   UNL     1      -2.752  11.851  18.907  0.00  0.00    +0.000 A 
ATOM     10  C   UNL     1      -4.051  12.277  19.206  0.00  0.00    +0.000 A 
ATOM     11  C   UNL     1      -5.065  12.098  18.283  0.00  0.00    +0.000 A 
ATOM     12  C   UNL     1      -4.786  11.490  17.055  0.00  0.00    +0.000 A 
ATOM     13  C   UNL     1      -3.485  11.057  16.760  0.00  0.00    +0.000 A 
ATOM     14 BR   UNL     1      -3.183  10.260  15.061  0.00  0.00    +0.000 Br
ENDBRANCH   4   8
BRANCH   1  16
ATOM     15  C   UNL     1      -0.624   8.231  22.131  0.00  0.00    +0.000 C 
ATOM     16  C   UNL     1       0.293   9.415  21.730  0.00  0.00    +0.000 C 
ATOM     17  C   UNL     1      -0.389  10.748  22.133  0.00  0.00    +0.000 C 
ATOM     18  C   UNL     1       1.574   9.288  22.565  0.00  0.00    +0.000 C 
ENDBRANCH   1  16
BRANCH   6  19
ATOM     19  C   UNL     1       2.534   7.842  19.609  0.00  0.00    +0.000 C 
BRANCH  19  20
ATOM     20  C   UNL     1       2.244   6.348  19.540  0.00  0.00    +0.000 A 
ATOM     21  C   UNL     1       1.714   5.599  20.617  0.00  0.00    +0.000 A 
ATOM     22  C   UNL     1       1.555   4.210  20.528  0.00  0.00    +0.000 A 
ATOM     23  C   UNL     1       1.916   3.590  19.353  0.00  0.00    +0.000 A 
ATOM     24  C   UNL     1       2.389   4.306  18.281  0.00  0.00    +0.000 A 
ATOM     25  C   UNL     1       2.553   5.676  18.339  0.00  0.00    +0.000 A 
ATOM     26  O   UNL     1       2.685   3.513  17.218  0.00  0.00    +0.000 OA
ATOM     27  C   UNL     1       2.392   2.208  17.763  0.00  0.00    +0.000 C 
ATOM     28  O   UNL     1       1.869   2.255  19.107  0.00  0.00    +0.000 OA
ENDBRANCH  19  20
ENDBRANCH   6  19
TORSDOF 4
ENDMDL
MODEL 2
REMARK VINA RESULT:      -7.8      0.687      1.379
REMARK  Name = 
REMARK  7 active torsions:
REMARK  status: ('A' for Active; 'I' for Inactive)
REMARK    1  A    between atoms: C_1  and  C_2
REMARK    2  A    between atoms: C_2  and  C_3
REMARK    3  A    between atoms: C_2  and  C_4
REMARK    4  A    between atoms: C_2  and  C_5
REMARK    5  A    between atoms: N_8  and  C_9
REMARK    6  A    between atoms: C_17  and  C_18
REMARK    7  A    between atoms: C_18  and  C_19
REMARK                            x       y       z     vdW  Elec       q    Type
REMARK                         _______ _______ _______ _____ _____    ______ ____
ROOT
ATOM      1  C   UNL     1       0.403   9.535  20.228  0.00  0.00    +0.000 A 
ATOM      2  N   UNL     1      -0.566  10.303  19.591  0.00  0.00    +0.000 NA
ATOM      3  C   UNL     1      -0.407  10.380  18.294  0.00  0.00    +0.000 A 
ATOM      4  N   UNL     1      -1.245  11.054  17.470  0.00  0.00    +0.000 N 
ATOM      5  S   UNL     1       0.981   9.545  17.736  0.00  0.00    +0.000 S 
ATOM      6  C   UNL     1       1.324   8.981  19.347  0.00  0.00    +0.000 A 
ATOM      7  H   UNL     1      -0.944  11.327  16.544  0.00  0.00    +0.000 HD
ENDROOT
BRANCH   4   8
ATOM      8  C   UNL     1      -2.596  11.348  17.781  0.00  0.00    +0.000 A 
ATOM      9  C   UNL     1      -2.924  11.927  19.021  0.00  0.00    +0.000 A 
ATOM     10  C   UNL     1      -4.237  12.290  19.340  0.00  0.00    +0.000 A 
ATOM     11  C   UNL     1      -5.249  12.092  18.418  0.00  0.00    +0.000 A 
ATOM     12  C   UNL     1      -4.954  11.529  17.173  0.00  0.00    +0.000 A 
ATOM     13  C   UNL     1      -3.639  11.158  16.859  0.00  0.00    +0.000 A 
ATOM     14 BR   UNL     1      -3.316  10.419  15.138  0.00  0.00    +0.000 Br
ENDBRANCH   4   8
BRANCH   1  16
ATOM     15  C   UNL     1      -0.638   8.243  22.100  0.00  0.00    +0.000 C 
ATOM     16  C   UNL     1       0.222   9.483  21.745  0.00  0.00    +0.000 C 
ATOM     17  C   UNL     1      -0.520  10.766  22.201  0.00  0.00    +0.000 C 
ATOM     18  C   UNL     1       1.510   9.383  22.571  0.00  0.00    +0.000 C 
ENDBRANCH   1  16
BRANCH   6  19
ATOM     19  C   UNL     1       2.513   8.083  19.556  0.00  0.00    +0.000 C 
BRANCH  19  20
ATOM     20  C   UNL     1       2.308   6.594  19.318  0.00  0.00    +0.000 A 
ATOM     21  C   UNL     1       2.381   5.984  18.043  0.00  0.00    +0.000 A 
ATOM     22  C   UNL     1       2.093   4.623  17.870  0.00  0.00    +0.000 A 
ATOM     23  C   UNL     1       1.748   3.888  18.981  0.00  0.00    +0.000 A 
ATOM     24  C   UNL     1       1.716   4.452  20.233  0.00  0.00    +0.000 A 
ATOM     25  C   UNL     1       1.999   5.788  20.434  0.00  0.00    +0.000 A 
ATOM     26  O   UNL     1       1.358   3.560  21.195  0.00  0.00    +0.000 OA
ATOM     27  C   UNL     1       1.117   2.382  20.395  0.00  0.00    +0.000 C 
ATOM     28  O   UNL     1       1.398   2.574  18.993  0.00  0.00    +0.000 OA
ENDBRANCH  19  20
ENDBRANCH   6  19
TORSDOF 4
ENDMDL
MODEL 3
REMARK VINA RESULT:      -7.5      3.568      5.773
REMARK  Name = 
REMARK  7 active torsions:
REMARK  status: ('A' for Active; 'I' for Inactive)
REMARK    1  A    between atoms: C_1  and  C_2
REMARK    2  A    between atoms: C_2  and  C_3
REMARK    3  A    between atoms: C_2  and  C_4
REMARK    4  A    between atoms: C_2  and  C_5
REMARK    5  A    between atoms: N_8  and  C_9
REMARK    6  A    between atoms: C_17  and  C_18
REMARK    7  A    between atoms: C_18  and  C_19
REMARK                            x       y       z     vdW  Elec       q    Type
REMARK                         _______ _______ _______ _____ _____    ______ ____
ROOT
ATOM      1  C   UNL     1       2.531   5.003  19.342  0.00  0.00    +0.000 A 
ATOM      2  N   UNL     1       2.198   6.225  19.918  0.00  0.00    +0.000 NA
ATOM      3  C   UNL     1       2.485   7.256  19.167  0.00  0.00    +0.000 A 
ATOM      4  N   UNL     1       2.226   8.539  19.516  0.00  0.00    +0.000 N 
ATOM      5  S   UNL     1       3.236   6.823  17.689  0.00  0.00    +0.000 S 
ATOM      6  C   UNL     1       3.074   5.133  18.069  0.00  0.00    +0.000 A 
ATOM      7  H   UNL     1       2.707   9.302  19.059  0.00  0.00    +0.000 HD
ENDROOT
BRANCH   4   8
ATOM      8  C   UNL     1       1.233   8.922  20.452  0.00  0.00    +0.000 A 
ATOM      9  C   UNL     1       1.411   8.643  21.821  0.00  0.00    +0.000 A 
ATOM     10  C   UNL     1       0.484   9.060  22.782  0.00  0.00    +0.000 A 
ATOM     11  C   UNL     1      -0.635   9.775  22.396  0.00  0.00    +0.000 A 
ATOM     12  C   UNL     1      -0.835  10.076  21.045  0.00  0.00    +0.000 A 
ATOM     13  C   UNL     1       0.091   9.651  20.082  0.00  0.00    +0.000 A 
ATOM     14 BR   UNL     1      -0.240  10.119  18.270  0.00  0.00    +0.000 Br
ENDBRANCH   4   8
BRANCH   1  16
ATOM     15  C   UNL     1       0.793   3.299  19.920  0.00  0.00    +0.000 C 
ATOM     16  C   UNL     1       2.219   3.811  20.246  0.00  0.00    +0.000 C 
ATOM     17  C   UNL     1       2.267   4.281  21.723  0.00  0.00    +0.000 C 
ATOM     18  C   UNL     1       3.163   2.608  20.120  0.00  0.00    +0.000 C 
ENDBRANCH   1  16
BRANCH   6  19
ATOM     19  C   UNL     1       3.557   4.120  17.066  0.00  0.00    +0.000 C 
BRANCH  19  20
ATOM     20  C   UNL     1       4.868   4.421  16.353  0.00  0.00    +0.000 A 
ATOM     21  C   UNL     1       5.963   5.079  16.964  0.00  0.00    +0.000 A 
ATOM     22  C   UNL     1       7.110   5.412  16.232  0.00  0.00    +0.000 A 
ATOM     23  C   UNL     1       7.152   5.069  14.900  0.00  0.00    +0.000 A 
ATOM     24  C   UNL     1       6.119   4.391  14.301  0.00  0.00    +0.000 A 
ATOM     25  C   UNL     1       4.977   4.045  14.998  0.00  0.00    +0.000 A 
ATOM     26  O   UNL     1       6.354   4.143  12.986  0.00  0.00    +0.000 OA
ATOM     27  C   UNL     1       7.633   4.791  12.812  0.00  0.00    +0.000 C 
ATOM     28  O   UNL     1       8.161   5.349  14.034  0.00  0.00    +0.000 OA
ENDBRANCH  19  20
ENDBRANCH   6  19
TORSDOF 4
ENDMDL
MODEL 4
REMARK VINA RESULT:      -7.2      3.847      6.147
REMARK  Name = 
REMARK  7 active torsions:
REMARK  status: ('A' for Active; 'I' for Inactive)
REMARK    1  A    between atoms: C_1  and  C_2
REMARK    2  A    between atoms: C_2  and  C_3
REMARK    3  A    between atoms: C_2  and  C_4
REMARK    4  A    between atoms: C_2  and  C_5
REMARK    5  A    between atoms: N_8  and  C_9
REMARK    6  A    between atoms: C_17  and  C_18
REMARK    7  A    between atoms: C_18  and  C_19
REMARK                            x       y       z     vdW  Elec       q    Type
REMARK                         _______ _______ _______ _____ _____    ______ ____
ROOT
ATOM      1  C   UNL     1       2.622   4.532  19.074  0.00  0.00    +0.000 A 
ATOM      2  N   UNL     1       2.276   5.757  19.634  0.00  0.00    +0.000 NA
ATOM      3  C   UNL     1       2.780   6.786  19.001  0.00  0.00    +0.000 A 
ATOM      4  N   UNL     1       2.555   8.074  19.355  0.00  0.00    +0.000 N 
ATOM      5  S   UNL     1       3.768   6.340  17.673  0.00  0.00    +0.000 S 
ATOM      6  C   UNL     1       3.409   4.657  17.935  0.00  0.00    +0.000 A 
ATOM      7  H   UNL     1       3.171   8.809  19.035  0.00  0.00    +0.000 HD
ENDROOT
BRANCH   4   8
ATOM      8  C   UNL     1       1.431   8.506  20.103  0.00  0.00    +0.000 A 
ATOM      9  C   UNL     1       1.020   7.782  21.238  0.00  0.00    +0.000 A 
ATOM     10  C   UNL     1      -0.045   8.212  22.038  0.00  0.00    +0.000 A 
ATOM     11  C   UNL     1      -0.713   9.382  21.725  0.00  0.00    +0.000 A 
ATOM     12  C   UNL     1      -0.322  10.128  20.610  0.00  0.00    +0.000 A 
ATOM     13  C   UNL     1       0.740   9.692  19.805  0.00  0.00    +0.000 A 
ATOM     14 BR   UNL     1       1.225  10.773  18.319  0.00  0.00    +0.000 Br
ENDBRANCH   4   8
BRANCH   1  16
ATOM     15  C   UNL     1       3.228   2.444  20.311  0.00  0.00    +0.000 C 
ATOM     16  C   UNL     1       2.053   3.340  19.844  0.00  0.00    +0.000 C 
ATOM     17  C   UNL     1       1.137   2.527  18.893  0.00  0.00    +0.000 C 
ATOM     18  C   UNL     1       1.228   3.680  21.091  0.00  0.00    +0.000 C 
ENDBRANCH   1  16
BRANCH   6  19
ATOM     19  C   UNL     1       3.999   3.642  16.995  0.00  0.00    +0.000 C 
BRANCH  19  20
ATOM     20  C   UNL     1       5.216   4.070  16.186  0.00  0.00    +0.000 A 
ATOM     21  C   UNL     1       6.335   4.736  16.742  0.00  0.00    +0.000 A 
ATOM     22  C   UNL     1       7.386   5.189  15.934  0.00  0.00    +0.000 A 
ATOM     23  C   UNL     1       7.310   4.955  14.580  0.00  0.00    +0.000 A 
ATOM     24  C   UNL     1       6.255   4.270  14.029  0.00  0.00    +0.000 A 
ATOM     25  C   UNL     1       5.207   3.809  14.800  0.00  0.00    +0.000 A 
ATOM     26  O   UNL     1       6.369   4.140  12.680  0.00  0.00    +0.000 OA
ATOM     27  C   UNL     1       7.592   4.869  12.440  0.00  0.00    +0.000 C 
ATOM     28  O   UNL     1       8.213   5.357  13.647  0.00  0.00    +0.000 OA
ENDBRANCH  19  20
ENDBRANCH   6  19
TORSDOF 4
ENDMDL
MODEL 5
REMARK VINA RESULT:      -7.2      1.224      1.503
REMARK  Name = 
REMARK  7 active torsions:
REMARK  status: ('A' for Active; 'I' for Inactive)
REMARK    1  A    between atoms: C_1  and  C_2
REMARK    2  A    between atoms: C_2  and  C_3
REMARK    3  A    between atoms: C_2  and  C_4
REMARK    4  A    between atoms: C_2  and  C_5
REMARK    5  A    between atoms: N_8  and  C_9
REMARK    6  A    between atoms: C_17  and  C_18
REMARK    7  A    between atoms: C_18  and  C_19
REMARK                            x       y       z     vdW  Elec       q    Type
REMARK                         _______ _______ _______ _____ _____    ______ ____
ROOT
ATOM      1  C   UNL     1       0.443   9.444  20.297  0.00  0.00    +0.000 A 
ATOM      2  N   UNL     1      -0.559  10.240  19.752  0.00  0.00    +0.000 NA
ATOM      3  C   UNL     1      -0.492  10.354  18.450  0.00  0.00    +0.000 A 
ATOM      4  N   UNL     1      -1.377  11.060  17.707  0.00  0.00    +0.000 N 
ATOM      5  S   UNL     1       0.845   9.523  17.771  0.00  0.00    +0.000 S 
ATOM      6  C   UNL     1       1.293   8.908  19.337  0.00  0.00    +0.000 A 
ATOM      7  H   UNL     1      -1.139  11.358  16.771  0.00  0.00    +0.000 HD
ENDROOT
BRANCH   4   8
ATOM      8  C   UNL     1      -2.700  11.357  18.121  0.00  0.00    +0.000 A 
ATOM      9  C   UNL     1      -3.781  10.613  17.612  0.00  0.00    +0.000 A 
ATOM     10  C   UNL     1      -5.094  10.833  18.043  0.00  0.00    +0.000 A 
ATOM     11  C   UNL     1      -5.351  11.796  19.002  0.00  0.00    +0.000 A 
ATOM     12  C   UNL     1      -4.298  12.545  19.534  0.00  0.00    +0.000 A 
ATOM     13  C   UNL     1      -2.984  12.328  19.095  0.00  0.00    +0.000 A 
ATOM     14 BR   UNL     1      -1.605  13.371  19.883  0.00  0.00    +0.000 Br
ENDBRANCH   4   8
BRANCH   1  16
ATOM     15  C   UNL     1      -0.550   8.158  22.199  0.00  0.00    +0.000 C 
ATOM     16  C   UNL     1       0.369   9.348  21.820  0.00  0.00    +0.000 C 
ATOM     17  C   UNL     1      -0.245  10.661  22.371  0.00  0.00    +0.000 C 
ATOM     18  C   UNL     1       1.703   9.129  22.545  0.00  0.00    +0.000 C 
ENDBRANCH   1  16
BRANCH   6  19
ATOM     19  C   UNL     1       2.484   7.993  19.436  0.00  0.00    +0.000 C 
BRANCH  19  20
ATOM     20  C   UNL     1       2.210   6.496  19.441  0.00  0.00    +0.000 A 
ATOM     21  C   UNL     1       1.758   5.783  20.577  0.00  0.00    +0.000 A 
ATOM     22  C   UNL     1       1.610   4.390  20.550  0.00  0.00    +0.000 A 
ATOM     23  C   UNL     1       1.905   3.730  19.379  0.00  0.00    +0.000 A 
ATOM     24  C   UNL     1       2.301   4.409  18.253  0.00  0.00    +0.000 A 
ATOM     25  C   UNL     1       2.451   5.782  18.249  0.00  0.00    +0.000 A 
ATOM     26  O   UNL     1       2.539   3.579  17.203  0.00  0.00    +0.000 OA
ATOM     27  C   UNL     1       2.298   2.293  17.814  0.00  0.00    +0.000 C 
ATOM     28  O   UNL     1       1.859   2.385  19.186  0.00  0.00    +0.000 OA
ENDBRANCH  19  20
ENDBRANCH   6  19
TORSDOF 4
ENDMDL
MODEL 6
REMARK VINA RESULT:      -7.1      2.881      4.305
REMARK  Name = 
REMARK  7 active torsions:
REMARK  status: ('A' for Active; 'I' for Inactive)
REMARK    1  A    between atoms: C_1  and  C_2
REMARK    2  A    between atoms: C_2  and  C_3
REMARK    3  A    between atoms: C_2  and  C_4
REMARK    4  A    between atoms: C_2  and  C_5
REMARK    5  A    between atoms: N_8  and  C_9
REMARK    6  A    between atoms: C_17  and  C_18
REMARK    7  A    between atoms: C_18  and  C_19
REMARK                            x       y       z     vdW  Elec       q    Type
REMARK                         _______ _______ _______ _____ _____    ______ ____
ROOT
ATOM      1  C   UNL     1      -1.621  12.159  20.365  0.00  0.00    +0.000 A 
ATOM      2  N   UNL     1      -2.984  12.175  20.086  0.00  0.00    +0.000 NA
ATOM      3  C   UNL     1      -3.262  12.013  18.818  0.00  0.00    +0.000 A 
ATOM      4  N   UNL     1      -4.522  11.971  18.322  0.00  0.00    +0.000 N 
ATOM      5  S   UNL     1      -1.866  11.868  17.836  0.00  0.00    +0.000 S 
ATOM      6  C   UNL     1      -0.838  11.943  19.238  0.00  0.00    +0.000 A 
ATOM      7  H   UNL     1      -4.692  12.132  17.338  0.00  0.00    +0.000 HD
ENDROOT
BRANCH   4   8
ATOM      8  C   UNL     1      -5.664  11.624  19.086  0.00  0.00    +0.000 A 
ATOM      9  C   UNL     1      -6.085  10.282  19.154  0.00  0.00    +0.000 A 
ATOM     10  C   UNL     1      -7.168   9.890  19.948  0.00  0.00    +0.000 A 
ATOM     11  C   UNL     1      -7.848  10.831  20.700  0.00  0.00    +0.000 A 
ATOM     12  C   UNL     1      -7.448  12.170  20.661  0.00  0.00    +0.000 A 
ATOM     13  C   UNL     1      -6.367  12.562  19.859  0.00  0.00    +0.000 A 
ATOM     14 BR   UNL     1      -5.872  14.397  19.878  0.00  0.00    +0.000 Br
ENDBRANCH   4   8
BRANCH   1  16
ATOM     15  C   UNL     1      -2.586  12.918  22.545  0.00  0.00    +0.000 C 
ATOM     16  C   UNL     1      -1.311  12.381  21.846  0.00  0.00    +0.000 C 
ATOM     17  C   UNL     1      -0.182  13.437  21.963  0.00  0.00    +0.000 C 
ATOM     18  C   UNL     1      -0.861  11.143  22.630  0.00  0.00    +0.000 C 
ENDBRANCH   1  16
BRANCH   6  19
ATOM     19  C   UNL     1       0.650  11.826  19.046  0.00  0.00    +0.000 C 
BRANCH  19  20
ATOM     20  C   UNL     1       1.237  10.422  19.006  0.00  0.00    +0.000 A 
ATOM     21  C   UNL     1       1.944   9.896  17.898  0.00  0.00    +0.000 A 
ATOM     22  C   UNL     1       2.382   8.565  17.880  0.00  0.00    +0.000 A 
ATOM     23  C   UNL     1       2.119   7.782  18.981  0.00  0.00    +0.000 A 
ATOM     24  C   UNL     1       1.474   8.287  20.083  0.00  0.00    +0.000 A 
ATOM     25  C   UNL     1       1.034   9.595  20.130  0.00  0.00    +0.000 A 
ATOM     26  O   UNL     1       1.314   7.357  21.062  0.00  0.00    +0.000 OA
ATOM     27  C   UNL     1       1.885   6.193  20.426  0.00  0.00    +0.000 C 
ATOM     28  O   UNL     1       2.431   6.466  19.118  0.00  0.00    +0.000 OA
ENDBRANCH  19  20
ENDBRANCH   6  19
TORSDOF 4
ENDMDL
MODEL 7
REMARK VINA RESULT:      -7.0      1.152      1.534
REMARK  Name = 
REMARK  7 active torsions:
REMARK  status: ('A' for Active; 'I' for Inactive)
REMARK    1  A    between atoms: C_1  and  C_2
REMARK    2  A    between atoms: C_2  and  C_3
REMARK    3  A    between atoms: C_2  and  C_4
REMARK    4  A    between atoms: C_2  and  C_5
REMARK    5  A    between atoms: N_8  and  C_9
REMARK    6  A    between atoms: C_17  and  C_18
REMARK    7  A    between atoms: C_18  and  C_19
REMARK                            x       y       z     vdW  Elec       q    Type
REMARK                         _______ _______ _______ _____ _____    ______ ____
ROOT
ATOM      1  C   UNL     1       0.450   9.485  20.276  0.00  0.00    +0.000 A 
ATOM      2  N   UNL     1      -0.486  10.207  19.543  0.00  0.00    +0.000 NA
ATOM      3  C   UNL     1      -0.290  10.161  18.250  0.00  0.00    +0.000 A 
ATOM      4  N   UNL     1      -1.091  10.770  17.343  0.00  0.00    +0.000 N 
ATOM      5  S   UNL     1       1.099   9.257  17.812  0.00  0.00    +0.000 S 
ATOM      6  C   UNL     1       1.385   8.838  19.477  0.00  0.00    +0.000 A 
ATOM      7  H   UNL     1      -0.759  10.952  16.406  0.00  0.00    +0.000 HD
ENDROOT
BRANCH   4   8
ATOM      8  C   UNL     1      -2.445  11.112  17.585  0.00  0.00    +0.000 A 
ATOM      9  C   UNL     1      -2.809  11.734  18.794  0.00  0.00    +0.000 A 
ATOM     10  C   UNL     1      -4.123  12.145  19.044  0.00  0.00    +0.000 A 
ATOM     11  C   UNL     1      -5.099  11.952  18.083  0.00  0.00    +0.000 A 
ATOM     12  C   UNL     1      -4.767  11.347  16.867  0.00  0.00    +0.000 A 
ATOM     13  C   UNL     1      -3.451  10.929  16.622  0.00  0.00    +0.000 A 
ATOM     14 BR   UNL     1      -3.076  10.134  14.937  0.00  0.00    +0.000 Br
ENDBRANCH   4   8
BRANCH   1  16
ATOM     15  C   UNL     1      -0.725   8.428  22.216  0.00  0.00    +0.000 C 
ATOM     16  C   UNL     1       0.225   9.575  21.785  0.00  0.00    +0.000 C 
ATOM     17  C   UNL     1      -0.442  10.937  22.108  0.00  0.00    +0.000 C 
ATOM     18  C   UNL     1       1.481   9.465  22.658  0.00  0.00    +0.000 C 
ENDBRANCH   1  16
BRANCH   6  19
ATOM     19  C   UNL     1       2.551   7.945  19.803  0.00  0.00    +0.000 C 
BRANCH  19  20
ATOM     20  C   UNL     1       2.773   6.737  18.903  0.00  0.00    +0.000 A 
ATOM     21  C   UNL     1       1.952   5.584  18.918  0.00  0.00    +0.000 A 
ATOM     22  C   UNL     1       2.258   4.464  18.133  0.00  0.00    +0.000 A 
ATOM     23  C   UNL     1       3.375   4.520  17.332  0.00  0.00    +0.000 A 
ATOM     24  C   UNL     1       4.158   5.647  17.270  0.00  0.00    +0.000 A 
ATOM     25  C   UNL     1       3.879   6.766  18.029  0.00  0.00    +0.000 A 
ATOM     26  O   UNL     1       5.209   5.503  16.420  0.00  0.00    +0.000 OA
ATOM     27  C   UNL     1       5.027   4.135  15.993  0.00  0.00    +0.000 C 
ATOM     28  O   UNL     1       3.843   3.518  16.542  0.00  0.00    +0.000 OA
ENDBRANCH  19  20
ENDBRANCH   6  19
TORSDOF 4
ENDMDL
MODEL 8
REMARK VINA RESULT:      -7.0      4.007      5.848
REMARK  Name = 
REMARK  7 active torsions:
REMARK  status: ('A' for Active; 'I' for Inactive)
REMARK    1  A    between atoms: C_1  and  C_2
REMARK    2  A    between atoms: C_2  and  C_3
REMARK    3  A    between atoms: C_2  and  C_4
REMARK    4  A    between atoms: C_2  and  C_5
REMARK    5  A    between atoms: N_8  and  C_9
REMARK    6  A    between atoms: C_17  and  C_18
REMARK    7  A    between atoms: C_18  and  C_19
REMARK                            x       y       z     vdW  Elec       q    Type
REMARK                         _______ _______ _______ _____ _____    ______ ____
ROOT
ATOM      1  C   UNL     1       2.622   5.117  18.786  0.00  0.00    +0.000 A 
ATOM      2  N   UNL     1       2.159   6.413  18.983  0.00  0.00    +0.000 NA
ATOM      3  C   UNL     1       2.868   7.324  18.367  0.00  0.00    +0.000 A 
ATOM      4  N   UNL     1       2.586   8.649  18.399  0.00  0.00    +0.000 N 
ATOM      5  S   UNL     1       4.205   6.674  17.515  0.00  0.00    +0.000 S 
ATOM      6  C   UNL     1       3.728   5.056  17.946  0.00  0.00    +0.000 A 
ATOM      7  H   UNL     1       3.295   9.330  18.162  0.00  0.00    +0.000 HD
ENDROOT
BRANCH   4   8
ATOM      8  C   UNL     1       1.300   9.180  18.669  0.00  0.00    +0.000 A 
ATOM      9  C   UNL     1       0.446   9.531  17.607  0.00  0.00    +0.000 A 
ATOM     10  C   UNL     1      -0.854   9.998  17.832  0.00  0.00    +0.000 A 
ATOM     11  C   UNL     1      -1.330  10.113  19.125  0.00  0.00    +0.000 A 
ATOM     12  C   UNL     1      -0.510   9.763  20.201  0.00  0.00    +0.000 A 
ATOM     13  C   UNL     1       0.795   9.302  19.974  0.00  0.00    +0.000 A 
ATOM     14 BR   UNL     1       1.840   8.825  21.488  0.00  0.00    +0.000 Br
ENDBRANCH   4   8
BRANCH   1  16
ATOM     15  C   UNL     1       1.043   3.196  18.505  0.00  0.00    +0.000 C 
ATOM     16  C   UNL     1       1.803   4.068  19.538  0.00  0.00    +0.000 C 
ATOM     17  C   UNL     1       0.776   4.796  20.443  0.00  0.00    +0.000 C 
ATOM     18  C   UNL     1       2.599   3.109  20.431  0.00  0.00    +0.000 C 
ENDBRANCH   1  16
BRANCH   6  19
ATOM     19  C   UNL     1       4.548   3.904  17.433  0.00  0.00    +0.000 C 
BRANCH  19  20
ATOM     20  C   UNL     1       5.539   4.200  16.315  0.00  0.00    +0.000 A 
ATOM     21  C   UNL     1       6.703   4.988  16.484  0.00  0.00    +0.000 A 
ATOM     22  C   UNL     1       7.530   5.305  15.399  0.00  0.00    +0.000 A 
ATOM     23  C   UNL     1       7.188   4.815  14.159  0.00  0.00    +0.000 A 
ATOM     24  C   UNL     1       6.088   4.012  13.983  0.00  0.00    +0.000 A 
ATOM     25  C   UNL     1       5.256   3.680  15.035  0.00  0.00    +0.000 A 
ATOM     26  O   UNL     1       5.925   3.631  12.689  0.00  0.00    +0.000 OA
ATOM     27  C   UNL     1       7.021   4.331  12.060  0.00  0.00    +0.000 C 
ATOM     28  O   UNL     1       7.847   5.055  12.995  0.00  0.00    +0.000 OA
ENDBRANCH  19  20
ENDBRANCH   6  19
TORSDOF 4
ENDMDL
MODEL 9
REMARK VINA RESULT:      -7.0      4.662      8.561
REMARK  Name = 
REMARK  7 active torsions:
REMARK  status: ('A' for Active; 'I' for Inactive)
REMARK    1  A    between atoms: C_1  and  C_2
REMARK    2  A    between atoms: C_2  and  C_3
REMARK    3  A    between atoms: C_2  and  C_4
REMARK    4  A    between atoms: C_2  and  C_5
REMARK    5  A    between atoms: N_8  and  C_9
REMARK    6  A    between atoms: C_17  and  C_18
REMARK    7  A    between atoms: C_18  and  C_19
REMARK                            x       y       z     vdW  Elec       q    Type
REMARK                         _______ _______ _______ _____ _____    ______ ____
ROOT
ATOM      1  C   UNL     1       2.500   5.335  19.113  0.00  0.00    +0.000 A 
ATOM      2  N   UNL     1       3.282   5.378  17.963  0.00  0.00    +0.000 NA
ATOM      3  C   UNL     1       3.655   6.585  17.626  0.00  0.00    +0.000 A 
ATOM      4  N   UNL     1       4.439   6.861  16.556  0.00  0.00    +0.000 N 
ATOM      5  S   UNL     1       3.041   7.796  18.672  0.00  0.00    +0.000 S 
ATOM      6  C   UNL     1       2.304   6.587  19.684  0.00  0.00    +0.000 A 
ATOM      7  H   UNL     1       4.468   7.794  16.168  0.00  0.00    +0.000 HD
ENDROOT
BRANCH   4   8
ATOM      8  C   UNL     1       5.325   5.929  15.961  0.00  0.00    +0.000 A 
ATOM      9  C   UNL     1       4.889   5.128  14.888  0.00  0.00    +0.000 A 
ATOM     10  C   UNL     1       5.751   4.242  14.233  0.00  0.00    +0.000 A 
ATOM     11  C   UNL     1       7.073   4.146  14.631  0.00  0.00    +0.000 A 
ATOM     12  C   UNL     1       7.539   4.935  15.686  0.00  0.00    +0.000 A 
ATOM     13  C   UNL     1       6.671   5.817  16.346  0.00  0.00    +0.000 A 
ATOM     14 BR   UNL     1       7.387   6.871  17.757  0.00  0.00    +0.000 Br
ENDBRANCH   4   8
BRANCH   1  16
ATOM     15  C   UNL     1       0.867   4.020  20.478  0.00  0.00    +0.000 C 
ATOM     16  C   UNL     1       2.046   3.921  19.476  0.00  0.00    +0.000 C 
ATOM     17  C   UNL     1       3.227   3.177  20.150  0.00  0.00    +0.000 C 
ATOM     18  C   UNL     1       1.566   3.051  18.308  0.00  0.00    +0.000 C 
ENDBRANCH   1  16
BRANCH   6  19
ATOM     19  C   UNL     1       1.564   7.035  20.915  0.00  0.00    +0.000 C 
BRANCH  19  20
ATOM     20  C   UNL     1       0.908   8.408  20.870  0.00  0.00    +0.000 A 
ATOM     21  C   UNL     1       0.739   9.160  19.683  0.00  0.00    +0.000 A 
ATOM     22  C   UNL     1       0.212  10.458  19.714  0.00  0.00    +0.000 A 
ATOM     23  C   UNL     1      -0.152  10.981  20.934  0.00  0.00    +0.000 A 
ATOM     24  C   UNL     1      -0.037  10.250  22.091  0.00  0.00    +0.000 A 
ATOM     25  C   UNL     1       0.475   8.967  22.090  0.00  0.00    +0.000 A 
ATOM     26  O   UNL     1      -0.452  10.941  23.185  0.00  0.00    +0.000 OA
ATOM     27  C   UNL     1      -0.792  12.212  22.590  0.00  0.00    +0.000 C 
ATOM     28  O   UNL     1      -0.637  12.231  21.155  0.00  0.00    +0.000 OA
ENDBRANCH  19  20
ENDBRANCH   6  19
TORSDOF 4
ENDMDL
