MODEL 1
REMARK VINA RESULT:      -6.6      0.000      0.000
REMARK  Name = 
REMARK  5 active torsions:
REMARK  status: ('A' for Active; 'I' for Inactive)
REMARK    1  A    between atoms: C_1  and  C_2
REMARK    2  A    between atoms: C_2  and  C_3
REMARK    3  A    between atoms: C_2  and  N_4
REMARK    4  A    between atoms: C_6  and  C_7
REMARK    5  A    between atoms: N_9  and  C_10
REMARK                            x       y       z     vdW  Elec       q    Type
REMARK                         _______ _______ _______ _____ _____    ______ ____
ROOT
ATOM      1  C   UNL     1       2.975   6.932  18.452  0.00  0.00    +0.000 C 
ATOM      2  O   UNL     1       3.273   7.842  17.681  0.00  0.00    +0.000 OA
ATOM      3  N   UNL     1       2.195   7.066  19.590  0.00  0.00    +0.000 N 
ATOM      4  H   UNL     1       2.181   6.282  20.237  0.00  0.00    +0.000 HD
ENDROOT
BRANCH   3   5
ATOM      5  C   UNL     1       1.562   8.249  20.035  0.00  0.00    +0.000 A 
ATOM      6  C   UNL     1       1.378   9.368  19.220  0.00  0.00    +0.000 A 
ATOM      7  C   UNL     1       0.797  10.529  19.733  0.00  0.00    +0.000 A 
ATOM      8 CL   UNL     1       0.592  11.902  18.716  0.00  0.00    +0.000 Cl
ATOM      9  C   UNL     1       0.387  10.590  21.061  0.00  0.00    +0.000 A 
ATOM     10  C   UNL     1       0.539   9.463  21.864  0.00  0.00    +0.000 A 
ATOM     11 CL   UNL     1       0.036   9.524  23.510  0.00  0.00    +0.000 Cl
ATOM     12  C   UNL     1       1.108   8.293  21.356  0.00  0.00    +0.000 A 
ENDBRANCH   3   5
BRANCH   1  15
ATOM     13  N   UNL     1       5.807   5.704  17.827  0.00  0.00    +0.000 N 
ATOM     14  C   UNL     1       4.570   5.533  17.095  0.00  0.00    +0.000 C 
ATOM     15  C   UNL     1       3.521   5.534  18.187  0.00  0.00    +0.000 C 
ATOM     16  C   UNL     1       4.232   4.939  19.398  0.00  0.00    +0.000 C 
ATOM     17  C   UNL     1       5.685   5.246  19.138  0.00  0.00    +0.000 C 
ATOM     18  O   UNL     1       6.586   5.122  19.950  0.00  0.00    +0.000 OA
BRANCH  13  20
ATOM     19  C   UNL     1       7.087   5.442  15.724  0.00  0.00    +0.000 C 
ATOM     20  C   UNL     1       7.099   5.923  17.174  0.00  0.00    +0.000 C 
ATOM     21  C   UNL     1       7.522   7.387  17.270  0.00  0.00    +0.000 C 
ENDBRANCH  13  20
ENDBRANCH   1  15
TORSDOF 3
ENDMDL
MODEL 2
REMARK VINA RESULT:      -6.6      2.083      3.491
REMARK  Name = 
REMARK  5 active torsions:
REMARK  status: ('A' for Active; 'I' for Inactive)
REMARK    1  A    between atoms: C_1  and  C_2
REMARK    2  A    between atoms: C_2  and  C_3
REMARK    3  A    between atoms: C_2  and  N_4
REMARK    4  A    between atoms: C_6  and  C_7
REMARK    5  A    between atoms: N_9  and  C_10
REMARK                            x       y       z     vdW  Elec       q    Type
REMARK                         _______ _______ _______ _____ _____    ______ ____
ROOT
ATOM      1  C   UNL     1       3.137   7.026  18.629  0.00  0.00    +0.000 C 
ATOM      2  O   UNL     1       3.054   7.779  17.662  0.00  0.00    +0.000 OA
ATOM      3  N   UNL     1       2.491   7.203  19.843  0.00  0.00    +0.000 N 
ATOM      4  H   UNL     1       2.789   6.615  20.617  0.00  0.00    +0.000 HD
ENDROOT
BRANCH   3   5
ATOM      5  C   UNL     1       1.588   8.242  20.165  0.00  0.00    +0.000 A 
ATOM      6  C   UNL     1       1.122   9.166  19.227  0.00  0.00    +0.000 A 
ATOM      7  C   UNL     1       0.276  10.204  19.618  0.00  0.00    +0.000 A 
ATOM      8 CL   UNL     1      -0.275  11.341  18.449  0.00  0.00    +0.000 Cl
ATOM      9  C   UNL     1      -0.123  10.334  20.944  0.00  0.00    +0.000 A 
ATOM     10  C   UNL     1       0.313   9.393  21.872  0.00  0.00    +0.000 A 
ATOM     11 CL   UNL     1      -0.172   9.541  23.518  0.00  0.00    +0.000 Cl
ATOM     12  C   UNL     1       1.151   8.343  21.489  0.00  0.00    +0.000 A 
ENDBRANCH   3   5
BRANCH   1  15
ATOM     13  N   UNL     1       2.798   3.932  19.114  0.00  0.00    +0.000 N 
ATOM     14  C   UNL     1       3.793   4.827  19.667  0.00  0.00    +0.000 C 
ATOM     15  C   UNL     1       4.043   5.803  18.537  0.00  0.00    +0.000 C 
ATOM     16  C   UNL     1       3.808   4.988  17.270  0.00  0.00    +0.000 C 
ATOM     17  C   UNL     1       2.866   3.901  17.723  0.00  0.00    +0.000 C 
ATOM     18  O   UNL     1       2.263   3.140  16.984  0.00  0.00    +0.000 OA
BRANCH  13  20
ATOM     19  C   UNL     1       2.726   2.776  21.302  0.00  0.00    +0.000 C 
ATOM     20  C   UNL     1       2.122   2.903  19.905  0.00  0.00    +0.000 C 
ATOM     21  C   UNL     1       0.618   3.161  19.972  0.00  0.00    +0.000 C 
ENDBRANCH  13  20
ENDBRANCH   1  15
TORSDOF 3
ENDMDL
MODEL 3
REMARK VINA RESULT:      -6.6      5.237      7.902
REMARK  Name = 
REMARK  5 active torsions:
REMARK  status: ('A' for Active; 'I' for Inactive)
REMARK    1  A    between atoms: C_1  and  C_2
REMARK    2  A    between atoms: C_2  and  C_3
REMARK    3  A    between atoms: C_2  and  N_4
REMARK    4  A    between atoms: C_6  and  C_7
REMARK    5  A    between atoms: N_9  and  C_10
REMARK                            x       y       z     vdW  Elec       q    Type
REMARK                         _______ _______ _______ _____ _____    ______ ____
ROOT
ATOM      1  C   UNL     1       5.214   5.542  17.148  0.00  0.00    +0.000 C 
ATOM      2  O   UNL     1       4.494   6.345  16.559  0.00  0.00    +0.000 OA
ATOM      3  N   UNL     1       6.098   4.661  16.543  0.00  0.00    +0.000 N 
ATOM      4  H   UNL     1       6.492   3.927  17.125  0.00  0.00    +0.000 HD
ENDROOT
BRANCH   3   5
ATOM      5  C   UNL     1       6.367   4.566  15.159  0.00  0.00    +0.000 A 
ATOM      6  C   UNL     1       5.623   3.764  14.290  0.00  0.00    +0.000 A 
ATOM      7  C   UNL     1       5.972   3.667  12.943  0.00  0.00    +0.000 A 
ATOM      8 CL   UNL     1       5.051   2.662  11.893  0.00  0.00    +0.000 Cl
ATOM      9  C   UNL     1       7.062   4.371  12.440  0.00  0.00    +0.000 A 
ATOM     10  C   UNL     1       7.782   5.197  13.297  0.00  0.00    +0.000 A 
ATOM     11 CL   UNL     1       9.133   6.074  12.689  0.00  0.00    +0.000 Cl
ATOM     12  C   UNL     1       7.433   5.310  14.645  0.00  0.00    +0.000 A 
ENDBRANCH   3   5
BRANCH   1  15
ATOM     13  N   UNL     1       3.323   4.105  19.216  0.00  0.00    +0.000 N 
ATOM     14  C   UNL     1       3.700   5.502  19.159  0.00  0.00    +0.000 C 
ATOM     15  C   UNL     1       5.131   5.453  18.667  0.00  0.00    +0.000 C 
ATOM     16  C   UNL     1       5.676   4.137  19.212  0.00  0.00    +0.000 C 
ATOM     17  C   UNL     1       4.440   3.288  19.379  0.00  0.00    +0.000 C 
ATOM     18  O   UNL     1       4.436   2.090  19.605  0.00  0.00    +0.000 OA
BRANCH  13  20
ATOM     19  C   UNL     1       1.279   4.525  20.548  0.00  0.00    +0.000 C 
ATOM     20  C   UNL     1       1.957   3.656  19.491  0.00  0.00    +0.000 C 
ATOM     21  C   UNL     1       1.131   3.595  18.208  0.00  0.00    +0.000 C 
ENDBRANCH  13  20
ENDBRANCH   1  15
TORSDOF 3
ENDMDL
MODEL 4
REMARK VINA RESULT:      -6.5      0.127      2.014
REMARK  Name = 
REMARK  5 active torsions:
REMARK  status: ('A' for Active; 'I' for Inactive)
REMARK    1  A    between atoms: C_1  and  C_2
REMARK    2  A    between atoms: C_2  and  C_3
REMARK    3  A    between atoms: C_2  and  N_4
REMARK    4  A    between atoms: C_6  and  C_7
REMARK    5  A    between atoms: N_9  and  C_10
REMARK                            x       y       z     vdW  Elec       q    Type
REMARK                         _______ _______ _______ _____ _____    ______ ____
ROOT
ATOM      1  C   UNL     1       2.942   6.877  18.482  0.00  0.00    +0.000 C 
ATOM      2  O   UNL     1       3.184   7.801  17.709  0.00  0.00    +0.000 OA
ATOM      3  N   UNL     1       2.220   6.984  19.661  0.00  0.00    +0.000 N 
ATOM      4  H   UNL     1       2.252   6.192  20.297  0.00  0.00    +0.000 HD
ENDROOT
BRANCH   3   5
ATOM      5  C   UNL     1       1.593   8.151  20.154  0.00  0.00    +0.000 A 
ATOM      6  C   UNL     1       1.157   8.282  21.474  0.00  0.00    +0.000 A 
ATOM      7  C   UNL     1       0.493   9.437  21.888  0.00  0.00    +0.000 A 
ATOM      8 CL   UNL     1      -0.050   9.573  23.516  0.00  0.00    +0.000 Cl
ATOM      9  C   UNL     1       0.259  10.479  20.996  0.00  0.00    +0.000 A 
ATOM     10  C   UNL     1       0.725  10.363  19.690  0.00  0.00    +0.000 A 
ATOM     11 CL   UNL     1       0.442  11.645  18.575  0.00  0.00    +0.000 Cl
ATOM     12  C   UNL     1       1.401   9.216  19.270  0.00  0.00    +0.000 A 
ENDBRANCH   3   5
BRANCH   1  15
ATOM     13  N   UNL     1       5.783   5.682  17.836  0.00  0.00    +0.000 N 
ATOM     14  C   UNL     1       4.552   5.534  17.088  0.00  0.00    +0.000 C 
ATOM     15  C   UNL     1       3.495   5.491  18.171  0.00  0.00    +0.000 C 
ATOM     16  C   UNL     1       4.198   4.854  19.365  0.00  0.00    +0.000 C 
ATOM     17  C   UNL     1       5.652   5.176  19.128  0.00  0.00    +0.000 C 
ATOM     18  O   UNL     1       6.547   5.025  19.942  0.00  0.00    +0.000 OA
BRANCH  13  20
ATOM     19  C   UNL     1       7.093   5.466  15.747  0.00  0.00    +0.000 C 
ATOM     20  C   UNL     1       7.079   5.930  17.202  0.00  0.00    +0.000 C 
ATOM     21  C   UNL     1       7.477   7.399  17.320  0.00  0.00    +0.000 C 
ENDBRANCH  13  20
ENDBRANCH   1  15
TORSDOF 3
ENDMDL
MODEL 5
REMARK VINA RESULT:      -6.5      2.132      4.038
REMARK  Name = 
REMARK  5 active torsions:
REMARK  status: ('A' for Active; 'I' for Inactive)
REMARK    1  A    between atoms: C_1  and  C_2
REMARK    2  A    between atoms: C_2  and  C_3
REMARK    3  A    between atoms: C_2  and  N_4
REMARK    4  A    between atoms: C_6  and  C_7
REMARK    5  A    between atoms: N_9  and  C_10
REMARK                            x       y       z     vdW  Elec       q    Type
REMARK                         _______ _______ _______ _____ _____    ______ ____
ROOT
ATOM      1  C   UNL     1       3.051   6.995  18.670  0.00  0.00    +0.000 C 
ATOM      2  O   UNL     1       2.857   7.691  17.676  0.00  0.00    +0.000 OA
ATOM      3  N   UNL     1       2.513   7.222  19.927  0.00  0.00    +0.000 N 
ATOM      4  H   UNL     1       2.899   6.687  20.700  0.00  0.00    +0.000 HD
ENDROOT
BRANCH   3   5
ATOM      5  C   UNL     1       1.610   8.253  20.275  0.00  0.00    +0.000 A 
ATOM      6  C   UNL     1       1.142   8.449  21.576  0.00  0.00    +0.000 A 
ATOM      7  C   UNL     1       0.207   9.448  21.849  0.00  0.00    +0.000 A 
ATOM      8 CL   UNL     1      -0.367   9.664  23.457  0.00  0.00    +0.000 Cl
ATOM      9  C   UNL     1      -0.272  10.268  20.832  0.00  0.00    +0.000 A 
ATOM     10  C   UNL     1       0.220  10.096  19.542  0.00  0.00    +0.000 A 
ATOM     11 CL   UNL     1      -0.363  11.103  18.273  0.00  0.00    +0.000 Cl
ATOM     12  C   UNL     1       1.166   9.106  19.262  0.00  0.00    +0.000 A 
ENDBRANCH   3   5
BRANCH   1  15
ATOM     13  N   UNL     1       2.784   3.889  19.114  0.00  0.00    +0.000 N 
ATOM     14  C   UNL     1       3.759   4.799  19.677  0.00  0.00    +0.000 C 
ATOM     15  C   UNL     1       3.985   5.795  18.559  0.00  0.00    +0.000 C 
ATOM     16  C   UNL     1       3.765   4.992  17.282  0.00  0.00    +0.000 C 
ATOM     17  C   UNL     1       2.848   3.878  17.722  0.00  0.00    +0.000 C 
ATOM     18  O   UNL     1       2.262   3.114  16.975  0.00  0.00    +0.000 OA
BRANCH  13  20
ATOM     19  C   UNL     1       2.742   2.703  21.286  0.00  0.00    +0.000 C 
ATOM     20  C   UNL     1       2.132   2.834  19.893  0.00  0.00    +0.000 C 
ATOM     21  C   UNL     1       0.624   3.057  19.965  0.00  0.00    +0.000 C 
ENDBRANCH  13  20
ENDBRANCH   1  15
TORSDOF 3
ENDMDL
MODEL 6
REMARK VINA RESULT:      -6.4      5.282      7.694
REMARK  Name = 
REMARK  5 active torsions:
REMARK  status: ('A' for Active; 'I' for Inactive)
REMARK    1  A    between atoms: C_1  and  C_2
REMARK    2  A    between atoms: C_2  and  C_3
REMARK    3  A    between atoms: C_2  and  N_4
REMARK    4  A    between atoms: C_6  and  C_7
REMARK    5  A    between atoms: N_9  and  C_10
REMARK                            x       y       z     vdW  Elec       q    Type
REMARK                         _______ _______ _______ _____ _____    ______ ____
ROOT
ATOM      1  C   UNL     1       4.876   6.016  16.899  0.00  0.00    +0.000 C 
ATOM      2  O   UNL     1       4.538   6.966  16.196  0.00  0.00    +0.000 OA
ATOM      3  N   UNL     1       5.602   4.916  16.469  0.00  0.00    +0.000 N 
ATOM      4  H   UNL     1       5.653   4.120  17.098  0.00  0.00    +0.000 HD
ENDROOT
BRANCH   3   5
ATOM      5  C   UNL     1       6.126   4.716  15.171  0.00  0.00    +0.000 A 
ATOM      6  C   UNL     1       7.281   5.349  14.709  0.00  0.00    +0.000 A 
ATOM      7  C   UNL     1       7.718   5.155  13.398  0.00  0.00    +0.000 A 
ATOM      8 CL   UNL     1       9.137   5.956  12.844  0.00  0.00    +0.000 Cl
ATOM      9  C   UNL     1       7.014   4.326  12.531  0.00  0.00    +0.000 A 
ATOM     10  C   UNL     1       5.883   3.667  13.002  0.00  0.00    +0.000 A 
ATOM     11 CL   UNL     1       5.001   2.637  11.940  0.00  0.00    +0.000 Cl
ATOM     12  C   UNL     1       5.444   3.845  14.316  0.00  0.00    +0.000 A 
ENDBRANCH   3   5
BRANCH   1  15
ATOM     13  N   UNL     1       3.442   3.946  18.791  0.00  0.00    +0.000 N 
ATOM     14  C   UNL     1       3.099   5.332  18.547  0.00  0.00    +0.000 C 
ATOM     15  C   UNL     1       4.449   5.993  18.362  0.00  0.00    +0.000 C 
ATOM     16  C   UNL     1       5.395   5.181  19.240  0.00  0.00    +0.000 C 
ATOM     17  C   UNL     1       4.727   3.830  19.319  0.00  0.00    +0.000 C 
ATOM     18  O   UNL     1       5.240   2.817  19.761  0.00  0.00    +0.000 OA
BRANCH  13  20
ATOM     19  C   UNL     1       1.065   3.422  19.237  0.00  0.00    +0.000 C 
ATOM     20  C   UNL     1       2.444   2.879  18.873  0.00  0.00    +0.000 C 
ATOM     21  C   UNL     1       2.399   2.068  17.580  0.00  0.00    +0.000 C 
ENDBRANCH  13  20
ENDBRANCH   1  15
TORSDOF 3
ENDMDL
MODEL 7
REMARK VINA RESULT:      -6.4      2.972      4.407
REMARK  Name = 
REMARK  5 active torsions:
REMARK  status: ('A' for Active; 'I' for Inactive)
REMARK    1  A    between atoms: C_1  and  C_2
REMARK    2  A    between atoms: C_2  and  C_3
REMARK    3  A    between atoms: C_2  and  N_4
REMARK    4  A    between atoms: C_6  and  C_7
REMARK    5  A    between atoms: N_9  and  C_10
REMARK                            x       y       z     vdW  Elec       q    Type
REMARK                         _______ _______ _______ _____ _____    ______ ____
ROOT
ATOM      1  C   UNL     1       1.905   7.340  20.067  0.00  0.00    +0.000 C 
ATOM      2  O   UNL     1       1.355   6.996  21.110  0.00  0.00    +0.000 OA
ATOM      3  N   UNL     1       1.679   8.530  19.394  0.00  0.00    +0.000 N 
ATOM      4  H   UNL     1       2.054   8.609  18.452  0.00  0.00    +0.000 HD
ENDROOT
BRANCH   3   5
ATOM      5  C   UNL     1       0.824   9.576  19.810  0.00  0.00    +0.000 A 
ATOM      6  C   UNL     1       0.410   9.742  21.134  0.00  0.00    +0.000 A 
ATOM      7  C   UNL     1      -0.480  10.761  21.474  0.00  0.00    +0.000 A 
ATOM      8 CL   UNL     1      -0.990  10.938  23.108  0.00  0.00    +0.000 Cl
ATOM      9  C   UNL     1      -0.965  11.632  20.504  0.00  0.00    +0.000 A 
ATOM     10  C   UNL     1      -0.525  11.490  19.192  0.00  0.00    +0.000 A 
ATOM     11 CL   UNL     1      -1.118  12.561  17.981  0.00  0.00    +0.000 Cl
ATOM     12  C   UNL     1       0.375  10.480  18.844  0.00  0.00    +0.000 A 
ENDBRANCH   3   5
BRANCH   1  15
ATOM     13  N   UNL     1       1.949   4.270  19.361  0.00  0.00    +0.000 N 
ATOM     14  C   UNL     1       2.931   5.040  20.097  0.00  0.00    +0.000 C 
ATOM     15  C   UNL     1       2.898   6.388  19.409  0.00  0.00    +0.000 C 
ATOM     16  C   UNL     1       2.538   6.068  17.962  0.00  0.00    +0.000 C 
ATOM     17  C   UNL     1       1.791   4.762  18.067  0.00  0.00    +0.000 C 
ATOM     18  O   UNL     1       1.152   4.244  17.167  0.00  0.00    +0.000 OA
BRANCH  13  20
ATOM     19  C   UNL     1       2.447   1.849  19.235  0.00  0.00    +0.000 C 
ATOM     20  C   UNL     1       1.514   2.933  19.768  0.00  0.00    +0.000 C 
ATOM     21  C   UNL     1       1.364   2.842  21.285  0.00  0.00    +0.000 C 
ENDBRANCH  13  20
ENDBRANCH   1  15
TORSDOF 3
ENDMDL
MODEL 8
REMARK VINA RESULT:      -6.4      1.674      2.716
REMARK  Name = 
REMARK  5 active torsions:
REMARK  status: ('A' for Active; 'I' for Inactive)
REMARK    1  A    between atoms: C_1  and  C_2
REMARK    2  A    between atoms: C_2  and  C_3
REMARK    3  A    between atoms: C_2  and  N_4
REMARK    4  A    between atoms: C_6  and  C_7
REMARK    5  A    between atoms: N_9  and  C_10
REMARK                            x       y       z     vdW  Elec       q    Type
REMARK                         _______ _______ _______ _____ _____    ______ ____
ROOT
ATOM      1  C   UNL     1       2.430   4.850  18.624  0.00  0.00    +0.000 C 
ATOM      2  O   UNL     1       1.322   4.788  18.097  0.00  0.00    +0.000 OA
ATOM      3  N   UNL     1       2.914   5.925  19.352  0.00  0.00    +0.000 N 
ATOM      4  H   UNL     1       3.906   5.927  19.572  0.00  0.00    +0.000 HD
ENDROOT
BRANCH   3   5
ATOM      5  C   UNL     1       2.208   7.109  19.663  0.00  0.00    +0.000 A 
ATOM      6  C   UNL     1       1.483   7.277  20.845  0.00  0.00    +0.000 A 
ATOM      7  C   UNL     1       0.759   8.448  21.070  0.00  0.00    +0.000 A 
ATOM      8 CL   UNL     1      -0.140   8.628  22.527  0.00  0.00    +0.000 Cl
ATOM      9  C   UNL     1       0.751   9.470  20.127  0.00  0.00    +0.000 A 
ATOM     10  C   UNL     1       1.502   9.319  18.966  0.00  0.00    +0.000 A 
ATOM     11 CL   UNL     1       1.502  10.576  17.789  0.00  0.00    +0.000 Cl
ATOM     12  C   UNL     1       2.239   8.155  18.736  0.00  0.00    +0.000 A 
ENDBRANCH   3   5
BRANCH   1  15
ATOM     13  N   UNL     1       5.200   4.410  17.191  0.00  0.00    +0.000 N 
ATOM     14  C   UNL     1       3.984   3.634  17.059  0.00  0.00    +0.000 C 
ATOM     15  C   UNL     1       3.394   3.681  18.453  0.00  0.00    +0.000 C 
ATOM     16  C   UNL     1       4.604   3.775  19.376  0.00  0.00    +0.000 C 
ATOM     17  C   UNL     1       5.662   4.405  18.505  0.00  0.00    +0.000 C 
ATOM     18  O   UNL     1       6.729   4.842  18.901  0.00  0.00    +0.000 OA
BRANCH  13  20
ATOM     19  C   UNL     1       6.136   3.648  15.030  0.00  0.00    +0.000 C 
ATOM     20  C   UNL     1       6.039   4.780  16.050  0.00  0.00    +0.000 C 
ATOM     21  C   UNL     1       5.545   6.072  15.401  0.00  0.00    +0.000 C 
ENDBRANCH  13  20
ENDBRANCH   1  15
TORSDOF 3
ENDMDL
MODEL 9
REMARK VINA RESULT:      -6.4      3.210      4.360
REMARK  Name = 
REMARK  5 active torsions:
REMARK  status: ('A' for Active; 'I' for Inactive)
REMARK    1  A    between atoms: C_1  and  C_2
REMARK    2  A    between atoms: C_2  and  C_3
REMARK    3  A    between atoms: C_2  and  N_4
REMARK    4  A    between atoms: C_6  and  C_7
REMARK    5  A    between atoms: N_9  and  C_10
REMARK                            x       y       z     vdW  Elec       q    Type
REMARK                         _______ _______ _______ _____ _____    ______ ____
ROOT
ATOM      1  C   UNL     1       2.144   7.585  19.457  0.00  0.00    +0.000 C 
ATOM      2  O   UNL     1       1.673   7.675  20.588  0.00  0.00    +0.000 OA
ATOM      3  N   UNL     1       1.876   8.445  18.404  0.00  0.00    +0.000 N 
ATOM      4  H   UNL     1       2.179   8.153  17.478  0.00  0.00    +0.000 HD
ENDROOT
BRANCH   3   5
ATOM      5  C   UNL     1       1.064   9.601  18.455  0.00  0.00    +0.000 A 
ATOM      6  C   UNL     1       1.518  10.831  18.935  0.00  0.00    +0.000 A 
ATOM      7  C   UNL     1       0.652  11.923  19.014  0.00  0.00    +0.000 A 
ATOM      8 CL   UNL     1       1.228  13.426  19.623  0.00  0.00    +0.000 Cl
ATOM      9  C   UNL     1      -0.674  11.807  18.611  0.00  0.00    +0.000 A 
ATOM     10  C   UNL     1      -1.117  10.591  18.100  0.00  0.00    +0.000 A 
ATOM     11 CL   UNL     1      -2.757  10.433  17.598  0.00  0.00    +0.000 Cl
ATOM     12  C   UNL     1      -0.255   9.496  18.006  0.00  0.00    +0.000 A 
ENDBRANCH   3   5
BRANCH   1  15
ATOM     13  N   UNL     1       1.874   4.448  19.356  0.00  0.00    +0.000 N 
ATOM     14  C   UNL     1       2.853   5.246  20.065  0.00  0.00    +0.000 C 
ATOM     15  C   UNL     1       3.076   6.421  19.137  0.00  0.00    +0.000 C 
ATOM     16  C   UNL     1       2.852   5.852  17.741  0.00  0.00    +0.000 C 
ATOM     17  C   UNL     1       1.935   4.679  17.983  0.00  0.00    +0.000 C 
ATOM     18  O   UNL     1       1.345   4.057  17.116  0.00  0.00    +0.000 OA
BRANCH  13  20
ATOM     19  C   UNL     1       1.713   1.979  19.300  0.00  0.00    +0.000 C 
ATOM     20  C   UNL     1       1.224   3.275  19.942  0.00  0.00    +0.000 C 
ATOM     21  C   UNL     1       1.404   3.247  21.458  0.00  0.00    +0.000 C 
ENDBRANCH  13  20
ENDBRANCH   1  15
TORSDOF 3
ENDMDL
