MODEL 1
REMARK VINA RESULT:      -8.6      0.000      0.000
REMARK  Name = 
REMARK  6 active torsions:
REMARK  status: ('A' for Active; 'I' for Inactive)
REMARK    1  A    between atoms: C_1  and  O_2
REMARK    2  A    between atoms: O_2  and  C_3
REMARK    3  A    between atoms: C_7  and  C_8
REMARK    4  A    between atoms: C_8  and  C_9
REMARK    5  A    between atoms: N_21  and  C_22
REMARK    6  A    between atoms: C_22  and  C_23
REMARK                            x       y       z     vdW  Elec       q    Type
REMARK                         _______ _______ _______ _____ _____    ______ ____
ROOT
ATOM      1  C   UNK A   1       2.272   3.137  19.308  0.00  0.00    +0.000 A 
ATOM      2  C   UNK A   1       1.717   3.506  20.531  0.00  0.00    +0.000 A 
ATOM      3  C   UNK A   1       1.595   4.854  20.887  0.00  0.00    +0.000 A 
ATOM      4  C   UNK A   1       2.045   5.858  20.011  0.00  0.00    +0.000 A 
ATOM      5  C   UNK A   1       2.048   7.290  20.066  0.00  0.00    +0.000 A 
ATOM      6  C   UNK A   1       2.666   7.725  18.914  0.00  0.00    +0.000 A 
ATOM      7  N   UNK A   1       3.056   6.632  18.178  0.00  0.00    +0.000 N 
ATOM      8  C   UNK A   1       2.655   5.472  18.812  0.00  0.00    +0.000 A 
ATOM      9  C   UNK A   1       2.783   4.117  18.445  0.00  0.00    +0.000 A 
ENDROOT
BRANCH   1  11
ATOM     10  C   UNK A   1       3.592   1.567  18.141  0.00  0.00    +0.000 C 
ATOM     11  O   UNK A   1       2.404   1.839  18.884  0.00  0.00    +0.000 OA
ENDBRANCH   1  11
BRANCH   5  12
ATOM     12  C   UNK A   1       1.542   8.169  21.179  0.00  0.00    +0.000 C 
BRANCH  12  13
ATOM     13  C   UNK A   1       0.393   9.118  20.791  0.00  0.00    +0.000 C 
ATOM     14  N   UNK A   1       0.862  10.201  19.906  0.00  0.00    +0.000 N 
ATOM     15  C   PRO A   2       0.100  11.318  19.645  0.00  0.00    +0.000 C 
ATOM     16  O   PRO A   2       0.357  12.056  18.698  0.00  0.00    +0.000 OA
ATOM     17  CA  PRO A   2      -1.138  11.453  20.531  0.00  0.00    +0.000 C 
ATOM     18  CB  PRO A   2      -1.594  12.889  20.775  0.00  0.00    +0.000 C 
ATOM     19  CG  PRO A   2      -2.215  12.819  22.171  0.00  0.00    +0.000 C 
ATOM     20  CD  PRO A   2      -1.313  11.838  22.908  0.00  0.00    +0.000 C 
ATOM     21  N   PRO A   2      -0.842  10.950  21.868  0.00  0.00    +0.000 N 
ATOM     22  C   UNK A   1      -0.192   9.754  22.084  0.00  0.00    +0.000 C 
ATOM     23  O   UNK A   1      -0.156   9.210  23.189  0.00  0.00    +0.000 OA
ATOM     24  H   UNK A   1       1.560   9.992  19.201  0.00  0.00    +0.000 HD
ENDBRANCH  12  13
ENDBRANCH   5  12
BRANCH   7  25
ATOM     25  C   UNK A   1       3.837   6.724  16.944  0.00  0.00    +0.000 C 
BRANCH  25  26
ATOM     26  C   UNK A   1       5.170   6.036  17.085  0.00  0.00    +0.000 A 
ATOM     27  C   UNK A   1       5.576   5.054  16.166  0.00  0.00    +0.000 A 
ATOM     28  C   UNK A   1       6.758   4.342  16.364  0.00  0.00    +0.000 A 
ATOM     29  C   UNK A   1       7.565   4.624  17.463  0.00  0.00    +0.000 A 
ATOM     30  C   UNK A   1       7.205   5.640  18.348  0.00  0.00    +0.000 A 
ATOM     31  C   UNK A   1       6.017   6.345  18.159  0.00  0.00    +0.000 A 
ENDBRANCH  25  26
ENDBRANCH   7  25
TORSDOF 5
ENDMDL
MODEL 2
REMARK VINA RESULT:      -8.6      0.874      1.066
REMARK  Name = 
REMARK  6 active torsions:
REMARK  status: ('A' for Active; 'I' for Inactive)
REMARK    1  A    between atoms: C_1  and  O_2
REMARK    2  A    between atoms: O_2  and  C_3
REMARK    3  A    between atoms: C_7  and  C_8
REMARK    4  A    between atoms: C_8  and  C_9
REMARK    5  A    between atoms: N_21  and  C_22
REMARK    6  A    between atoms: C_22  and  C_23
REMARK                            x       y       z     vdW  Elec       q    Type
REMARK                         _______ _______ _______ _____ _____    ______ ____
ROOT
ATOM      1  C   UNK A   1       2.033   3.040  19.415  0.00  0.00    +0.000 A 
ATOM      2  C   UNK A   1       1.414   3.408  20.606  0.00  0.00    +0.000 A 
ATOM      3  C   UNK A   1       1.349   4.751  20.997  0.00  0.00    +0.000 A 
ATOM      4  C   UNK A   1       1.923   5.749  20.188  0.00  0.00    +0.000 A 
ATOM      5  C   UNK A   1       2.010   7.175  20.291  0.00  0.00    +0.000 A 
ATOM      6  C   UNK A   1       2.736   7.603  19.201  0.00  0.00    +0.000 A 
ATOM      7  N   UNK A   1       3.111   6.508  18.458  0.00  0.00    +0.000 N 
ATOM      8  C   UNK A   1       2.595   5.359  19.024  0.00  0.00    +0.000 A 
ATOM      9  C   UNK A   1       2.666   4.009  18.623  0.00  0.00    +0.000 A 
ENDROOT
BRANCH   1  11
ATOM     10  C   UNK A   1       3.364   1.401  18.358  0.00  0.00    +0.000 C 
ATOM     11  O   UNK A   1       2.116   1.748  18.959  0.00  0.00    +0.000 OA
ENDBRANCH   1  11
BRANCH   5  12
ATOM     12  C   UNK A   1       1.479   8.052  21.393  0.00  0.00    +0.000 C 
BRANCH  12  13
ATOM     13  C   UNK A   1       0.271   8.927  21.008  0.00  0.00    +0.000 C 
ATOM     14  N   UNK A   1       0.518   9.669  19.757  0.00  0.00    +0.000 N 
ATOM     15  C   PRO A   2      -0.284  10.713  19.352  0.00  0.00    +0.000 C 
ATOM     16  O   PRO A   2      -0.258  11.123  18.195  0.00  0.00    +0.000 OA
ATOM     17  CA  PRO A   2      -1.278  11.186  20.412  0.00  0.00    +0.000 C 
ATOM     18  CB  PRO A   2      -1.664  12.660  20.310  0.00  0.00    +0.000 C 
ATOM     19  CG  PRO A   2      -1.938  13.044  21.765  0.00  0.00    +0.000 C 
ATOM     20  CD  PRO A   2      -0.888  12.258  22.539  0.00  0.00    +0.000 C 
ATOM     21  N   PRO A   2      -0.676  11.075  21.735  0.00  0.00    +0.000 N 
ATOM     22  C   UNK A   1       0.008   9.951  22.148  0.00  0.00    +0.000 C 
ATOM     23  O   UNK A   1       0.302   9.751  23.327  0.00  0.00    +0.000 OA
ATOM     24  H   UNK A   1       1.030   9.215  19.009  0.00  0.00    +0.000 HD
ENDBRANCH  12  13
ENDBRANCH   5  12
BRANCH   7  25
ATOM     25  C   UNK A   1       3.985   6.585  17.288  0.00  0.00    +0.000 C 
BRANCH  25  26
ATOM     26  C   UNK A   1       5.439   6.555  17.683  0.00  0.00    +0.000 A 
ATOM     27  C   UNK A   1       5.919   5.602  18.596  0.00  0.00    +0.000 A 
ATOM     28  C   UNK A   1       7.239   5.650  19.044  0.00  0.00    +0.000 A 
ATOM     29  C   UNK A   1       8.102   6.629  18.560  0.00  0.00    +0.000 A 
ATOM     30  C   UNK A   1       7.655   7.542  17.606  0.00  0.00    +0.000 A 
ATOM     31  C   UNK A   1       6.333   7.504  17.166  0.00  0.00    +0.000 A 
ENDBRANCH  25  26
ENDBRANCH   7  25
TORSDOF 5
ENDMDL
MODEL 3
REMARK VINA RESULT:      -8.5      2.253      8.558
REMARK  Name = 
REMARK  6 active torsions:
REMARK  status: ('A' for Active; 'I' for Inactive)
REMARK    1  A    between atoms: C_1  and  O_2
REMARK    2  A    between atoms: O_2  and  C_3
REMARK    3  A    between atoms: C_7  and  C_8
REMARK    4  A    between atoms: C_8  and  C_9
REMARK    5  A    between atoms: N_21  and  C_22
REMARK    6  A    between atoms: C_22  and  C_23
REMARK                            x       y       z     vdW  Elec       q    Type
REMARK                         _______ _______ _______ _____ _____    ______ ____
ROOT
ATOM      1  C   UNK A   1      -0.388  10.296  22.498  0.00  0.00    +0.000 A 
ATOM      2  C   UNK A   1       0.386   9.162  22.727  0.00  0.00    +0.000 A 
ATOM      3  C   UNK A   1       1.167   8.607  21.706  0.00  0.00    +0.000 A 
ATOM      4  C   UNK A   1       1.169   9.189  20.425  0.00  0.00    +0.000 A 
ATOM      5  C   UNK A   1       1.852   8.885  19.202  0.00  0.00    +0.000 A 
ATOM      6  C   UNK A   1       1.411   9.798  18.270  0.00  0.00    +0.000 A 
ATOM      7  N   UNK A   1       0.481  10.623  18.859  0.00  0.00    +0.000 N 
ATOM      8  C   UNK A   1       0.340  10.292  20.193  0.00  0.00    +0.000 A 
ATOM      9  C   UNK A   1      -0.450  10.857  21.215  0.00  0.00    +0.000 A 
ENDROOT
BRANCH   1  11
ATOM     10  C   UNK A   1      -1.827  12.092  23.024  0.00  0.00    +0.000 C 
ATOM     11  O   UNK A   1      -1.160  10.906  23.455  0.00  0.00    +0.000 OA
ENDBRANCH   1  11
BRANCH   5  12
ATOM     12  C   UNK A   1       2.815   7.758  18.942  0.00  0.00    +0.000 C 
BRANCH  12  13
ATOM     13  C   UNK A   1       2.164   6.379  18.724  0.00  0.00    +0.000 C 
ATOM     14  N   UNK A   1       1.887   5.703  20.006  0.00  0.00    +0.000 N 
ATOM     15  C   PRO A   2       1.566   4.365  20.076  0.00  0.00    +0.000 C 
ATOM     16  O   PRO A   2       1.056   3.886  21.085  0.00  0.00    +0.000 OA
ATOM     17  CA  PRO A   2       1.764   3.604  18.766  0.00  0.00    +0.000 C 
ATOM     18  CB  PRO A   2       2.091   2.123  18.933  0.00  0.00    +0.000 C 
ATOM     19  CG  PRO A   2       2.967   1.825  17.715  0.00  0.00    +0.000 C 
ATOM     20  CD  PRO A   2       3.790   3.096  17.555  0.00  0.00    +0.000 C 
ATOM     21  N   PRO A   2       2.922   4.138  18.058  0.00  0.00    +0.000 N 
ATOM     22  C   UNK A   1       3.134   5.491  17.895  0.00  0.00    +0.000 C 
ATOM     23  O   UNK A   1       3.962   5.940  17.101  0.00  0.00    +0.000 OA
ATOM     24  H   UNK A   1       1.570   6.255  20.794  0.00  0.00    +0.000 HD
ENDBRANCH  12  13
ENDBRANCH   5  12
BRANCH   7  25
ATOM     25  C   UNK A   1      -0.273  11.643  18.131  0.00  0.00    +0.000 C 
BRANCH  25  26
ATOM     26  C   UNK A   1      -1.713  11.238  17.951  0.00  0.00    +0.000 A 
ATOM     27  C   UNK A   1      -2.749  11.965  18.559  0.00  0.00    +0.000 A 
ATOM     28  C   UNK A   1      -4.068  11.521  18.482  0.00  0.00    +0.000 A 
ATOM     29  C   UNK A   1      -4.373  10.365  17.770  0.00  0.00    +0.000 A 
ATOM     30  C   UNK A   1      -3.363   9.668  17.108  0.00  0.00    +0.000 A 
ATOM     31  C   UNK A   1      -2.040  10.103  17.194  0.00  0.00    +0.000 A 
ENDBRANCH  25  26
ENDBRANCH   7  25
TORSDOF 5
ENDMDL
MODEL 4
REMARK VINA RESULT:      -8.4      0.878      1.059
REMARK  Name = 
REMARK  6 active torsions:
REMARK  status: ('A' for Active; 'I' for Inactive)
REMARK    1  A    between atoms: C_1  and  O_2
REMARK    2  A    between atoms: O_2  and  C_3
REMARK    3  A    between atoms: C_7  and  C_8
REMARK    4  A    between atoms: C_8  and  C_9
REMARK    5  A    between atoms: N_21  and  C_22
REMARK    6  A    between atoms: C_22  and  C_23
REMARK                            x       y       z     vdW  Elec       q    Type
REMARK                         _______ _______ _______ _____ _____    ______ ____
ROOT
ATOM      1  C   UNK A   1       2.046   2.979  19.236  0.00  0.00    +0.000 A 
ATOM      2  C   UNK A   1       1.324   3.349  20.367  0.00  0.00    +0.000 A 
ATOM      3  C   UNK A   1       1.213   4.693  20.742  0.00  0.00    +0.000 A 
ATOM      4  C   UNK A   1       1.846   5.692  19.979  0.00  0.00    +0.000 A 
ATOM      5  C   UNK A   1       1.911   7.120  20.078  0.00  0.00    +0.000 A 
ATOM      6  C   UNK A   1       2.723   7.547  19.052  0.00  0.00    +0.000 A 
ATOM      7  N   UNK A   1       3.171   6.452  18.352  0.00  0.00    +0.000 N 
ATOM      8  C   UNK A   1       2.618   5.301  18.879  0.00  0.00    +0.000 A 
ATOM      9  C   UNK A   1       2.736   3.949  18.495  0.00  0.00    +0.000 A 
ENDROOT
BRANCH   1  11
ATOM     10  C   UNK A   1       3.517   1.288  18.493  0.00  0.00    +0.000 C 
ATOM     11  O   UNK A   1       2.180   1.686  18.798  0.00  0.00    +0.000 OA
ENDBRANCH   1  11
BRANCH   5  12
ATOM     12  C   UNK A   1       1.279   7.998  21.125  0.00  0.00    +0.000 C 
BRANCH  12  13
ATOM     13  C   UNK A   1       0.327   9.081  20.582  0.00  0.00    +0.000 C 
ATOM     14  N   UNK A   1       1.059  10.107  19.814  0.00  0.00    +0.000 N 
ATOM     15  C   PRO A   2       0.486  11.310  19.464  0.00  0.00    +0.000 C 
ATOM     16  O   PRO A   2       0.979  12.019  18.592  0.00  0.00    +0.000 OA
ATOM     17  CA  PRO A   2      -0.857  11.584  20.140  0.00  0.00    +0.000 C 
ATOM     18  CB  PRO A   2      -1.177  13.062  20.345  0.00  0.00    +0.000 C 
ATOM     19  CG  PRO A   2      -2.023  13.056  21.620  0.00  0.00    +0.000 C 
ATOM     20  CD  PRO A   2      -1.375  11.968  22.466  0.00  0.00    +0.000 C 
ATOM     21  N   PRO A   2      -0.846  11.039  21.493  0.00  0.00    +0.000 N 
ATOM     22  C   UNK A   1      -0.384   9.772  21.779  0.00  0.00    +0.000 C 
ATOM     23  O   UNK A   1      -0.595   9.219  22.860  0.00  0.00    +0.000 OA
ATOM     24  H   UNK A   1       1.834   9.822  19.227  0.00  0.00    +0.000 HD
ENDBRANCH  12  13
ENDBRANCH   5  12
BRANCH   7  25
ATOM     25  C   UNK A   1       4.141   6.530  17.260  0.00  0.00    +0.000 C 
BRANCH  25  26
ATOM     26  C   UNK A   1       5.553   6.605  17.783  0.00  0.00    +0.000 A 
ATOM     27  C   UNK A   1       6.452   7.567  17.296  0.00  0.00    +0.000 A 
ATOM     28  C   UNK A   1       7.787   7.561  17.700  0.00  0.00    +0.000 A 
ATOM     29  C   UNK A   1       8.230   6.614  18.619  0.00  0.00    +0.000 A 
ATOM     30  C   UNK A   1       7.333   5.692  19.158  0.00  0.00    +0.000 A 
ATOM     31  C   UNK A   1       6.001   5.690  18.746  0.00  0.00    +0.000 A 
ENDBRANCH  25  26
ENDBRANCH   7  25
TORSDOF 5
ENDMDL
MODEL 5
REMARK VINA RESULT:      -8.4      1.982      4.129
REMARK  Name = 
REMARK  6 active torsions:
REMARK  status: ('A' for Active; 'I' for Inactive)
REMARK    1  A    between atoms: C_1  and  O_2
REMARK    2  A    between atoms: O_2  and  C_3
REMARK    3  A    between atoms: C_7  and  C_8
REMARK    4  A    between atoms: C_8  and  C_9
REMARK    5  A    between atoms: N_21  and  C_22
REMARK    6  A    between atoms: C_22  and  C_23
REMARK                            x       y       z     vdW  Elec       q    Type
REMARK                         _______ _______ _______ _____ _____    ______ ____
ROOT
ATOM      1  C   UNK A   1       5.477   5.449  17.068  0.00  0.00    +0.000 A 
ATOM      2  C   UNK A   1       5.203   6.533  16.239  0.00  0.00    +0.000 A 
ATOM      3  C   UNK A   1       4.223   7.472  16.582  0.00  0.00    +0.000 A 
ATOM      4  C   UNK A   1       3.490   7.321  17.774  0.00  0.00    +0.000 A 
ATOM      5  C   UNK A   1       2.461   8.092  18.406  0.00  0.00    +0.000 A 
ATOM      6  C   UNK A   1       2.106   7.410  19.549  0.00  0.00    +0.000 A 
ATOM      7  N   UNK A   1       2.850   6.256  19.628  0.00  0.00    +0.000 N 
ATOM      8  C   UNK A   1       3.734   6.194  18.568  0.00  0.00    +0.000 A 
ATOM      9  C   UNK A   1       4.719   5.244  18.229  0.00  0.00    +0.000 A 
ENDROOT
BRANCH   1  11
ATOM     10  C   UNK A   1       7.618   4.609  17.600  0.00  0.00    +0.000 C 
ATOM     11  O   UNK A   1       6.437   4.504  16.805  0.00  0.00    +0.000 OA
ENDBRANCH   1  11
BRANCH   5  12
ATOM     12  C   UNK A   1       1.829   9.365  17.909  0.00  0.00    +0.000 C 
BRANCH  12  13
ATOM     13  C   UNK A   1       0.397   9.623  18.414  0.00  0.00    +0.000 C 
ATOM     14  N   UNK A   1      -0.541   9.833  17.294  0.00  0.00    +0.000 N 
ATOM     15  C   PRO A   2      -1.805  10.347  17.480  0.00  0.00    +0.000 C 
ATOM     16  O   PRO A   2      -2.668  10.242  16.614  0.00  0.00    +0.000 OA
ATOM     17  CA  PRO A   2      -2.054  10.903  18.882  0.00  0.00    +0.000 C 
ATOM     18  CB  PRO A   2      -3.079  12.032  18.947  0.00  0.00    +0.000 C 
ATOM     19  CG  PRO A   2      -2.587  12.876  20.124  0.00  0.00    +0.000 C 
ATOM     20  CD  PRO A   2      -1.071  12.806  19.995  0.00  0.00    +0.000 C 
ATOM     21  N   PRO A   2      -0.832  11.513  19.393  0.00  0.00    +0.000 N 
ATOM     22  C   UNK A   1       0.399  10.899  19.302  0.00  0.00    +0.000 C 
ATOM     23  O   UNK A   1       1.381  11.287  19.938  0.00  0.00    +0.000 OA
ATOM     24  H   UNK A   1      -0.429   9.282  16.450  0.00  0.00    +0.000 HD
ENDBRANCH  12  13
ENDBRANCH   5  12
BRANCH   7  25
ATOM     25  C   UNK A   1       2.657   5.237  20.660  0.00  0.00    +0.000 C 
BRANCH  25  26
ATOM     26  C   UNK A   1       2.235   3.921  20.062  0.00  0.00    +0.000 A 
ATOM     27  C   UNK A   1       3.129   2.841  19.987  0.00  0.00    +0.000 A 
ATOM     28  C   UNK A   1       2.770   1.664  19.332  0.00  0.00    +0.000 A 
ATOM     29  C   UNK A   1       1.501   1.540  18.773  0.00  0.00    +0.000 A 
ATOM     30  C   UNK A   1       0.581   2.580  18.894  0.00  0.00    +0.000 A 
ATOM     31  C   UNK A   1       0.943   3.763  19.539  0.00  0.00    +0.000 A 
ENDBRANCH  25  26
ENDBRANCH   7  25
TORSDOF 5
ENDMDL
MODEL 6
REMARK VINA RESULT:      -8.1      1.900      2.261
REMARK  Name = 
REMARK  6 active torsions:
REMARK  status: ('A' for Active; 'I' for Inactive)
REMARK    1  A    between atoms: C_1  and  O_2
REMARK    2  A    between atoms: O_2  and  C_3
REMARK    3  A    between atoms: C_7  and  C_8
REMARK    4  A    between atoms: C_8  and  C_9
REMARK    5  A    between atoms: N_21  and  C_22
REMARK    6  A    between atoms: C_22  and  C_23
REMARK                            x       y       z     vdW  Elec       q    Type
REMARK                         _______ _______ _______ _____ _____    ______ ____
ROOT
ATOM      1  C   UNK A   1       2.428   4.483  20.011  0.00  0.00    +0.000 A 
ATOM      2  C   UNK A   1       1.673   5.354  20.792  0.00  0.00    +0.000 A 
ATOM      3  C   UNK A   1       1.530   6.699  20.434  0.00  0.00    +0.000 A 
ATOM      4  C   UNK A   1       2.161   7.192  19.277  0.00  0.00    +0.000 A 
ATOM      5  C   UNK A   1       2.199   8.476  18.641  0.00  0.00    +0.000 A 
ATOM      6  C   UNK A   1       3.027   8.348  17.548  0.00  0.00    +0.000 A 
ATOM      7  N   UNK A   1       3.510   7.061  17.503  0.00  0.00    +0.000 N 
ATOM      8  C   UNK A   1       2.966   6.320  18.534  0.00  0.00    +0.000 A 
ATOM      9  C   UNK A   1       3.116   4.963  18.888  0.00  0.00    +0.000 A 
ENDROOT
BRANCH   1  11
ATOM     10  C   UNK A   1       3.879   2.622  19.958  0.00  0.00    +0.000 C 
ATOM     11  O   UNK A   1       2.594   3.149  20.289  0.00  0.00    +0.000 OA
ENDBRANCH   1  11
BRANCH   5  12
ATOM     12  C   UNK A   1       1.527   9.745  19.093  0.00  0.00    +0.000 C 
BRANCH  12  13
ATOM     13  C   UNK A   1      -0.009   9.748  18.981  0.00  0.00    +0.000 C 
ATOM     14  N   UNK A   1      -0.449   9.947  17.586  0.00  0.00    +0.000 N 
ATOM     15  C   PRO A   2      -1.751  10.258  17.264  0.00  0.00    +0.000 C 
ATOM     16  O   PRO A   2      -2.171  10.131  16.118  0.00  0.00    +0.000 OA
ATOM     17  CA  PRO A   2      -2.624  10.619  18.466  0.00  0.00    +0.000 C 
ATOM     18  CB  PRO A   2      -3.767  11.582  18.157  0.00  0.00    +0.000 C 
ATOM     19  CG  PRO A   2      -3.930  12.353  19.468  0.00  0.00    +0.000 C 
ATOM     20  CD  PRO A   2      -2.499  12.507  19.965  0.00  0.00    +0.000 C 
ATOM     21  N   PRO A   2      -1.826  11.333  19.456  0.00  0.00    +0.000 N 
ATOM     22  C   UNK A   1      -0.574  10.907  19.848  0.00  0.00    +0.000 C 
ATOM     23  O   UNK A   1      -0.005  11.355  20.845  0.00  0.00    +0.000 OA
ATOM     24  H   UNK A   1       0.079   9.512  16.838  0.00  0.00    +0.000 HD
ENDBRANCH  12  13
ENDBRANCH   5  12
BRANCH   7  25
ATOM     25  C   UNK A   1       4.503   6.602  16.532  0.00  0.00    +0.000 C 
BRANCH  25  26
ATOM     26  C   UNK A   1       5.830   6.326  17.190  0.00  0.00    +0.000 A 
ATOM     27  C   UNK A   1       6.231   5.013  17.482  0.00  0.00    +0.000 A 
ATOM     28  C   UNK A   1       7.407   4.770  18.192  0.00  0.00    +0.000 A 
ATOM     29  C   UNK A   1       8.211   5.835  18.590  0.00  0.00    +0.000 A 
ATOM     30  C   UNK A   1       7.856   7.140  18.252  0.00  0.00    +0.000 A 
ATOM     31  C   UNK A   1       6.674   7.386  17.552  0.00  0.00    +0.000 A 
ENDBRANCH  25  26
ENDBRANCH   7  25
TORSDOF 5
ENDMDL
MODEL 7
REMARK VINA RESULT:      -8.1      2.308      8.498
REMARK  Name = 
REMARK  6 active torsions:
REMARK  status: ('A' for Active; 'I' for Inactive)
REMARK    1  A    between atoms: C_1  and  O_2
REMARK    2  A    between atoms: O_2  and  C_3
REMARK    3  A    between atoms: C_7  and  C_8
REMARK    4  A    between atoms: C_8  and  C_9
REMARK    5  A    between atoms: N_21  and  C_22
REMARK    6  A    between atoms: C_22  and  C_23
REMARK                            x       y       z     vdW  Elec       q    Type
REMARK                         _______ _______ _______ _____ _____    ______ ____
ROOT
ATOM      1  C   UNK A   1      -1.337  11.322  22.744  0.00  0.00    +0.000 A 
ATOM      2  C   UNK A   1      -0.811  10.212  23.399  0.00  0.00    +0.000 A 
ATOM      3  C   UNK A   1       0.051   9.329  22.739  0.00  0.00    +0.000 A 
ATOM      4  C   UNK A   1       0.390   9.550  21.392  0.00  0.00    +0.000 A 
ATOM      5  C   UNK A   1       1.235   8.866  20.459  0.00  0.00    +0.000 A 
ATOM      6  C   UNK A   1       1.132   9.544  19.265  0.00  0.00    +0.000 A 
ATOM      7  N   UNK A   1       0.250  10.588  19.421  0.00  0.00    +0.000 N 
ATOM      8  C   UNK A   1      -0.193  10.636  20.727  0.00  0.00    +0.000 A 
ATOM      9  C   UNK A   1      -1.064  11.529  21.385  0.00  0.00    +0.000 A 
ENDROOT
BRANCH   1  11
ATOM     10  C   UNK A   1      -3.327  12.580  22.569  0.00  0.00    +0.000 C 
ATOM     11  O   UNK A   1      -2.170  12.239  23.334  0.00  0.00    +0.000 OA
ENDBRANCH   1  11
BRANCH   5  12
ATOM     12  C   UNK A   1       2.039   7.614  20.694  0.00  0.00    +0.000 C 
BRANCH  12  13
ATOM     13  C   UNK A   1       1.542   6.368  19.936  0.00  0.00    +0.000 C 
ATOM     14  N   UNK A   1       1.470   5.190  20.822  0.00  0.00    +0.000 N 
ATOM     15  C   PRO A   2       1.323   3.911  20.333  0.00  0.00    +0.000 C 
ATOM     16  O   PRO A   2       0.971   2.989  21.061  0.00  0.00    +0.000 OA
ATOM     17  CA  PRO A   2       1.489   3.798  18.818  0.00  0.00    +0.000 C 
ATOM     18  CB  PRO A   2       2.008   2.446  18.334  0.00  0.00    +0.000 C 
ATOM     19  CG  PRO A   2       2.796   2.812  17.075  0.00  0.00    +0.000 C 
ATOM     20  CD  PRO A   2       3.440   4.143  17.439  0.00  0.00    +0.000 C 
ATOM     21  N   PRO A   2       2.502   4.743  18.362  0.00  0.00    +0.000 N 
ATOM     22  C   UNK A   1       2.532   6.057  18.778  0.00  0.00    +0.000 C 
ATOM     23  O   UNK A   1       3.222   6.912  18.220  0.00  0.00    +0.000 OA
ATOM     24  H   UNK A   1       1.163   5.314  21.780  0.00  0.00    +0.000 HD
ENDBRANCH  12  13
ENDBRANCH   5  12
BRANCH   7  25
ATOM     25  C   UNK A   1      -0.180  11.455  18.323  0.00  0.00    +0.000 C 
BRANCH  25  26
ATOM     26  C   UNK A   1       0.444  12.823  18.427  0.00  0.00    +0.000 A 
ATOM     27  C   UNK A   1       1.837  12.988  18.365  0.00  0.00    +0.000 A 
ATOM     28  C   UNK A   1       2.414  14.239  18.574  0.00  0.00    +0.000 A 
ATOM     29  C   UNK A   1       1.605  15.347  18.814  0.00  0.00    +0.000 A 
ATOM     30  C   UNK A   1       0.218  15.209  18.815  0.00  0.00    +0.000 A 
ATOM     31  C   UNK A   1      -0.361  13.955  18.618  0.00  0.00    +0.000 A 
ENDBRANCH  25  26
ENDBRANCH   7  25
TORSDOF 5
ENDMDL
MODEL 8
REMARK VINA RESULT:      -8.0      1.455      1.802
REMARK  Name = 
REMARK  6 active torsions:
REMARK  status: ('A' for Active; 'I' for Inactive)
REMARK    1  A    between atoms: C_1  and  O_2
REMARK    2  A    between atoms: O_2  and  C_3
REMARK    3  A    between atoms: C_7  and  C_8
REMARK    4  A    between atoms: C_8  and  C_9
REMARK    5  A    between atoms: N_21  and  C_22
REMARK    6  A    between atoms: C_22  and  C_23
REMARK                            x       y       z     vdW  Elec       q    Type
REMARK                         _______ _______ _______ _____ _____    ______ ____
ROOT
ATOM      1  C   UNK A   1       2.039   3.354  19.017  0.00  0.00    +0.000 A 
ATOM      2  C   UNK A   1       1.384   3.725  20.188  0.00  0.00    +0.000 A 
ATOM      3  C   UNK A   1       1.295   5.070  20.567  0.00  0.00    +0.000 A 
ATOM      4  C   UNK A   1       1.883   6.067  19.767  0.00  0.00    +0.000 A 
ATOM      5  C   UNK A   1       1.954   7.496  19.861  0.00  0.00    +0.000 A 
ATOM      6  C   UNK A   1       2.705   7.922  18.789  0.00  0.00    +0.000 A 
ATOM      7  N   UNK A   1       3.111   6.825  18.065  0.00  0.00    +0.000 N 
ATOM      8  C   UNK A   1       2.589   5.676  18.624  0.00  0.00    +0.000 A 
ATOM      9  C   UNK A   1       2.684   4.323  18.236  0.00  0.00    +0.000 A 
ENDROOT
BRANCH   1  11
ATOM     10  C   UNK A   1       3.476   1.635  18.274  0.00  0.00    +0.000 C 
ATOM     11  O   UNK A   1       2.146   2.060  18.573  0.00  0.00    +0.000 OA
ENDBRANCH   1  11
BRANCH   5  12
ATOM     12  C   UNK A   1       1.385   8.375  20.942  0.00  0.00    +0.000 C 
BRANCH  12  13
ATOM     13  C   UNK A   1       0.305   9.369  20.475  0.00  0.00    +0.000 C 
ATOM     14  N   UNK A   1       0.008   9.208  19.039  0.00  0.00    +0.000 N 
ATOM     15  C   PRO A   2      -0.709  10.145  18.327  0.00  0.00    +0.000 C 
ATOM     16  O   PRO A   2      -1.200   9.875  17.235  0.00  0.00    +0.000 OA
ATOM     17  CA  PRO A   2      -0.947  11.454  19.079  0.00  0.00    +0.000 C 
ATOM     18  CB  PRO A   2      -1.088  12.685  18.187  0.00  0.00    +0.000 C 
ATOM     19  CG  PRO A   2      -0.531  13.809  19.062  0.00  0.00    +0.000 C 
ATOM     20  CD  PRO A   2       0.623  13.141  19.798  0.00  0.00    +0.000 C 
ATOM     21  N   PRO A   2       0.210  11.760  19.912  0.00  0.00    +0.000 N 
ATOM     22  C   UNK A   1       0.817  10.818  20.715  0.00  0.00    +0.000 C 
ATOM     23  O   UNK A   1       1.626  11.119  21.594  0.00  0.00    +0.000 OA
ATOM     24  H   UNK A   1      -0.004   8.276  18.641  0.00  0.00    +0.000 HD
ENDBRANCH  12  13
ENDBRANCH   5  12
BRANCH   7  25
ATOM     25  C   UNK A   1       4.016   6.902  16.918  0.00  0.00    +0.000 C 
BRANCH  25  26
ATOM     26  C   UNK A   1       5.240   6.049  17.125  0.00  0.00    +0.000 A 
ATOM     27  C   UNK A   1       6.066   6.231  18.245  0.00  0.00    +0.000 A 
ATOM     28  C   UNK A   1       7.257   5.517  18.374  0.00  0.00    +0.000 A 
ATOM     29  C   UNK A   1       7.619   4.589  17.402  0.00  0.00    +0.000 A 
ATOM     30  C   UNK A   1       6.777   4.352  16.317  0.00  0.00    +0.000 A 
ATOM     31  C   UNK A   1       5.592   5.074  16.180  0.00  0.00    +0.000 A 
ENDBRANCH  25  26
ENDBRANCH   7  25
TORSDOF 5
ENDMDL
MODEL 9
REMARK VINA RESULT:      -8.0      2.072      2.667
REMARK  Name = 
REMARK  6 active torsions:
REMARK  status: ('A' for Active; 'I' for Inactive)
REMARK    1  A    between atoms: C_1  and  O_2
REMARK    2  A    between atoms: O_2  and  C_3
REMARK    3  A    between atoms: C_7  and  C_8
REMARK    4  A    between atoms: C_8  and  C_9
REMARK    5  A    between atoms: N_21  and  C_22
REMARK    6  A    between atoms: C_22  and  C_23
REMARK                            x       y       z     vdW  Elec       q    Type
REMARK                         _______ _______ _______ _____ _____    ______ ____
ROOT
ATOM      1  C   UNK A   1       2.286   4.663  20.257  0.00  0.00    +0.000 A 
ATOM      2  C   UNK A   1       1.456   5.534  20.957  0.00  0.00    +0.000 A 
ATOM      3  C   UNK A   1       1.288   6.859  20.540  0.00  0.00    +0.000 A 
ATOM      4  C   UNK A   1       1.971   7.332  19.405  0.00  0.00    +0.000 A 
ATOM      5  C   UNK A   1       2.002   8.593  18.723  0.00  0.00    +0.000 A 
ATOM      6  C   UNK A   1       2.899   8.456  17.687  0.00  0.00    +0.000 A 
ATOM      7  N   UNK A   1       3.428   7.187  17.721  0.00  0.00    +0.000 N 
ATOM      8  C   UNK A   1       2.848   6.465  18.745  0.00  0.00    +0.000 A 
ATOM      9  C   UNK A   1       3.024   5.128  19.159  0.00  0.00    +0.000 A 
ENDROOT
BRANCH   1  11
ATOM     10  C   UNK A   1       1.681   2.880  21.680  0.00  0.00    +0.000 C 
ATOM     11  O   UNK A   1       2.481   3.348  20.595  0.00  0.00    +0.000 OA
ENDBRANCH   1  11
BRANCH   5  12
ATOM     12  C   UNK A   1       1.261   9.852  19.086  0.00  0.00    +0.000 C 
BRANCH  12  13
ATOM     13  C   UNK A   1      -0.265   9.794  18.883  0.00  0.00    +0.000 C 
ATOM     14  N   UNK A   1      -0.630   9.997  17.468  0.00  0.00    +0.000 N 
ATOM     15  C   PRO A   2      -1.923  10.261  17.073  0.00  0.00    +0.000 C 
ATOM     16  O   PRO A   2      -2.269  10.135  15.902  0.00  0.00    +0.000 OA
ATOM     17  CA  PRO A   2      -2.879  10.566  18.226  0.00  0.00    +0.000 C 
ATOM     18  CB  PRO A   2      -4.041  11.487  17.863  0.00  0.00    +0.000 C 
ATOM     19  CG  PRO A   2      -4.313  12.229  19.172  0.00  0.00    +0.000 C 
ATOM     20  CD  PRO A   2      -2.921  12.434  19.756  0.00  0.00    +0.000 C 
ATOM     21  N   PRO A   2      -2.171  11.296  19.271  0.00  0.00    +0.000 N 
ATOM     22  C   UNK A   1      -0.928  10.916  19.731  0.00  0.00    +0.000 C 
ATOM     23  O   UNK A   1      -0.437  11.370  20.766  0.00  0.00    +0.000 OA
ATOM     24  H   UNK A   1      -0.042   9.596  16.746  0.00  0.00    +0.000 HD
ENDBRANCH  12  13
ENDBRANCH   5  12
BRANCH   7  25
ATOM     25  C   UNK A   1       4.494   6.731  16.828  0.00  0.00    +0.000 C 
BRANCH  25  26
ATOM     26  C   UNK A   1       5.844   6.829  17.489  0.00  0.00    +0.000 A 
ATOM     27  C   UNK A   1       6.644   7.972  17.331  0.00  0.00    +0.000 A 
ATOM     28  C   UNK A   1       7.937   8.011  17.851  0.00  0.00    +0.000 A 
ATOM     29  C   UNK A   1       8.434   6.923  18.563  0.00  0.00    +0.000 A 
ATOM     30  C   UNK A   1       7.628   5.807  18.781  0.00  0.00    +0.000 A 
ATOM     31  C   UNK A   1       6.338   5.760  18.252  0.00  0.00    +0.000 A 
ENDBRANCH  25  26
ENDBRANCH   7  25
TORSDOF 5
ENDMDL
