MODEL 1
REMARK VINA RESULT:      -8.2      0.000      0.000
REMARK  Name = 
REMARK  8 active torsions:
REMARK  status: ('A' for Active; 'I' for Inactive)
REMARK    1  A    between atoms: C_1  and  C_2
REMARK    2  A    between atoms: C_2  and  N_3
REMARK    3  A    between atoms: C_11  and  C_12
REMARK    4  A    between atoms: N_14  and  C_15
REMARK    5  A    between atoms: C_15  and  C_16
REMARK    6  A    between atoms: C_15  and  C_17
REMARK    7  A    between atoms: C_20  and  S_21
REMARK    8  A    between atoms: S_21  and  N_22
REMARK                            x       y       z     vdW  Elec       q    Type
REMARK                         _______ _______ _______ _____ _____    ______ ____
ROOT
ATOM      1  C   UNL     1       1.455   8.682  20.048  0.00  0.00    +0.000 C 
ATOM      2  O   UNL     1       1.127   8.673  21.229  0.00  0.00    +0.000 OA
ATOM      3  N   UNL     1       1.267   9.759  19.208  0.00  0.00    +0.000 N 
ATOM      4  H   UNL     1       1.746   9.781  18.319  0.00  0.00    +0.000 HD
ENDROOT
BRANCH   1  13
ATOM      5  N   UNL     1       4.239   4.208  17.771  0.00  0.00    +0.000 N 
ATOM      6  C   UNL     1       5.100   4.403  16.680  0.00  0.00    +0.000 A 
ATOM      7  O   UNL     1       5.800   3.517  16.198  0.00  0.00    +0.000 OA
ATOM      8  C   UNL     1       5.159   5.814  16.065  0.00  0.00    +0.000 A 
ATOM      9  O   UNL     1       5.871   6.058  15.099  0.00  0.00    +0.000 OA
ATOM     10  N   UNL     1       4.394   6.785  16.645  0.00  0.00    +0.000 N 
ATOM     11  C   UNL     1       3.593   6.566  17.770  0.00  0.00    +0.000 A 
ATOM     12  C   UNL     1       2.903   7.655  18.314  0.00  0.00    +0.000 A 
ATOM     13  C   UNL     1       2.123   7.489  19.462  0.00  0.00    +0.000 A 
ATOM     14  C   UNL     1       2.040   6.229  20.057  0.00  0.00    +0.000 A 
ATOM     15  C   UNL     1       2.715   5.139  19.493  0.00  0.00    +0.000 A 
ATOM     16  C   UNL     1       3.509   5.292  18.345  0.00  0.00    +0.000 A 
ATOM     17  H   UNL     1       4.469   7.706  16.235  0.00  0.00    +0.000 HD
BRANCH   5  19
ATOM     18  C   UNL     1       3.083   2.025  17.815  0.00  0.00    +0.000 C 
ATOM     19  C   UNL     1       4.215   2.878  18.372  0.00  0.00    +0.000 C 
ENDBRANCH   5  19
ENDBRANCH   1  13
BRANCH   3  20
ATOM     20  C   UNL     1       0.702  11.008  19.699  0.00  0.00    +0.000 C 
ATOM     21  C   UNL     1       1.575  12.195  19.291  0.00  0.00    +0.000 C 
BRANCH  20  22
ATOM     22  C   UNL     1      -0.739  11.161  19.242  0.00  0.00    +0.000 A 
ATOM     23  C   UNL     1      -1.562  12.102  19.886  0.00  0.00    +0.000 A 
ATOM     24  C   UNL     1      -2.896  12.260  19.513  0.00  0.00    +0.000 A 
ATOM     25  C   UNL     1      -3.418  11.477  18.485  0.00  0.00    +0.000 A 
ATOM     26  C   UNL     1      -2.623  10.539  17.825  0.00  0.00    +0.000 A 
ATOM     27  C   UNL     1      -1.284  10.387  18.200  0.00  0.00    +0.000 A 
BRANCH  25  28
ATOM     28  S   UNL     1      -5.104  11.705  18.012  0.00  0.00    +0.000 S 
ATOM     29  O   UNL     1      -5.168  12.020  16.604  0.00  0.00    +0.000 OA
ATOM     30  O   UNL     1      -5.914  10.673  18.616  0.00  0.00    +0.000 OA
BRANCH  28  31
ATOM     31  N   UNL     1      -5.453  13.123  18.838  0.00  0.00    +0.000 NA
ATOM     32  H   UNL     1      -6.455  13.297  18.857  0.00  0.00    +0.000 HD
ATOM     33  H   UNL     1      -4.989  13.136  19.743  0.00  0.00    +0.000 HD
ENDBRANCH  28  31
ENDBRANCH  25  28
ENDBRANCH  20  22
ENDBRANCH   3  20
TORSDOF 6
ENDMDL
MODEL 2
REMARK VINA RESULT:      -8.1      1.898      2.818
REMARK  Name = 
REMARK  8 active torsions:
REMARK  status: ('A' for Active; 'I' for Inactive)
REMARK    1  A    between atoms: C_1  and  C_2
REMARK    2  A    between atoms: C_2  and  N_3
REMARK    3  A    between atoms: C_11  and  C_12
REMARK    4  A    between atoms: N_14  and  C_15
REMARK    5  A    between atoms: C_15  and  C_16
REMARK    6  A    between atoms: C_15  and  C_17
REMARK    7  A    between atoms: C_20  and  S_21
REMARK    8  A    between atoms: S_21  and  N_22
REMARK                            x       y       z     vdW  Elec       q    Type
REMARK                         _______ _______ _______ _____ _____    ______ ____
ROOT
ATOM      1  C   UNL     1       1.086   9.247  20.037  0.00  0.00    +0.000 C 
ATOM      2  O   UNL     1       0.574   9.375  21.144  0.00  0.00    +0.000 OA
ATOM      3  N   UNL     1       1.099  10.239  19.080  0.00  0.00    +0.000 N 
ATOM      4  H   UNL     1       1.714  10.148  18.284  0.00  0.00    +0.000 HD
ENDROOT
BRANCH   1  13
ATOM      5  N   UNL     1       3.511   4.203  18.764  0.00  0.00    +0.000 N 
ATOM      6  C   UNL     1       3.433   3.139  19.676  0.00  0.00    +0.000 A 
ATOM      7  O   UNL     1       3.842   2.007  19.439  0.00  0.00    +0.000 OA
ATOM      8  C   UNL     1       2.791   3.426  21.048  0.00  0.00    +0.000 A 
ATOM      9  O   UNL     1       2.705   2.556  21.904  0.00  0.00    +0.000 OA
ATOM     10  N   UNL     1       2.316   4.687  21.267  0.00  0.00    +0.000 N 
ATOM     11  C   UNL     1       2.358   5.706  20.310  0.00  0.00    +0.000 A 
ATOM     12  C   UNL     1       1.779   6.939  20.628  0.00  0.00    +0.000 A 
ATOM     13  C   UNL     1       1.765   7.971  19.685  0.00  0.00    +0.000 A 
ATOM     14  C   UNL     1       2.331   7.759  18.428  0.00  0.00    +0.000 A 
ATOM     15  C   UNL     1       2.929   6.528  18.125  0.00  0.00    +0.000 A 
ATOM     16  C   UNL     1       2.944   5.479  19.058  0.00  0.00    +0.000 A 
ATOM     17  H   UNL     1       1.880   4.841  22.166  0.00  0.00    +0.000 HD
BRANCH   5  19
ATOM     18  C   UNL     1       5.555   4.310  17.380  0.00  0.00    +0.000 C 
ATOM     19  C   UNL     1       4.087   3.915  17.454  0.00  0.00    +0.000 C 
ENDBRANCH   5  19
ENDBRANCH   1  13
BRANCH   3  20
ATOM     20  C   UNL     1       0.540  11.555  19.352  0.00  0.00    +0.000 C 
ATOM     21  C   UNL     1       1.301  12.636  18.583  0.00  0.00    +0.000 C 
BRANCH  20  22
ATOM     22  C   UNL     1      -0.952  11.575  19.060  0.00  0.00    +0.000 A 
ATOM     23  C   UNL     1      -1.799  12.330  19.892  0.00  0.00    +0.000 A 
ATOM     24  C   UNL     1      -3.175  12.358  19.673  0.00  0.00    +0.000 A 
ATOM     25  C   UNL     1      -3.717  11.632  18.614  0.00  0.00    +0.000 A 
ATOM     26  C   UNL     1      -2.899  10.879  17.769  0.00  0.00    +0.000 A 
ATOM     27  C   UNL     1      -1.519  10.857  17.990  0.00  0.00    +0.000 A 
BRANCH  25  28
ATOM     28  S   UNL     1      -5.460  11.696  18.340  0.00  0.00    +0.000 S 
ATOM     29  O   UNL     1      -6.063  10.469  18.803  0.00  0.00    +0.000 OA
ATOM     30  O   UNL     1      -5.956  12.998  18.718  0.00  0.00    +0.000 OA
BRANCH  28  31
ATOM     31  N   UNL     1      -5.497  11.645  16.663  0.00  0.00    +0.000 NA
ATOM     32  H   UNL     1      -4.556  11.641  16.277  0.00  0.00    +0.000 HD
ATOM     33  H   UNL     1      -6.107  10.898  16.338  0.00  0.00    +0.000 HD
ENDBRANCH  28  31
ENDBRANCH  25  28
ENDBRANCH  20  22
ENDBRANCH   3  20
TORSDOF 6
ENDMDL
MODEL 3
REMARK VINA RESULT:      -8.0      1.974      3.045
REMARK  Name = 
REMARK  8 active torsions:
REMARK  status: ('A' for Active; 'I' for Inactive)
REMARK    1  A    between atoms: C_1  and  C_2
REMARK    2  A    between atoms: C_2  and  N_3
REMARK    3  A    between atoms: C_11  and  C_12
REMARK    4  A    between atoms: N_14  and  C_15
REMARK    5  A    between atoms: C_15  and  C_16
REMARK    6  A    between atoms: C_15  and  C_17
REMARK    7  A    between atoms: C_20  and  S_21
REMARK    8  A    between atoms: S_21  and  N_22
REMARK                            x       y       z     vdW  Elec       q    Type
REMARK                         _______ _______ _______ _____ _____    ______ ____
ROOT
ATOM      1  C   UNL     1       0.508  10.210  20.052  0.00  0.00    +0.000 C 
ATOM      2  O   UNL     1       0.283  10.422  21.238  0.00  0.00    +0.000 OA
ATOM      3  N   UNL     1       0.104  11.048  19.033  0.00  0.00    +0.000 N 
ATOM      4  H   UNL     1       0.500  10.931  18.112  0.00  0.00    +0.000 HD
ENDROOT
BRANCH   1  13
ATOM      5  N   UNL     1       3.311   5.419  18.591  0.00  0.00    +0.000 N 
ATOM      6  C   UNL     1       3.276   4.302  19.440  0.00  0.00    +0.000 A 
ATOM      7  O   UNL     1       3.769   3.214  19.157  0.00  0.00    +0.000 OA
ATOM      8  C   UNL     1       2.572   4.467  20.801  0.00  0.00    +0.000 A 
ATOM      9  O   UNL     1       2.517   3.545  21.605  0.00  0.00    +0.000 OA
ATOM     10  N   UNL     1       2.005   5.679  21.072  0.00  0.00    +0.000 N 
ATOM     11  C   UNL     1       2.009   6.751  20.175  0.00  0.00    +0.000 A 
ATOM     12  C   UNL     1       1.338   7.923  20.539  0.00  0.00    +0.000 A 
ATOM     13  C   UNL     1       1.283   9.004  19.655  0.00  0.00    +0.000 A 
ATOM     14  C   UNL     1       1.904   8.902  18.409  0.00  0.00    +0.000 A 
ATOM     15  C   UNL     1       2.594   7.734  18.061  0.00  0.00    +0.000 A 
ATOM     16  C   UNL     1       2.650   6.636  18.934  0.00  0.00    +0.000 A 
ATOM     17  H   UNL     1       1.531   5.752  21.962  0.00  0.00    +0.000 HD
BRANCH   5  19
ATOM     18  C   UNL     1       5.413   5.660  17.314  0.00  0.00    +0.000 C 
ATOM     19  C   UNL     1       3.948   5.245  17.289  0.00  0.00    +0.000 C 
ENDBRANCH   5  19
ENDBRANCH   1  13
BRANCH   3  20
ATOM     20  C   UNL     1      -0.585  12.299  19.316  0.00  0.00    +0.000 C 
ATOM     21  C   UNL     1       0.018  13.445  18.504  0.00  0.00    +0.000 C 
BRANCH  20  22
ATOM     22  C   UNL     1      -2.081  12.150  19.091  0.00  0.00    +0.000 A 
ATOM     23  C   UNL     1      -2.969  12.643  20.064  0.00  0.00    +0.000 A 
ATOM     24  C   UNL     1      -4.347  12.508  19.908  0.00  0.00    +0.000 A 
ATOM     25  C   UNL     1      -4.851  11.879  18.770  0.00  0.00    +0.000 A 
ATOM     26  C   UNL     1      -3.993  11.385  17.786  0.00  0.00    +0.000 A 
ATOM     27  C   UNL     1      -2.611  11.527  17.946  0.00  0.00    +0.000 A 
BRANCH  25  28
ATOM     28  S   UNL     1      -6.600  11.735  18.580  0.00  0.00    +0.000 S 
ATOM     29  O   UNL     1      -6.969  10.339  18.579  0.00  0.00    +0.000 OA
ATOM     30  O   UNL     1      -7.254  12.712  19.418  0.00  0.00    +0.000 OA
BRANCH  28  31
ATOM     31  N   UNL     1      -6.770  12.278  17.001  0.00  0.00    +0.000 NA
ATOM     32  H   UNL     1      -5.923  12.740  16.680  0.00  0.00    +0.000 HD
ATOM     33  H   UNL     1      -7.117  11.534  16.400  0.00  0.00    +0.000 HD
ENDBRANCH  28  31
ENDBRANCH  25  28
ENDBRANCH  20  22
ENDBRANCH   3  20
TORSDOF 6
ENDMDL
MODEL 4
REMARK VINA RESULT:      -7.9      0.708      1.232
REMARK  Name = 
REMARK  8 active torsions:
REMARK  status: ('A' for Active; 'I' for Inactive)
REMARK    1  A    between atoms: C_1  and  C_2
REMARK    2  A    between atoms: C_2  and  N_3
REMARK    3  A    between atoms: C_11  and  C_12
REMARK    4  A    between atoms: N_14  and  C_15
REMARK    5  A    between atoms: C_15  and  C_16
REMARK    6  A    between atoms: C_15  and  C_17
REMARK    7  A    between atoms: C_20  and  S_21
REMARK    8  A    between atoms: S_21  and  N_22
REMARK                            x       y       z     vdW  Elec       q    Type
REMARK                         _______ _______ _______ _____ _____    ______ ____
ROOT
ATOM      1  C   UNL     1       1.424   8.656  20.313  0.00  0.00    +0.000 C 
ATOM      2  O   UNL     1       1.251   8.642  21.526  0.00  0.00    +0.000 OA
ATOM      3  N   UNL     1       1.091   9.721  19.503  0.00  0.00    +0.000 N 
ATOM      4  H   UNL     1       1.451   9.755  18.560  0.00  0.00    +0.000 HD
ENDROOT
BRANCH   1  13
ATOM      5  N   UNL     1       4.063   4.260  17.733  0.00  0.00    +0.000 N 
ATOM      6  C   UNL     1       4.922   4.498  16.648  0.00  0.00    +0.000 A 
ATOM      7  O   UNL     1       5.593   3.626  16.105  0.00  0.00    +0.000 OA
ATOM      8  C   UNL     1       5.017   5.944  16.124  0.00  0.00    +0.000 A 
ATOM      9  O   UNL     1       5.729   6.229  15.169  0.00  0.00    +0.000 OA
ATOM     10  N   UNL     1       4.284   6.897  16.771  0.00  0.00    +0.000 N 
ATOM     11  C   UNL     1       3.485   6.630  17.887  0.00  0.00    +0.000 A 
ATOM     12  C   UNL     1       2.830   7.701  18.504  0.00  0.00    +0.000 A 
ATOM     13  C   UNL     1       2.054   7.484  19.647  0.00  0.00    +0.000 A 
ATOM     14  C   UNL     1       1.938   6.192  20.161  0.00  0.00    +0.000 A 
ATOM     15  C   UNL     1       2.578   5.122  19.523  0.00  0.00    +0.000 A 
ATOM     16  C   UNL     1       3.368   5.324  18.381  0.00  0.00    +0.000 A 
ATOM     17  H   UNL     1       4.382   7.840  16.420  0.00  0.00    +0.000 HD
BRANCH   5  19
ATOM     18  C   UNL     1       2.792   2.141  17.719  0.00  0.00    +0.000 C 
ATOM     19  C   UNL     1       4.005   2.895  18.247  0.00  0.00    +0.000 C 
ENDBRANCH   5  19
ENDBRANCH   1  13
BRANCH   3  20
ATOM     20  C   UNL     1       0.550  10.951  20.062  0.00  0.00    +0.000 C 
ATOM     21  C   UNL     1       1.476  12.132  19.771  0.00  0.00    +0.000 C 
BRANCH  20  22
ATOM     22  C   UNL     1      -0.867  11.188  19.566  0.00  0.00    +0.000 A 
ATOM     23  C   UNL     1      -1.317  10.490  18.430  0.00  0.00    +0.000 A 
ATOM     24  C   UNL     1      -2.601  10.693  17.928  0.00  0.00    +0.000 A 
ATOM     25  C   UNL     1      -3.451  11.597  18.563  0.00  0.00    +0.000 A 
ATOM     26  C   UNL     1      -3.033  12.299  19.695  0.00  0.00    +0.000 A 
ATOM     27  C   UNL     1      -1.745  12.089  20.197  0.00  0.00    +0.000 A 
BRANCH  25  28
ATOM     28  S   UNL     1      -5.082  11.827  17.926  0.00  0.00    +0.000 S 
ATOM     29  O   UNL     1      -5.704  12.946  18.594  0.00  0.00    +0.000 OA
ATOM     30  O   UNL     1      -5.056  11.694  16.488  0.00  0.00    +0.000 OA
BRANCH  28  31
ATOM     31  N   UNL     1      -5.826  10.443  18.514  0.00  0.00    +0.000 NA
ATOM     32  H   UNL     1      -6.202  10.598  19.447  0.00  0.00    +0.000 HD
ATOM     33  H   UNL     1      -6.484  10.070  17.834  0.00  0.00    +0.000 HD
ENDBRANCH  28  31
ENDBRANCH  25  28
ENDBRANCH  20  22
ENDBRANCH   3  20
TORSDOF 6
ENDMDL
MODEL 5
REMARK VINA RESULT:      -7.9      2.933      3.543
REMARK  Name = 
REMARK  8 active torsions:
REMARK  status: ('A' for Active; 'I' for Inactive)
REMARK    1  A    between atoms: C_1  and  C_2
REMARK    2  A    between atoms: C_2  and  N_3
REMARK    3  A    between atoms: C_11  and  C_12
REMARK    4  A    between atoms: N_14  and  C_15
REMARK    5  A    between atoms: C_15  and  C_16
REMARK    6  A    between atoms: C_15  and  C_17
REMARK    7  A    between atoms: C_20  and  S_21
REMARK    8  A    between atoms: S_21  and  N_22
REMARK                            x       y       z     vdW  Elec       q    Type
REMARK                         _______ _______ _______ _____ _____    ______ ____
ROOT
ATOM      1  C   UNL     1       0.967  10.238  19.249  0.00  0.00    +0.000 C 
ATOM      2  O   UNL     1       1.683  11.014  18.627  0.00  0.00    +0.000 OA
ATOM      3  N   UNL     1      -0.261  10.582  19.774  0.00  0.00    +0.000 N 
ATOM      4  H   UNL     1      -0.887   9.852  20.083  0.00  0.00    +0.000 HD
ENDROOT
BRANCH   1  13
ATOM      5  N   UNL     1       2.882   4.871  19.936  0.00  0.00    +0.000 N 
ATOM      6  C   UNL     1       3.771   4.321  19.000  0.00  0.00    +0.000 A 
ATOM      7  O   UNL     1       4.296   3.218  19.125  0.00  0.00    +0.000 OA
ATOM      8  C   UNL     1       4.096   5.162  17.750  0.00  0.00    +0.000 A 
ATOM      9  O   UNL     1       4.846   4.743  16.879  0.00  0.00    +0.000 OA
ATOM     10  N   UNL     1       3.521   6.397  17.658  0.00  0.00    +0.000 N 
ATOM     11  C   UNL     1       2.687   6.936  18.642  0.00  0.00    +0.000 A 
ATOM     12  C   UNL     1       2.209   8.239  18.464  0.00  0.00    +0.000 A 
ATOM     13  C   UNL     1       1.404   8.830  19.443  0.00  0.00    +0.000 A 
ATOM     14  C   UNL     1       1.084   8.109  20.594  0.00  0.00    +0.000 A 
ATOM     15  C   UNL     1       1.547   6.796  20.752  0.00  0.00    +0.000 A 
ATOM     16  C   UNL     1       2.363   6.192  19.783  0.00  0.00    +0.000 A 
ATOM     17  H   UNL     1       3.769   6.935  16.839  0.00  0.00    +0.000 HD
BRANCH   5  19
ATOM     18  C   UNL     1       1.357   3.228  20.977  0.00  0.00    +0.000 C 
ATOM     19  C   UNL     1       2.606   4.084  21.135  0.00  0.00    +0.000 C 
ENDBRANCH   5  19
ENDBRANCH   1  13
BRANCH   3  20
ATOM     20  C   UNL     1      -0.823  11.908  19.567  0.00  0.00    +0.000 C 
ATOM     21  C   UNL     1      -1.416  12.033  18.163  0.00  0.00    +0.000 C 
BRANCH  20  22
ATOM     22  C   UNL     1      -1.833  12.239  20.655  0.00  0.00    +0.000 A 
ATOM     23  C   UNL     1      -1.473  12.042  22.001  0.00  0.00    +0.000 A 
ATOM     24  C   UNL     1      -2.375  12.310  23.029  0.00  0.00    +0.000 A 
ATOM     25  C   UNL     1      -3.649  12.784  22.718  0.00  0.00    +0.000 A 
ATOM     26  C   UNL     1      -4.031  12.994  21.392  0.00  0.00    +0.000 A 
ATOM     27  C   UNL     1      -3.120  12.726  20.364  0.00  0.00    +0.000 A 
BRANCH  25  28
ATOM     28  S   UNL     1      -4.771  13.139  24.034  0.00  0.00    +0.000 S 
ATOM     29  O   UNL     1      -5.802  14.030  23.557  0.00  0.00    +0.000 OA
ATOM     30  O   UNL     1      -5.066  11.921  24.752  0.00  0.00    +0.000 OA
BRANCH  28  31
ATOM     31  N   UNL     1      -3.776  14.048  25.033  0.00  0.00    +0.000 NA
ATOM     32  H   UNL     1      -2.836  14.114  24.650  0.00  0.00    +0.000 HD
ATOM     33  H   UNL     1      -4.216  14.934  25.270  0.00  0.00    +0.000 HD
ENDBRANCH  28  31
ENDBRANCH  25  28
ENDBRANCH  20  22
ENDBRANCH   3  20
TORSDOF 6
ENDMDL
MODEL 6
REMARK VINA RESULT:      -7.8      2.974      3.573
REMARK  Name = 
REMARK  8 active torsions:
REMARK  status: ('A' for Active; 'I' for Inactive)
REMARK    1  A    between atoms: C_1  and  C_2
REMARK    2  A    between atoms: C_2  and  N_3
REMARK    3  A    between atoms: C_11  and  C_12
REMARK    4  A    between atoms: N_14  and  C_15
REMARK    5  A    between atoms: C_15  and  C_16
REMARK    6  A    between atoms: C_15  and  C_17
REMARK    7  A    between atoms: C_20  and  S_21
REMARK    8  A    between atoms: S_21  and  N_22
REMARK                            x       y       z     vdW  Elec       q    Type
REMARK                         _______ _______ _______ _____ _____    ______ ____
ROOT
ATOM      1  C   UNL     1       1.182   9.668  19.152  0.00  0.00    +0.000 C 
ATOM      2  O   UNL     1       1.867  10.368  18.415  0.00  0.00    +0.000 OA
ATOM      3  N   UNL     1       0.020  10.098  19.757  0.00  0.00    +0.000 N 
ATOM      4  H   UNL     1      -0.601   9.419  20.172  0.00  0.00    +0.000 HD
ENDROOT
BRANCH   1  13
ATOM      5  N   UNL     1       2.959   4.286  20.064  0.00  0.00    +0.000 N 
ATOM      6  C   UNL     1       3.812   3.665  19.138  0.00  0.00    +0.000 A 
ATOM      7  O   UNL     1       4.308   2.555  19.307  0.00  0.00    +0.000 OA
ATOM      8  C   UNL     1       4.134   4.435  17.843  0.00  0.00    +0.000 A 
ATOM      9  O   UNL     1       4.854   3.952  16.979  0.00  0.00    +0.000 OA
ATOM     10  N   UNL     1       3.593   5.680  17.701  0.00  0.00    +0.000 N 
ATOM     11  C   UNL     1       2.795   6.291  18.673  0.00  0.00    +0.000 A 
ATOM     12  C   UNL     1       2.351   7.597  18.442  0.00  0.00    +0.000 A 
ATOM     13  C   UNL     1       1.584   8.258  19.406  0.00  0.00    +0.000 A 
ATOM     14  C   UNL     1       1.267   7.603  20.597  0.00  0.00    +0.000 A 
ATOM     15  C   UNL     1       1.696   6.287  20.810  0.00  0.00    +0.000 A 
ATOM     16  C   UNL     1       2.474   5.612  19.856  0.00  0.00    +0.000 A 
ATOM     17  H   UNL     1       3.839   6.171  16.852  0.00  0.00    +0.000 HD
BRANCH   5  19
ATOM     18  C   UNL     1       1.389   2.773  21.227  0.00  0.00    +0.000 C 
ATOM     19  C   UNL     1       2.686   3.567  21.304  0.00  0.00    +0.000 C 
ENDBRANCH   5  19
ENDBRANCH   1  13
BRANCH   3  20
ATOM     20  C   UNL     1      -0.509  11.431  19.507  0.00  0.00    +0.000 C 
ATOM     21  C   UNL     1      -1.202  11.491  18.145  0.00  0.00    +0.000 C 
BRANCH  20  22
ATOM     22  C   UNL     1      -1.421  11.867  20.643  0.00  0.00    +0.000 A 
ATOM     23  C   UNL     1      -1.064  11.546  21.965  0.00  0.00    +0.000 A 
ATOM     24  C   UNL     1      -1.882  11.908  23.034  0.00  0.00    +0.000 A 
ATOM     25  C   UNL     1      -3.068  12.599  22.788  0.00  0.00    +0.000 A 
ATOM     26  C   UNL     1      -3.444  12.934  21.487  0.00  0.00    +0.000 A 
ATOM     27  C   UNL     1      -2.618  12.573  20.418  0.00  0.00    +0.000 A 
BRANCH  25  28
ATOM     28  S   UNL     1      -4.081  13.066  24.156  0.00  0.00    +0.000 S 
ATOM     29  O   UNL     1      -4.695  11.888  24.722  0.00  0.00    +0.000 OA
ATOM     30  O   UNL     1      -3.380  14.040  24.960  0.00  0.00    +0.000 OA
BRANCH  28  31
ATOM     31  N   UNL     1      -5.294  13.902  23.353  0.00  0.00    +0.000 NA
ATOM     32  H   UNL     1      -5.118  14.903  23.366  0.00  0.00    +0.000 HD
ATOM     33  H   UNL     1      -5.461  13.499  22.433  0.00  0.00    +0.000 HD
ENDBRANCH  28  31
ENDBRANCH  25  28
ENDBRANCH  20  22
ENDBRANCH   3  20
TORSDOF 6
ENDMDL
MODEL 7
REMARK VINA RESULT:      -7.8      3.109      3.897
REMARK  Name = 
REMARK  8 active torsions:
REMARK  status: ('A' for Active; 'I' for Inactive)
REMARK    1  A    between atoms: C_1  and  C_2
REMARK    2  A    between atoms: C_2  and  N_3
REMARK    3  A    between atoms: C_11  and  C_12
REMARK    4  A    between atoms: N_14  and  C_15
REMARK    5  A    between atoms: C_15  and  C_16
REMARK    6  A    between atoms: C_15  and  C_17
REMARK    7  A    between atoms: C_20  and  S_21
REMARK    8  A    between atoms: S_21  and  N_22
REMARK                            x       y       z     vdW  Elec       q    Type
REMARK                         _______ _______ _______ _____ _____    ______ ____
ROOT
ATOM      1  C   UNL     1       1.456   9.621  18.259  0.00  0.00    +0.000 C 
ATOM      2  O   UNL     1       2.082  10.624  17.935  0.00  0.00    +0.000 OA
ATOM      3  N   UNL     1       0.087   9.591  18.420  0.00  0.00    +0.000 N 
ATOM      4  H   UNL     1      -0.383   8.699  18.477  0.00  0.00    +0.000 HD
ENDROOT
BRANCH   1  13
ATOM      5  N   UNL     1       4.038   4.565  19.105  0.00  0.00    +0.000 N 
ATOM      6  C   UNL     1       3.599   3.720  20.136  0.00  0.00    +0.000 A 
ATOM      7  O   UNL     1       4.035   2.588  20.322  0.00  0.00    +0.000 OA
ATOM      8  C   UNL     1       2.505   4.259  21.079  0.00  0.00    +0.000 A 
ATOM      9  O   UNL     1       2.085   3.590  22.014  0.00  0.00    +0.000 OA
ATOM     10  N   UNL     1       2.018   5.509  20.825  0.00  0.00    +0.000 N 
ATOM     11  C   UNL     1       2.439   6.298  19.751  0.00  0.00    +0.000 A 
ATOM     12  C   UNL     1       1.818   7.537  19.556  0.00  0.00    +0.000 A 
ATOM     13  C   UNL     1       2.181   8.339  18.470  0.00  0.00    +0.000 A 
ATOM     14  C   UNL     1       3.165   7.894  17.586  0.00  0.00    +0.000 A 
ATOM     15  C   UNL     1       3.798   6.663  17.803  0.00  0.00    +0.000 A 
ATOM     16  C   UNL     1       3.438   5.841  18.883  0.00  0.00    +0.000 A 
ATOM     17  H   UNL     1       1.286   5.828  21.446  0.00  0.00    +0.000 HD
BRANCH   5  19
ATOM     18  C   UNL     1       4.424   3.460  16.930  0.00  0.00    +0.000 C 
ATOM     19  C   UNL     1       5.047   4.034  18.195  0.00  0.00    +0.000 C 
ENDBRANCH   5  19
ENDBRANCH   1  13
BRANCH   3  20
ATOM     20  C   UNL     1      -0.729  10.766  18.154  0.00  0.00    +0.000 C 
ATOM     21  C   UNL     1      -1.800  10.457  17.109  0.00  0.00    +0.000 C 
BRANCH  20  22
ATOM     22  C   UNL     1      -1.317  11.314  19.445  0.00  0.00    +0.000 A 
ATOM     23  C   UNL     1      -2.491  12.087  19.384  0.00  0.00    +0.000 A 
ATOM     24  C   UNL     1      -3.052  12.627  20.540  0.00  0.00    +0.000 A 
ATOM     25  C   UNL     1      -2.443  12.394  21.772  0.00  0.00    +0.000 A 
ATOM     26  C   UNL     1      -1.280  11.626  21.862  0.00  0.00    +0.000 A 
ATOM     27  C   UNL     1      -0.724  11.083  20.700  0.00  0.00    +0.000 A 
BRANCH  25  28
ATOM     28  S   UNL     1      -3.179  13.068  23.228  0.00  0.00    +0.000 S 
ATOM     29  O   UNL     1      -4.034  14.173  22.865  0.00  0.00    +0.000 OA
ATOM     30  O   UNL     1      -3.620  11.991  24.084  0.00  0.00    +0.000 OA
BRANCH  28  31
ATOM     31  N   UNL     1      -1.824  13.731  23.964  0.00  0.00    +0.000 NA
ATOM     32  H   UNL     1      -1.858  13.605  24.973  0.00  0.00    +0.000 HD
ATOM     33  H   UNL     1      -0.973  13.406  23.511  0.00  0.00    +0.000 HD
ENDBRANCH  28  31
ENDBRANCH  25  28
ENDBRANCH  20  22
ENDBRANCH   3  20
TORSDOF 6
ENDMDL
MODEL 8
REMARK VINA RESULT:      -7.8      3.024      3.595
REMARK  Name = 
REMARK  8 active torsions:
REMARK  status: ('A' for Active; 'I' for Inactive)
REMARK    1  A    between atoms: C_1  and  C_2
REMARK    2  A    between atoms: C_2  and  N_3
REMARK    3  A    between atoms: C_11  and  C_12
REMARK    4  A    between atoms: N_14  and  C_15
REMARK    5  A    between atoms: C_15  and  C_16
REMARK    6  A    between atoms: C_15  and  C_17
REMARK    7  A    between atoms: C_20  and  S_21
REMARK    8  A    between atoms: S_21  and  N_22
REMARK                            x       y       z     vdW  Elec       q    Type
REMARK                         _______ _______ _______ _____ _____    ______ ____
ROOT
ATOM      1  C   UNL     1       1.113   9.808  19.181  0.00  0.00    +0.000 C 
ATOM      2  O   UNL     1       1.826  10.557  18.524  0.00  0.00    +0.000 OA
ATOM      3  N   UNL     1      -0.098  10.184  19.725  0.00  0.00    +0.000 N 
ATOM      4  H   UNL     1      -0.727   9.471  20.066  0.00  0.00    +0.000 HD
ENDROOT
BRANCH   1  13
ATOM      5  N   UNL     1       2.964   4.431  19.962  0.00  0.00    +0.000 N 
ATOM      6  C   UNL     1       3.825   3.845  19.022  0.00  0.00    +0.000 A 
ATOM      7  O   UNL     1       4.337   2.738  19.164  0.00  0.00    +0.000 OA
ATOM      8  C   UNL     1       4.137   4.651  17.746  0.00  0.00    +0.000 A 
ATOM      9  O   UNL     1       4.864   4.199  16.870  0.00  0.00    +0.000 OA
ATOM     10  N   UNL     1       3.579   5.892  17.634  0.00  0.00    +0.000 N 
ATOM     11  C   UNL     1       2.772   6.467  18.621  0.00  0.00    +0.000 A 
ATOM     12  C   UNL     1       2.310   7.772  18.421  0.00  0.00    +0.000 A 
ATOM     13  C   UNL     1       1.534   8.398  19.401  0.00  0.00    +0.000 A 
ATOM     14  C   UNL     1       1.226   7.710  20.576  0.00  0.00    +0.000 A 
ATOM     15  C   UNL     1       1.673   6.395  20.757  0.00  0.00    +0.000 A 
ATOM     16  C   UNL     1       2.461   5.755  19.787  0.00  0.00    +0.000 A 
ATOM     17  H   UNL     1       3.818   6.406  16.798  0.00  0.00    +0.000 HD
BRANCH   5  19
ATOM     18  C   UNL     1       1.432   2.844  21.075  0.00  0.00    +0.000 C 
ATOM     19  C   UNL     1       2.701   3.678  21.185  0.00  0.00    +0.000 C 
ENDBRANCH   5  19
ENDBRANCH   1  13
BRANCH   3  20
ATOM     20  C   UNL     1      -0.645  11.513  19.497  0.00  0.00    +0.000 C 
ATOM     21  C   UNL     1      -1.389  11.571  18.163  0.00  0.00    +0.000 C 
BRANCH  20  22
ATOM     22  C   UNL     1      -1.516  11.942  20.667  0.00  0.00    +0.000 A 
ATOM     23  C   UNL     1      -2.696  12.663  20.409  0.00  0.00    +0.000 A 
ATOM     24  C   UNL     1      -3.513  13.095  21.453  0.00  0.00    +0.000 A 
ATOM     25  C   UNL     1      -3.155  12.805  22.769  0.00  0.00    +0.000 A 
ATOM     26  C   UNL     1      -1.992  12.087  23.053  0.00  0.00    +0.000 A 
ATOM     27  C   UNL     1      -1.179  11.652  22.002  0.00  0.00    +0.000 A 
BRANCH  25  28
ATOM     28  S   UNL     1      -4.212  13.341  24.078  0.00  0.00    +0.000 S 
ATOM     29  O   UNL     1      -3.439  14.092  25.039  0.00  0.00    +0.000 OA
ATOM     30  O   UNL     1      -5.450  13.833  23.521  0.00  0.00    +0.000 OA
BRANCH  28  31
ATOM     31  N   UNL     1      -4.568  11.866  24.794  0.00  0.00    +0.000 NA
ATOM     32  H   UNL     1      -5.143  11.293  24.182  0.00  0.00    +0.000 HD
ATOM     33  H   UNL     1      -3.721  11.421  25.142  0.00  0.00    +0.000 HD
ENDBRANCH  28  31
ENDBRANCH  25  28
ENDBRANCH  20  22
ENDBRANCH   3  20
TORSDOF 6
ENDMDL
MODEL 9
REMARK VINA RESULT:      -7.8      2.041      3.166
REMARK  Name = 
REMARK  8 active torsions:
REMARK  status: ('A' for Active; 'I' for Inactive)
REMARK    1  A    between atoms: C_1  and  C_2
REMARK    2  A    between atoms: C_2  and  N_3
REMARK    3  A    between atoms: C_11  and  C_12
REMARK    4  A    between atoms: N_14  and  C_15
REMARK    5  A    between atoms: C_15  and  C_16
REMARK    6  A    between atoms: C_15  and  C_17
REMARK    7  A    between atoms: C_20  and  S_21
REMARK    8  A    between atoms: S_21  and  N_22
REMARK                            x       y       z     vdW  Elec       q    Type
REMARK                         _______ _______ _______ _____ _____    ______ ____
ROOT
ATOM      1  C   UNL     1       0.738  10.189  20.053  0.00  0.00    +0.000 C 
ATOM      2  O   UNL     1       0.717  10.535  21.228  0.00  0.00    +0.000 OA
ATOM      3  N   UNL     1       0.201  10.933  19.024  0.00  0.00    +0.000 N 
ATOM      4  H   UNL     1       0.438  10.699  18.070  0.00  0.00    +0.000 HD
ENDROOT
BRANCH   1  13
ATOM      5  N   UNL     1       3.094   5.134  18.691  0.00  0.00    +0.000 N 
ATOM      6  C   UNL     1       3.039   4.069  19.603  0.00  0.00    +0.000 A 
ATOM      7  O   UNL     1       3.435   2.935  19.351  0.00  0.00    +0.000 OA
ATOM      8  C   UNL     1       2.444   4.357  20.996  0.00  0.00    +0.000 A 
ATOM      9  O   UNL     1       2.380   3.485  21.852  0.00  0.00    +0.000 OA
ATOM     10  N   UNL     1       1.982   5.620  21.232  0.00  0.00    +0.000 N 
ATOM     11  C   UNL     1       1.999   6.640  20.276  0.00  0.00    +0.000 A 
ATOM     12  C   UNL     1       1.438   7.875  20.616  0.00  0.00    +0.000 A 
ATOM     13  C   UNL     1       1.398   8.910  19.676  0.00  0.00    +0.000 A 
ATOM     14  C   UNL     1       1.923   8.697  18.401  0.00  0.00    +0.000 A 
ATOM     15  C   UNL     1       2.504   7.465  18.077  0.00  0.00    +0.000 A 
ATOM     16  C   UNL     1       2.544   6.413  19.006  0.00  0.00    +0.000 A 
ATOM     17  H   UNL     1       1.577   5.774  22.146  0.00  0.00    +0.000 HD
BRANCH   5  19
ATOM     18  C   UNL     1       5.126   5.091  17.287  0.00  0.00    +0.000 C 
ATOM     19  C   UNL     1       3.625   4.846  17.363  0.00  0.00    +0.000 C 
ENDBRANCH   5  19
ENDBRANCH   1  13
BRANCH   3  20
ATOM     20  C   UNL     1      -0.391  12.240  19.270  0.00  0.00    +0.000 C 
ATOM     21  C   UNL     1       0.115  13.264  18.254  0.00  0.00    +0.000 C 
BRANCH  20  22
ATOM     22  C   UNL     1      -1.908  12.145  19.293  0.00  0.00    +0.000 A 
ATOM     23  C   UNL     1      -2.567  11.504  18.228  0.00  0.00    +0.000 A 
ATOM     24  C   UNL     1      -3.958  11.414  18.199  0.00  0.00    +0.000 A 
ATOM     25  C   UNL     1      -4.703  11.964  19.240  0.00  0.00    +0.000 A 
ATOM     26  C   UNL     1      -4.075  12.601  20.312  0.00  0.00    +0.000 A 
ATOM     27  C   UNL     1      -2.680  12.685  20.339  0.00  0.00    +0.000 A 
BRANCH  25  28
ATOM     28  S   UNL     1      -6.463  11.823  19.197  0.00  0.00    +0.000 S 
ATOM     29  O   UNL     1      -7.040  13.114  18.906  0.00  0.00    +0.000 OA
ATOM     30  O   UNL     1      -6.828  10.627  18.475  0.00  0.00    +0.000 OA
BRANCH  28  31
ATOM     31  N   UNL     1      -6.774  11.511  20.816  0.00  0.00    +0.000 NA
ATOM     32  H   UNL     1      -5.909  11.383  21.336  0.00  0.00    +0.000 HD
ATOM     33  H   UNL     1      -7.417  12.201  21.198  0.00  0.00    +0.000 HD
ENDBRANCH  28  31
ENDBRANCH  25  28
ENDBRANCH  20  22
ENDBRANCH   3  20
TORSDOF 6
ENDMDL
