MODEL 1
REMARK VINA RESULT:      -7.5      0.000      0.000
REMARK  Name = 
REMARK  6 active torsions:
REMARK  status: ('A' for Active; 'I' for Inactive)
REMARK    1  A    between atoms: C_1  and  O_2
REMARK    2  A    between atoms: O_2  and  C_3
REMARK    3  A    between atoms: C_6  and  O_7
REMARK    4  A    between atoms: O_7  and  C_8
REMARK    5  A    between atoms: C_8  and  C_9
REMARK    6  A    between atoms: C_8  and  C_10
REMARK                            x       y       z     vdW  Elec       q    Type
REMARK                         _______ _______ _______ _____ _____    ______ ____
ROOT
ATOM      1  C   UNL     1       6.722   5.681  18.372  0.00  0.00    +0.000 C 
ATOM      2  C   UNL     1       7.981   5.848  19.212  0.00  0.00    +0.000 C 
ENDROOT
BRANCH   1   3
ATOM      3  C   UNL     1       7.092   5.797  16.885  0.00  0.00    +0.000 C 
ATOM      4  O   UNL     1       7.768   6.740  16.486  0.00  0.00    +0.000 OA
ATOM      5  N   UNL     1       6.644   4.722  16.140  0.00  0.00    +0.000 N 
ATOM      6  C   UNL     1       6.847   4.634  14.787  0.00  0.00    +0.000 A 
ATOM      7  N   UNL     1       7.471   5.458  13.982  0.00  0.00    +0.000 NA
ATOM      8  C   UNL     1       7.342   4.877  12.754  0.00  0.00    +0.000 A 
ATOM      9  N   UNL     1       6.676   3.720  12.743  0.00  0.00    +0.000 NA
ATOM     10  N   UNL     1       6.372   3.584  14.044  0.00  0.00    +0.000 N 
ATOM     11  H   UNL     1       6.082   4.030  16.622  0.00  0.00    +0.000 HD
ATOM     12  H   UNL     1       5.855   2.771  14.349  0.00  0.00    +0.000 HD
ENDBRANCH   1   3
BRANCH   1  13
ATOM     13  O   UNL     1       6.187   4.372  18.620  0.00  0.00    +0.000 OA
BRANCH  13  17
ATOM     14  C   UNL     1       2.407   3.902  20.317  0.00  0.00    +0.000 A 
ATOM     15  C   UNL     1       3.218   2.812  20.003  0.00  0.00    +0.000 A 
ATOM     16  C   UNL     1       4.480   3.010  19.436  0.00  0.00    +0.000 A 
ATOM     17  C   UNL     1       4.930   4.298  19.149  0.00  0.00    +0.000 A 
ATOM     18  C   UNL     1       4.120   5.390  19.461  0.00  0.00    +0.000 A 
ATOM     19  C   UNL     1       2.855   5.191  20.034  0.00  0.00    +0.000 A 
BRANCH  14  21
ATOM     20  C   UNL     1       1.217   2.600  21.889  0.00  0.00    +0.000 C 
ATOM     21  O   UNL     1       1.194   3.588  20.865  0.00  0.00    +0.000 OA
ENDBRANCH  14  21
ENDBRANCH  13  17
ENDBRANCH   1  13
TORSDOF 4
ENDMDL
MODEL 2
REMARK VINA RESULT:      -7.1      2.274      3.802
REMARK  Name = 
REMARK  6 active torsions:
REMARK  status: ('A' for Active; 'I' for Inactive)
REMARK    1  A    between atoms: C_1  and  O_2
REMARK    2  A    between atoms: O_2  and  C_3
REMARK    3  A    between atoms: C_6  and  O_7
REMARK    4  A    between atoms: O_7  and  C_8
REMARK    5  A    between atoms: C_8  and  C_9
REMARK    6  A    between atoms: C_8  and  C_10
REMARK                            x       y       z     vdW  Elec       q    Type
REMARK                         _______ _______ _______ _____ _____    ______ ____
ROOT
ATOM      1  C   UNL     1       5.889   3.989  16.223  0.00  0.00    +0.000 C 
ATOM      2  C   UNL     1       6.423   4.091  14.800  0.00  0.00    +0.000 C 
ENDROOT
BRANCH   1   3
ATOM      3  C   UNL     1       6.748   4.867  17.146  0.00  0.00    +0.000 C 
ATOM      4  O   UNL     1       7.389   4.362  18.061  0.00  0.00    +0.000 OA
ATOM      5  N   UNL     1       6.743   6.197  16.770  0.00  0.00    +0.000 N 
ATOM      6  C   UNL     1       7.427   7.158  17.469  0.00  0.00    +0.000 A 
ATOM      7  N   UNL     1       8.183   7.036  18.533  0.00  0.00    +0.000 NA
ATOM      8  C   UNL     1       8.580   8.313  18.800  0.00  0.00    +0.000 A 
ATOM      9  N   UNL     1       8.123   9.238  17.952  0.00  0.00    +0.000 NA
ATOM     10  N   UNL     1       7.394   8.482  17.114  0.00  0.00    +0.000 N 
ATOM     11  H   UNL     1       6.144   6.455  15.994  0.00  0.00    +0.000 HD
ATOM     12  H   UNL     1       6.916   8.922  16.341  0.00  0.00    +0.000 HD
ENDBRANCH   1   3
BRANCH   1  13
ATOM     13  O   UNL     1       4.540   4.479  16.232  0.00  0.00    +0.000 OA
BRANCH  13  17
ATOM     14  C   UNL     1       2.009   3.679  19.449  0.00  0.00    +0.000 A 
ATOM     15  C   UNL     1       2.100   4.947  18.876  0.00  0.00    +0.000 A 
ATOM     16  C   UNL     1       2.959   5.176  17.799  0.00  0.00    +0.000 A 
ATOM     17  C   UNL     1       3.759   4.146  17.303  0.00  0.00    +0.000 A 
ATOM     18  C   UNL     1       3.670   2.877  17.874  0.00  0.00    +0.000 A 
ATOM     19  C   UNL     1       2.805   2.647  18.953  0.00  0.00    +0.000 A 
BRANCH  14  21
ATOM     20  C   UNL     1       1.562   2.735  21.569  0.00  0.00    +0.000 C 
ATOM     21  O   UNL     1       1.139   3.573  20.499  0.00  0.00    +0.000 OA
ENDBRANCH  14  21
ENDBRANCH  13  17
ENDBRANCH   1  13
TORSDOF 4
ENDMDL
MODEL 3
REMARK VINA RESULT:      -7.0      0.730      1.310
REMARK  Name = 
REMARK  6 active torsions:
REMARK  status: ('A' for Active; 'I' for Inactive)
REMARK    1  A    between atoms: C_1  and  O_2
REMARK    2  A    between atoms: O_2  and  C_3
REMARK    3  A    between atoms: C_6  and  O_7
REMARK    4  A    between atoms: O_7  and  C_8
REMARK    5  A    between atoms: C_8  and  C_9
REMARK    6  A    between atoms: C_8  and  C_10
REMARK                            x       y       z     vdW  Elec       q    Type
REMARK                         _______ _______ _______ _____ _____    ______ ____
ROOT
ATOM      1  C   UNL     1       6.806   5.778  18.401  0.00  0.00    +0.000 C 
ATOM      2  C   UNL     1       8.039   6.171  19.204  0.00  0.00    +0.000 C 
ENDROOT
BRANCH   1   3
ATOM      3  C   UNL     1       7.140   5.845  16.902  0.00  0.00    +0.000 C 
ATOM      4  O   UNL     1       7.822   6.764  16.461  0.00  0.00    +0.000 OA
ATOM      5  N   UNL     1       6.653   4.759  16.200  0.00  0.00    +0.000 N 
ATOM      6  C   UNL     1       6.820   4.629  14.845  0.00  0.00    +0.000 A 
ATOM      7  N   UNL     1       7.439   5.418  14.001  0.00  0.00    +0.000 NA
ATOM      8  C   UNL     1       7.268   4.805  12.795  0.00  0.00    +0.000 A 
ATOM      9  N   UNL     1       6.581   3.662  12.833  0.00  0.00    +0.000 NA
ATOM     10  N   UNL     1       6.308   3.568  14.145  0.00  0.00    +0.000 N 
ATOM     11  H   UNL     1       6.091   4.091  16.715  0.00  0.00    +0.000 HD
ATOM     12  H   UNL     1       5.784   2.774  14.485  0.00  0.00    +0.000 HD
ENDBRANCH   1   3
BRANCH   1  13
ATOM     13  O   UNL     1       6.459   4.428  18.742  0.00  0.00    +0.000 OA
BRANCH  13  17
ATOM     14  C   UNL     1       2.415   3.901  19.613  0.00  0.00    +0.000 A 
ATOM     15  C   UNL     1       3.047   5.136  19.752  0.00  0.00    +0.000 A 
ATOM     16  C   UNL     1       4.404   5.273  19.449  0.00  0.00    +0.000 A 
ATOM     17  C   UNL     1       5.150   4.170  19.034  0.00  0.00    +0.000 A 
ATOM     18  C   UNL     1       4.520   2.933  18.895  0.00  0.00    +0.000 A 
ATOM     19  C   UNL     1       3.157   2.797  19.195  0.00  0.00    +0.000 A 
BRANCH  14  21
ATOM     20  C   UNL     1       0.327   2.819  19.379  0.00  0.00    +0.000 C 
ATOM     21  O   UNL     1       1.087   3.885  19.940  0.00  0.00    +0.000 OA
ENDBRANCH  14  21
ENDBRANCH  13  17
ENDBRANCH   1  13
TORSDOF 4
ENDMDL
MODEL 4
REMARK VINA RESULT:      -7.0      2.451      3.721
REMARK  Name = 
REMARK  6 active torsions:
REMARK  status: ('A' for Active; 'I' for Inactive)
REMARK    1  A    between atoms: C_1  and  O_2
REMARK    2  A    between atoms: O_2  and  C_3
REMARK    3  A    between atoms: C_6  and  O_7
REMARK    4  A    between atoms: O_7  and  C_8
REMARK    5  A    between atoms: C_8  and  C_9
REMARK    6  A    between atoms: C_8  and  C_10
REMARK                            x       y       z     vdW  Elec       q    Type
REMARK                         _______ _______ _______ _____ _____    ______ ____
ROOT
ATOM      1  C   UNL     1       5.680   4.283  16.057  0.00  0.00    +0.000 C 
ATOM      2  C   UNL     1       6.071   3.830  14.656  0.00  0.00    +0.000 C 
ENDROOT
BRANCH   1   3
ATOM      3  C   UNL     1       6.111   5.745  16.250  0.00  0.00    +0.000 C 
ATOM      4  O   UNL     1       5.661   6.624  15.524  0.00  0.00    +0.000 OA
ATOM      5  N   UNL     1       6.959   5.910  17.330  0.00  0.00    +0.000 N 
ATOM      6  C   UNL     1       7.480   7.132  17.669  0.00  0.00    +0.000 A 
ATOM      7  N   UNL     1       7.291   8.304  17.114  0.00  0.00    +0.000 NA
ATOM      8  C   UNL     1       8.072   9.145  17.851  0.00  0.00    +0.000 A 
ATOM      9  N   UNL     1       8.739   8.567  18.852  0.00  0.00    +0.000 NA
ATOM     10  N   UNL     1       8.347   7.289  18.719  0.00  0.00    +0.000 N 
ATOM     11  H   UNL     1       7.249   5.073  17.821  0.00  0.00    +0.000 HD
ATOM     12  H   UNL     1       8.699   6.595  19.364  0.00  0.00    +0.000 HD
ENDBRANCH   1   3
BRANCH   1  13
ATOM     13  O   UNL     1       4.252   4.196  16.175  0.00  0.00    +0.000 OA
BRANCH  13  17
ATOM     14  C   UNL     1       2.948   3.028  19.960  0.00  0.00    +0.000 A 
ATOM     15  C   UNL     1       4.285   2.928  19.574  0.00  0.00    +0.000 A 
ATOM     16  C   UNL     1       4.683   3.331  18.297  0.00  0.00    +0.000 A 
ATOM     17  C   UNL     1       3.745   3.808  17.383  0.00  0.00    +0.000 A 
ATOM     18  C   UNL     1       2.408   3.909  17.766  0.00  0.00    +0.000 A 
ATOM     19  C   UNL     1       2.008   3.509  19.050  0.00  0.00    +0.000 A 
BRANCH  14  21
ATOM     20  C   UNL     1       1.309   2.683  21.626  0.00  0.00    +0.000 C 
ATOM     21  O   UNL     1       2.674   2.603  21.231  0.00  0.00    +0.000 OA
ENDBRANCH  14  21
ENDBRANCH  13  17
ENDBRANCH   1  13
TORSDOF 4
ENDMDL
MODEL 5
REMARK VINA RESULT:      -7.0      2.320      3.687
REMARK  Name = 
REMARK  6 active torsions:
REMARK  status: ('A' for Active; 'I' for Inactive)
REMARK    1  A    between atoms: C_1  and  O_2
REMARK    2  A    between atoms: O_2  and  C_3
REMARK    3  A    between atoms: C_6  and  O_7
REMARK    4  A    between atoms: O_7  and  C_8
REMARK    5  A    between atoms: C_8  and  C_9
REMARK    6  A    between atoms: C_8  and  C_10
REMARK                            x       y       z     vdW  Elec       q    Type
REMARK                         _______ _______ _______ _____ _____    ______ ____
ROOT
ATOM      1  C   UNL     1       5.940   4.005  16.154  0.00  0.00    +0.000 C 
ATOM      2  C   UNL     1       6.455   4.181  14.731  0.00  0.00    +0.000 C 
ENDROOT
BRANCH   1   3
ATOM      3  C   UNL     1       6.780   4.873  17.103  0.00  0.00    +0.000 C 
ATOM      4  O   UNL     1       7.406   4.357  18.023  0.00  0.00    +0.000 OA
ATOM      5  N   UNL     1       6.781   6.208  16.743  0.00  0.00    +0.000 N 
ATOM      6  C   UNL     1       7.450   7.160  17.466  0.00  0.00    +0.000 A 
ATOM      7  N   UNL     1       8.187   7.026  18.542  0.00  0.00    +0.000 NA
ATOM      8  C   UNL     1       8.578   8.301  18.831  0.00  0.00    +0.000 A 
ATOM      9  N   UNL     1       8.135   9.235  17.987  0.00  0.00    +0.000 NA
ATOM     10  N   UNL     1       7.422   8.488  17.127  0.00  0.00    +0.000 N 
ATOM     11  H   UNL     1       6.195   6.474  15.960  0.00  0.00    +0.000 HD
ATOM     12  H   UNL     1       6.957   8.937  16.350  0.00  0.00    +0.000 HD
ENDBRANCH   1   3
BRANCH   1  13
ATOM     13  O   UNL     1       4.576   4.450  16.196  0.00  0.00    +0.000 OA
BRANCH  13  17
ATOM     14  C   UNL     1       2.361   2.895  19.369  0.00  0.00    +0.000 A 
ATOM     15  C   UNL     1       3.085   2.078  18.501  0.00  0.00    +0.000 A 
ATOM     16  C   UNL     1       3.816   2.637  17.450  0.00  0.00    +0.000 A 
ATOM     17  C   UNL     1       3.806   4.015  17.237  0.00  0.00    +0.000 A 
ATOM     18  C   UNL     1       3.082   4.835  18.104  0.00  0.00    +0.000 A 
ATOM     19  C   UNL     1       2.351   4.274  19.161  0.00  0.00    +0.000 A 
BRANCH  14  21
ATOM     20  C   UNL     1       1.554   2.944  21.589  0.00  0.00    +0.000 C 
ATOM     21  O   UNL     1       1.682   2.239  20.359  0.00  0.00    +0.000 OA
ENDBRANCH  14  21
ENDBRANCH  13  17
ENDBRANCH   1  13
TORSDOF 4
ENDMDL
MODEL 6
REMARK VINA RESULT:      -6.8      4.596      7.435
REMARK  Name = 
REMARK  6 active torsions:
REMARK  status: ('A' for Active; 'I' for Inactive)
REMARK    1  A    between atoms: C_1  and  O_2
REMARK    2  A    between atoms: O_2  and  C_3
REMARK    3  A    between atoms: C_6  and  O_7
REMARK    4  A    between atoms: O_7  and  C_8
REMARK    5  A    between atoms: C_8  and  C_9
REMARK    6  A    between atoms: C_8  and  C_10
REMARK                            x       y       z     vdW  Elec       q    Type
REMARK                         _______ _______ _______ _____ _____    ______ ____
ROOT
ATOM      1  C   UNL     1       2.782   5.203  19.800  0.00  0.00    +0.000 C 
ATOM      2  C   UNL     1       2.201   4.562  21.053  0.00  0.00    +0.000 C 
ENDROOT
BRANCH   1   3
ATOM      3  C   UNL     1       2.284   6.653  19.700  0.00  0.00    +0.000 C 
ATOM      4  O   UNL     1       2.240   7.220  18.614  0.00  0.00    +0.000 OA
ATOM      5  N   UNL     1       1.858   7.153  20.917  0.00  0.00    +0.000 N 
ATOM      6  C   UNL     1       1.394   8.435  21.059  0.00  0.00    +0.000 A 
ATOM      7  N   UNL     1       1.244   9.373  20.156  0.00  0.00    +0.000 NA
ATOM      8  C   UNL     1       0.771  10.438  20.865  0.00  0.00    +0.000 A 
ATOM      9  N   UNL     1       0.604  10.219  22.171  0.00  0.00    +0.000 NA
ATOM     10  N   UNL     1       1.004   8.941  22.272  0.00  0.00    +0.000 N 
ATOM     11  H   UNL     1       1.977   6.557  21.727  0.00  0.00    +0.000 HD
ATOM     12  H   UNL     1       0.983   8.486  23.174  0.00  0.00    +0.000 HD
ENDBRANCH   1   3
BRANCH   1  13
ATOM     13  O   UNL     1       4.212   5.206  19.918  0.00  0.00    +0.000 OA
BRANCH  13  17
ATOM     14  C   UNL     1       6.645   4.748  16.562  0.00  0.00    +0.000 A 
ATOM     15  C   UNL     1       7.123   5.291  17.754  0.00  0.00    +0.000 A 
ATOM     16  C   UNL     1       6.277   5.428  18.857  0.00  0.00    +0.000 A 
ATOM     17  C   UNL     1       4.937   5.051  18.770  0.00  0.00    +0.000 A 
ATOM     18  C   UNL     1       4.456   4.507  17.579  0.00  0.00    +0.000 A 
ATOM     19  C   UNL     1       5.307   4.367  16.472  0.00  0.00    +0.000 A 
BRANCH  14  21
ATOM     20  C   UNL     1       7.032   4.763  14.231  0.00  0.00    +0.000 C 
ATOM     21  O   UNL     1       7.561   4.664  15.549  0.00  0.00    +0.000 OA
ENDBRANCH  14  21
ENDBRANCH  13  17
ENDBRANCH   1  13
TORSDOF 4
ENDMDL
MODEL 7
REMARK VINA RESULT:      -6.8      4.554      7.354
REMARK  Name = 
REMARK  6 active torsions:
REMARK  status: ('A' for Active; 'I' for Inactive)
REMARK    1  A    between atoms: C_1  and  O_2
REMARK    2  A    between atoms: O_2  and  C_3
REMARK    3  A    between atoms: C_6  and  O_7
REMARK    4  A    between atoms: O_7  and  C_8
REMARK    5  A    between atoms: C_8  and  C_9
REMARK    6  A    between atoms: C_8  and  C_10
REMARK                            x       y       z     vdW  Elec       q    Type
REMARK                         _______ _______ _______ _____ _____    ______ ____
ROOT
ATOM      1  C   UNL     1       2.775   5.233  19.518  0.00  0.00    +0.000 C 
ATOM      2  C   UNL     1       1.924   4.448  20.507  0.00  0.00    +0.000 C 
ENDROOT
BRANCH   1   3
ATOM      3  C   UNL     1       2.296   6.693  19.491  0.00  0.00    +0.000 C 
ATOM      4  O   UNL     1       2.272   7.318  18.436  0.00  0.00    +0.000 OA
ATOM      5  N   UNL     1       1.862   7.133  20.728  0.00  0.00    +0.000 N 
ATOM      6  C   UNL     1       1.412   8.411  20.934  0.00  0.00    +0.000 A 
ATOM      7  N   UNL     1       1.284   9.398  20.080  0.00  0.00    +0.000 NA
ATOM      8  C   UNL     1       0.816  10.429  20.841  0.00  0.00    +0.000 A 
ATOM      9  N   UNL     1       0.631  10.143  22.131  0.00  0.00    +0.000 NA
ATOM     10  N   UNL     1       1.014   8.856  22.167  0.00  0.00    +0.000 N 
ATOM     11  H   UNL     1       1.964   6.492  21.506  0.00  0.00    +0.000 HD
ATOM     12  H   UNL     1       0.976   8.354  23.044  0.00  0.00    +0.000 HD
ENDBRANCH   1   3
BRANCH   1  13
ATOM     13  O   UNL     1       4.137   5.196  19.969  0.00  0.00    +0.000 OA
BRANCH  13  17
ATOM     14  C   UNL     1       6.914   4.771  16.886  0.00  0.00    +0.000 A 
ATOM     15  C   UNL     1       5.584   4.377  16.744  0.00  0.00    +0.000 A 
ATOM     16  C   UNL     1       4.683   4.537  17.799  0.00  0.00    +0.000 A 
ATOM     17  C   UNL     1       5.110   5.063  19.018  0.00  0.00    +0.000 A 
ATOM     18  C   UNL     1       6.440   5.457  19.164  0.00  0.00    +0.000 A 
ATOM     19  C   UNL     1       7.343   5.301  18.103  0.00  0.00    +0.000 A 
BRANCH  14  21
ATOM     20  C   UNL     1       7.073   4.761  14.529  0.00  0.00    +0.000 C 
ATOM     21  O   UNL     1       7.705   4.566  15.790  0.00  0.00    +0.000 OA
ENDBRANCH  14  21
ENDBRANCH  13  17
ENDBRANCH   1  13
TORSDOF 4
ENDMDL
MODEL 8
REMARK VINA RESULT:      -6.7      2.666      4.071
REMARK  Name = 
REMARK  6 active torsions:
REMARK  status: ('A' for Active; 'I' for Inactive)
REMARK    1  A    between atoms: C_1  and  O_2
REMARK    2  A    between atoms: O_2  and  C_3
REMARK    3  A    between atoms: C_6  and  O_7
REMARK    4  A    between atoms: O_7  and  C_8
REMARK    5  A    between atoms: C_8  and  C_9
REMARK    6  A    between atoms: C_8  and  C_10
REMARK                            x       y       z     vdW  Elec       q    Type
REMARK                         _______ _______ _______ _____ _____    ______ ____
ROOT
ATOM      1  C   UNL     1       4.160   4.045  19.319  0.00  0.00    +0.000 C 
ATOM      2  C   UNL     1       4.375   2.714  20.029  0.00  0.00    +0.000 C 
ENDROOT
BRANCH   1   3
ATOM      3  C   UNL     1       4.598   3.908  17.853  0.00  0.00    +0.000 C 
ATOM      4  O   UNL     1       4.001   3.148  17.096  0.00  0.00    +0.000 OA
ATOM      5  N   UNL     1       5.637   4.759  17.526  0.00  0.00    +0.000 N 
ATOM      6  C   UNL     1       6.196   4.785  16.275  0.00  0.00    +0.000 A 
ATOM      7  N   UNL     1       5.883   4.093  15.207  0.00  0.00    +0.000 NA
ATOM      8  C   UNL     1       6.780   4.515  14.270  0.00  0.00    +0.000 A 
ATOM      9  N   UNL     1       7.639   5.448  14.687  0.00  0.00    +0.000 NA
ATOM     10  N   UNL     1       7.249   5.606  15.962  0.00  0.00    +0.000 N 
ATOM     11  H   UNL     1       6.030   5.315  18.277  0.00  0.00    +0.000 HD
ATOM     12  H   UNL     1       7.730   6.275  16.547  0.00  0.00    +0.000 HD
ENDBRANCH   1   3
BRANCH   1  13
ATOM     13  O   UNL     1       2.760   4.356  19.362  0.00  0.00    +0.000 OA
BRANCH  13  17
ATOM     14  C   UNL     1       1.695   8.384  19.543  0.00  0.00    +0.000 A 
ATOM     15  C   UNL     1       1.528   7.525  20.629  0.00  0.00    +0.000 A 
ATOM     16  C   UNL     1       1.898   6.182  20.530  0.00  0.00    +0.000 A 
ATOM     17  C   UNL     1       2.409   5.677  19.335  0.00  0.00    +0.000 A 
ATOM     18  C   UNL     1       2.577   6.534  18.247  0.00  0.00    +0.000 A 
ATOM     19  C   UNL     1       2.209   7.883  18.348  0.00  0.00    +0.000 A 
BRANCH  14  21
ATOM     20  C   UNL     1       1.316  10.521  18.608  0.00  0.00    +0.000 C 
ATOM     21  O   UNL     1       1.296   9.676  19.753  0.00  0.00    +0.000 OA
ENDBRANCH  14  21
ENDBRANCH  13  17
ENDBRANCH   1  13
TORSDOF 4
ENDMDL
MODEL 9
REMARK VINA RESULT:      -6.6      2.697      4.027
REMARK  Name = 
REMARK  6 active torsions:
REMARK  status: ('A' for Active; 'I' for Inactive)
REMARK    1  A    between atoms: C_1  and  O_2
REMARK    2  A    between atoms: O_2  and  C_3
REMARK    3  A    between atoms: C_6  and  O_7
REMARK    4  A    between atoms: O_7  and  C_8
REMARK    5  A    between atoms: C_8  and  C_9
REMARK    6  A    between atoms: C_8  and  C_10
REMARK                            x       y       z     vdW  Elec       q    Type
REMARK                         _______ _______ _______ _____ _____    ______ ____
ROOT
ATOM      1  C   UNL     1       4.151   4.043  19.208  0.00  0.00    +0.000 C 
ATOM      2  C   UNL     1       4.323   2.709  19.922  0.00  0.00    +0.000 C 
ENDROOT
BRANCH   1   3
ATOM      3  C   UNL     1       4.620   3.898  17.752  0.00  0.00    +0.000 C 
ATOM      4  O   UNL     1       4.058   3.113  16.995  0.00  0.00    +0.000 OA
ATOM      5  N   UNL     1       5.643   4.772  17.434  0.00  0.00    +0.000 N 
ATOM      6  C   UNL     1       6.225   4.796  16.193  0.00  0.00    +0.000 A 
ATOM      7  N   UNL     1       5.952   4.081  15.129  0.00  0.00    +0.000 NA
ATOM      8  C   UNL     1       6.855   4.514  14.203  0.00  0.00    +0.000 A 
ATOM      9  N   UNL     1       7.681   5.475  14.624  0.00  0.00    +0.000 NA
ATOM     10  N   UNL     1       7.262   5.640  15.889  0.00  0.00    +0.000 N 
ATOM     11  H   UNL     1       6.007   5.348  18.184  0.00  0.00    +0.000 HD
ATOM     12  H   UNL     1       7.715   6.329  16.474  0.00  0.00    +0.000 HD
ENDBRANCH   1   3
BRANCH   1  13
ATOM     13  O   UNL     1       2.756   4.381  19.218  0.00  0.00    +0.000 OA
BRANCH  13  17
ATOM     14  C   UNL     1       1.736   8.422  19.375  0.00  0.00    +0.000 A 
ATOM     15  C   UNL     1       2.193   7.819  18.204  0.00  0.00    +0.000 A 
ATOM     16  C   UNL     1       2.524   6.462  18.191  0.00  0.00    +0.000 A 
ATOM     17  C   UNL     1       2.431   5.701  19.356  0.00  0.00    +0.000 A 
ATOM     18  C   UNL     1       1.974   6.302  20.529  0.00  0.00    +0.000 A 
ATOM     19  C   UNL     1       1.638   7.663  20.541  0.00  0.00    +0.000 A 
BRANCH  14  21
ATOM     20  C   UNL     1       0.065  10.093  19.373  0.00  0.00    +0.000 C 
ATOM     21  O   UNL     1       1.444   9.754  19.271  0.00  0.00    +0.000 OA
ENDBRANCH  14  21
ENDBRANCH  13  17
ENDBRANCH   1  13
TORSDOF 4
ENDMDL
