MODEL 1
REMARK VINA RESULT:      -8.3      0.000      0.000
REMARK  Name = 
REMARK  5 active torsions:
REMARK  status: ('A' for Active; 'I' for Inactive)
REMARK    1  A    between atoms: C_2  and  O_3
REMARK    2  A    between atoms: C_2  and  C_4
REMARK    3  A    between atoms: C_4  and  C_5
REMARK    4  A    between atoms: N_7  and  C_8
REMARK    5  A    between atoms: C_8  and  C_9
REMARK                            x       y       z     vdW  Elec       q    Type
REMARK                         _______ _______ _______ _____ _____    ______ ____
ROOT
ATOM      1  C   UNL     1       2.952   6.027  18.471  0.00  0.00    +0.000 A 
ATOM      2  N   UNL     1       4.181   6.223  18.090  0.00  0.00    +0.000 NA
ATOM      3  N   UNL     1       5.136   5.266  18.379  0.00  0.00    +0.000 N 
ATOM      4  C   UNL     1       4.894   4.135  19.151  0.00  0.00    +0.000 A 
ATOM      5  O   UNL     1       5.745   3.294  19.424  0.00  0.00    +0.000 OA
ATOM      6  C   UNL     1       3.514   3.940  19.614  0.00  0.00    +0.000 A 
ATOM      7  C   UNL     1       3.210   2.860  20.452  0.00  0.00    +0.000 A 
ATOM      8  C   UNL     1       1.895   2.643  20.853  0.00  0.00    +0.000 A 
ATOM      9  C   UNL     1       0.879   3.463  20.364  0.00  0.00    +0.000 A 
ATOM     10  C   UNL     1       1.184   4.535  19.518  0.00  0.00    +0.000 A 
ATOM     11  C   UNL     1       2.517   4.810  19.196  0.00  0.00    +0.000 A 
ENDROOT
BRANCH   1  12
ATOM     12  C   UNL     1       1.952   7.130  18.173  0.00  0.00    +0.000 C 
BRANCH  12  14
ATOM     13  O   UNL     1       1.491   9.362  18.937  0.00  0.00    +0.000 OA
ATOM     14  C   UNL     1       1.855   8.222  19.205  0.00  0.00    +0.000 C 
BRANCH  14  15
ATOM     15  O   UNL     1       2.197   7.848  20.450  0.00  0.00    +0.000 OA
ATOM     16  H   UNL     1       1.451   7.642  21.041  0.00  0.00    +0.000 HD
ENDBRANCH  14  15
ENDBRANCH  12  14
ENDBRANCH   1  12
BRANCH   3  17
ATOM     17  C   UNL     1       6.468   5.427  17.784  0.00  0.00    +0.000 C 
BRANCH  17  18
ATOM     18  C   UNL     1       6.513   5.063  16.325  0.00  0.00    +0.000 A 
ATOM     19  N   UNL     1       7.469   5.476  15.518  0.00  0.00    +0.000 NA
ATOM     20  C   UNL     1       7.265   5.008  14.231  0.00  0.00    +0.000 A 
ATOM     21  C   UNL     1       8.033   5.324  13.091  0.00  0.00    +0.000 A 
ATOM     22  F   UNL     1       9.079   6.158  13.185  0.00  0.00    +0.000 F 
ATOM     23  C   UNL     1       7.715   4.788  11.841  0.00  0.00    +0.000 A 
ATOM     24  C   UNL     1       6.662   3.894  11.724  0.00  0.00    +0.000 A 
ATOM     25  C   UNL     1       5.890   3.557  12.841  0.00  0.00    +0.000 A 
ATOM     26  F   UNL     1       4.881   2.689  12.701  0.00  0.00    +0.000 F 
ATOM     27  C   UNL     1       6.180   4.143  14.081  0.00  0.00    +0.000 A 
ATOM     28  S   UNL     1       5.370   3.998  15.602  0.00  0.00    +0.000 S 
ENDBRANCH  17  18
ENDBRANCH   3  17
TORSDOF 5
ENDMDL
MODEL 2
REMARK VINA RESULT:      -8.2      1.655      3.550
REMARK  Name = 
REMARK  5 active torsions:
REMARK  status: ('A' for Active; 'I' for Inactive)
REMARK    1  A    between atoms: C_2  and  O_3
REMARK    2  A    between atoms: C_2  and  C_4
REMARK    3  A    between atoms: C_4  and  C_5
REMARK    4  A    between atoms: N_7  and  C_8
REMARK    5  A    between atoms: C_8  and  C_9
REMARK                            x       y       z     vdW  Elec       q    Type
REMARK                         _______ _______ _______ _____ _____    ______ ____
ROOT
ATOM      1  C   UNL     1       4.210   3.598  19.727  0.00  0.00    +0.000 A 
ATOM      2  N   UNL     1       5.283   3.586  18.992  0.00  0.00    +0.000 NA
ATOM      3  N   UNL     1       5.659   4.739  18.330  0.00  0.00    +0.000 N 
ATOM      4  C   UNL     1       4.903   5.906  18.312  0.00  0.00    +0.000 A 
ATOM      5  O   UNL     1       5.225   6.925  17.709  0.00  0.00    +0.000 OA
ATOM      6  C   UNL     1       3.670   5.901  19.109  0.00  0.00    +0.000 A 
ATOM      7  C   UNL     1       2.824   7.017  19.084  0.00  0.00    +0.000 A 
ATOM      8  C   UNL     1       1.679   7.036  19.877  0.00  0.00    +0.000 A 
ATOM      9  C   UNL     1       1.420   5.974  20.741  0.00  0.00    +0.000 A 
ATOM     10  C   UNL     1       2.272   4.865  20.773  0.00  0.00    +0.000 A 
ATOM     11  C   UNL     1       3.367   4.804  19.904  0.00  0.00    +0.000 A 
ENDROOT
BRANCH   1  12
ATOM     12  C   UNL     1       3.813   2.293  20.393  0.00  0.00    +0.000 C 
BRANCH  12  14
ATOM     13  O   UNL     1       5.622   1.304  21.631  0.00  0.00    +0.000 OA
ATOM     14  C   UNL     1       4.929   1.307  20.619  0.00  0.00    +0.000 C 
BRANCH  14  15
ATOM     15  O   UNL     1       5.107   0.425  19.621  0.00  0.00    +0.000 OA
ATOM     16  H   UNL     1       5.491   0.793  18.805  0.00  0.00    +0.000 HD
ENDBRANCH  14  15
ENDBRANCH  12  14
ENDBRANCH   1  12
BRANCH   3  17
ATOM     17  C   UNL     1       6.963   4.749  17.657  0.00  0.00    +0.000 C 
BRANCH  17  18
ATOM     18  C   UNL     1       6.862   4.580  16.166  0.00  0.00    +0.000 A 
ATOM     19  N   UNL     1       7.696   5.159  15.327  0.00  0.00    +0.000 NA
ATOM     20  C   UNL     1       7.372   4.849  14.016  0.00  0.00    +0.000 A 
ATOM     21  C   UNL     1       7.988   5.362  12.855  0.00  0.00    +0.000 A 
ATOM     22  F   UNL     1       8.992   6.246  12.951  0.00  0.00    +0.000 F 
ATOM     23  C   UNL     1       7.559   4.971  11.585  0.00  0.00    +0.000 A 
ATOM     24  C   UNL     1       6.549   4.029  11.458  0.00  0.00    +0.000 A 
ATOM     25  C   UNL     1       5.929   3.499  12.595  0.00  0.00    +0.000 A 
ATOM     26  F   UNL     1       4.959   2.589  12.445  0.00  0.00    +0.000 F 
ATOM     27  C   UNL     1       6.326   3.938  13.865  0.00  0.00    +0.000 A 
ATOM     28  S   UNL     1       5.703   3.542  15.429  0.00  0.00    +0.000 S 
ENDBRANCH  17  18
ENDBRANCH   3  17
TORSDOF 5
ENDMDL
MODEL 3
REMARK VINA RESULT:      -7.9      4.158      7.784
REMARK  Name = 
REMARK  5 active torsions:
REMARK  status: ('A' for Active; 'I' for Inactive)
REMARK    1  A    between atoms: C_2  and  O_3
REMARK    2  A    between atoms: C_2  and  C_4
REMARK    3  A    between atoms: C_4  and  C_5
REMARK    4  A    between atoms: N_7  and  C_8
REMARK    5  A    between atoms: C_8  and  C_9
REMARK                            x       y       z     vdW  Elec       q    Type
REMARK                         _______ _______ _______ _____ _____    ______ ____
ROOT
ATOM      1  C   UNL     1       6.360   5.698  18.249  0.00  0.00    +0.000 A 
ATOM      2  N   UNL     1       5.375   5.861  19.084  0.00  0.00    +0.000 NA
ATOM      3  N   UNL     1       4.118   5.403  18.740  0.00  0.00    +0.000 N 
ATOM      4  C   UNL     1       3.801   4.861  17.499  0.00  0.00    +0.000 A 
ATOM      5  O   UNL     1       2.680   4.471  17.185  0.00  0.00    +0.000 OA
ATOM      6  C   UNL     1       4.907   4.717  16.544  0.00  0.00    +0.000 A 
ATOM      7  C   UNL     1       4.650   4.241  15.252  0.00  0.00    +0.000 A 
ATOM      8  C   UNL     1       5.703   4.057  14.360  0.00  0.00    +0.000 A 
ATOM      9  C   UNL     1       7.013   4.283  14.781  0.00  0.00    +0.000 A 
ATOM     10  C   UNL     1       7.268   4.747  16.075  0.00  0.00    +0.000 A 
ATOM     11  C   UNL     1       6.202   5.026  16.937  0.00  0.00    +0.000 A 
ENDROOT
BRANCH   1  12
ATOM     12  C   UNL     1       7.710   6.262  18.653  0.00  0.00    +0.000 C 
BRANCH  12  14
ATOM     13  O   UNL     1       7.538   8.134  17.152  0.00  0.00    +0.000 OA
ATOM     14  C   UNL     1       7.999   7.665  18.188  0.00  0.00    +0.000 C 
BRANCH  14  15
ATOM     15  O   UNL     1       8.805   8.370  19.001  0.00  0.00    +0.000 OA
ATOM     16  H   UNL     1       9.294   7.844  19.659  0.00  0.00    +0.000 HD
ENDBRANCH  14  15
ENDBRANCH  12  14
ENDBRANCH   1  12
BRANCH   3  17
ATOM     17  C   UNL     1       3.071   5.438  19.768  0.00  0.00    +0.000 C 
BRANCH  17  18
ATOM     18  C   UNL     1       2.342   6.752  19.826  0.00  0.00    +0.000 A 
ATOM     19  N   UNL     1       1.674   7.149  20.890  0.00  0.00    +0.000 NA
ATOM     20  C   UNL     1       1.089   8.385  20.674  0.00  0.00    +0.000 A 
ATOM     21  C   UNL     1       0.228   9.073  21.555  0.00  0.00    +0.000 A 
ATOM     22  F   UNL     1      -0.105   8.536  22.738  0.00  0.00    +0.000 F 
ATOM     23  C   UNL     1      -0.303  10.317  21.211  0.00  0.00    +0.000 A 
ATOM     24  C   UNL     1       0.056  10.912  20.011  0.00  0.00    +0.000 A 
ATOM     25  C   UNL     1       0.915  10.254  19.124  0.00  0.00    +0.000 A 
ATOM     26  F   UNL     1       1.248  10.852  17.973  0.00  0.00    +0.000 F 
ATOM     27  C   UNL     1       1.400   8.981  19.450  0.00  0.00    +0.000 A 
ATOM     28  S   UNL     1       2.392   7.896  18.539  0.00  0.00    +0.000 S 
ENDBRANCH  17  18
ENDBRANCH   3  17
TORSDOF 5
ENDMDL
MODEL 4
REMARK VINA RESULT:      -7.8      1.696      3.211
REMARK  Name = 
REMARK  5 active torsions:
REMARK  status: ('A' for Active; 'I' for Inactive)
REMARK    1  A    between atoms: C_2  and  O_3
REMARK    2  A    between atoms: C_2  and  C_4
REMARK    3  A    between atoms: C_4  and  C_5
REMARK    4  A    between atoms: N_7  and  C_8
REMARK    5  A    between atoms: C_8  and  C_9
REMARK                            x       y       z     vdW  Elec       q    Type
REMARK                         _______ _______ _______ _____ _____    ______ ____
ROOT
ATOM      1  C   UNL     1       3.933   3.964  19.574  0.00  0.00    +0.000 A 
ATOM      2  N   UNL     1       5.024   3.809  18.882  0.00  0.00    +0.000 NA
ATOM      3  N   UNL     1       5.556   4.893  18.210  0.00  0.00    +0.000 N 
ATOM      4  C   UNL     1       4.942   6.138  18.136  0.00  0.00    +0.000 A 
ATOM      5  O   UNL     1       5.403   7.097  17.523  0.00  0.00    +0.000 OA
ATOM      6  C   UNL     1       3.688   6.297  18.883  0.00  0.00    +0.000 A 
ATOM      7  C   UNL     1       2.979   7.502  18.799  0.00  0.00    +0.000 A 
ATOM      8  C   UNL     1       1.816   7.674  19.545  0.00  0.00    +0.000 A 
ATOM      9  C   UNL     1       1.402   6.672  20.422  0.00  0.00    +0.000 A 
ATOM     10  C   UNL     1       2.118   5.474  20.512  0.00  0.00    +0.000 A 
ATOM     11  C   UNL     1       3.230   5.264  19.689  0.00  0.00    +0.000 A 
ENDROOT
BRANCH   1  12
ATOM     12  C   UNL     1       3.363   2.732  20.252  0.00  0.00    +0.000 C 
BRANCH  12  14
ATOM     13  O   UNL     1       1.120   1.970  19.840  0.00  0.00    +0.000 OA
ATOM     14  C   UNL     1       2.294   1.998  19.486  0.00  0.00    +0.000 C 
BRANCH  14  15
ATOM     15  O   UNL     1       2.728   1.372  18.379  0.00  0.00    +0.000 OA
ATOM     16  H   UNL     1       2.669   1.894  17.558  0.00  0.00    +0.000 HD
ENDBRANCH  14  15
ENDBRANCH  12  14
ENDBRANCH   1  12
BRANCH   3  17
ATOM     17  C   UNL     1       6.877   4.733  17.590  0.00  0.00    +0.000 C 
BRANCH  17  18
ATOM     18  C   UNL     1       6.814   4.567  16.097  0.00  0.00    +0.000 A 
ATOM     19  N   UNL     1       7.664   5.154  15.279  0.00  0.00    +0.000 NA
ATOM     20  C   UNL     1       7.375   4.843  13.961  0.00  0.00    +0.000 A 
ATOM     21  C   UNL     1       8.015   5.363  12.816  0.00  0.00    +0.000 A 
ATOM     22  F   UNL     1       9.009   6.255  12.938  0.00  0.00    +0.000 F 
ATOM     23  C   UNL     1       7.621   4.971  11.535  0.00  0.00    +0.000 A 
ATOM     24  C   UNL     1       6.622   4.022  11.382  0.00  0.00    +0.000 A 
ATOM     25  C   UNL     1       5.978   3.484  12.502  0.00  0.00    +0.000 A 
ATOM     26  F   UNL     1       5.019   2.567  12.326  0.00  0.00    +0.000 F 
ATOM     27  C   UNL     1       6.340   3.924  13.782  0.00  0.00    +0.000 A 
ATOM     28  S   UNL     1       5.681   3.521  15.329  0.00  0.00    +0.000 S 
ENDBRANCH  17  18
ENDBRANCH   3  17
TORSDOF 5
ENDMDL
MODEL 5
REMARK VINA RESULT:      -7.8      1.731      3.378
REMARK  Name = 
REMARK  5 active torsions:
REMARK  status: ('A' for Active; 'I' for Inactive)
REMARK    1  A    between atoms: C_2  and  O_3
REMARK    2  A    between atoms: C_2  and  C_4
REMARK    3  A    between atoms: C_4  and  C_5
REMARK    4  A    between atoms: N_7  and  C_8
REMARK    5  A    between atoms: C_8  and  C_9
REMARK                            x       y       z     vdW  Elec       q    Type
REMARK                         _______ _______ _______ _____ _____    ______ ____
ROOT
ATOM      1  C   UNL     1       3.250   5.330  19.769  0.00  0.00    +0.000 A 
ATOM      2  N   UNL     1       4.279   4.724  19.250  0.00  0.00    +0.000 NA
ATOM      3  N   UNL     1       4.995   5.351  18.248  0.00  0.00    +0.000 N 
ATOM      4  C   UNL     1       4.628   6.562  17.673  0.00  0.00    +0.000 A 
ATOM      5  O   UNL     1       5.252   7.111  16.769  0.00  0.00    +0.000 OA
ATOM      6  C   UNL     1       3.442   7.222  18.232  0.00  0.00    +0.000 A 
ATOM      7  C   UNL     1       2.975   8.411  17.658  0.00  0.00    +0.000 A 
ATOM      8  C   UNL     1       1.880   9.066  18.216  0.00  0.00    +0.000 A 
ATOM      9  C   UNL     1       1.300   8.571  19.383  0.00  0.00    +0.000 A 
ATOM     10  C   UNL     1       1.775   7.389  19.961  0.00  0.00    +0.000 A 
ATOM     11  C   UNL     1       2.811   6.680  19.343  0.00  0.00    +0.000 A 
ENDROOT
BRANCH   1  12
ATOM     12  C   UNL     1       2.468   4.579  20.831  0.00  0.00    +0.000 C 
BRANCH  12  14
ATOM     13  O   UNL     1       2.927   2.467  21.884  0.00  0.00    +0.000 OA
ATOM     14  C   UNL     1       2.667   3.087  20.858  0.00  0.00    +0.000 C 
BRANCH  14  15
ATOM     15  O   UNL     1       2.535   2.482  19.665  0.00  0.00    +0.000 OA
ATOM     16  H   UNL     1       3.031   2.894  18.934  0.00  0.00    +0.000 HD
ENDBRANCH  14  15
ENDBRANCH  12  14
ENDBRANCH   1  12
BRANCH   3  17
ATOM     17  C   UNL     1       6.249   4.727  17.810  0.00  0.00    +0.000 C 
BRANCH  17  18
ATOM     18  C   UNL     1       6.333   4.549  16.319  0.00  0.00    +0.000 A 
ATOM     19  N   UNL     1       7.314   5.050  15.597  0.00  0.00    +0.000 NA
ATOM     20  C   UNL     1       7.143   4.750  14.256  0.00  0.00    +0.000 A 
ATOM     21  C   UNL     1       7.946   5.198  13.186  0.00  0.00    +0.000 A 
ATOM     22  F   UNL     1       8.996   6.002  13.414  0.00  0.00    +0.000 F 
ATOM     23  C   UNL     1       7.660   4.828  11.871  0.00  0.00    +0.000 A 
ATOM     24  C   UNL     1       6.603   3.967  11.612  0.00  0.00    +0.000 A 
ATOM     25  C   UNL     1       5.797   3.501  12.658  0.00  0.00    +0.000 A 
ATOM     26  F   UNL     1       4.786   2.669  12.381  0.00  0.00    +0.000 F 
ATOM     27  C   UNL     1       6.056   3.923  13.969  0.00  0.00    +0.000 A 
ATOM     28  S   UNL     1       5.202   3.596  15.436  0.00  0.00    +0.000 S 
ENDBRANCH  17  18
ENDBRANCH   3  17
TORSDOF 5
ENDMDL
MODEL 6
REMARK VINA RESULT:      -7.6      3.967      7.434
REMARK  Name = 
REMARK  5 active torsions:
REMARK  status: ('A' for Active; 'I' for Inactive)
REMARK    1  A    between atoms: C_2  and  O_3
REMARK    2  A    between atoms: C_2  and  C_4
REMARK    3  A    between atoms: C_4  and  C_5
REMARK    4  A    between atoms: N_7  and  C_8
REMARK    5  A    between atoms: C_8  and  C_9
REMARK                            x       y       z     vdW  Elec       q    Type
REMARK                         _______ _______ _______ _____ _____    ______ ____
ROOT
ATOM      1  C   UNL     1       6.537   5.650  17.843  0.00  0.00    +0.000 A 
ATOM      2  N   UNL     1       5.582   5.670  18.727  0.00  0.00    +0.000 NA
ATOM      3  N   UNL     1       4.369   5.082  18.423  0.00  0.00    +0.000 N 
ATOM      4  C   UNL     1       4.055   4.548  17.178  0.00  0.00    +0.000 A 
ATOM      5  O   UNL     1       2.972   4.043  16.900  0.00  0.00    +0.000 OA
ATOM      6  C   UNL     1       5.121   4.566  16.169  0.00  0.00    +0.000 A 
ATOM      7  C   UNL     1       4.856   4.107  14.872  0.00  0.00    +0.000 A 
ATOM      8  C   UNL     1       5.878   4.076  13.927  0.00  0.00    +0.000 A 
ATOM      9  C   UNL     1       7.172   4.437  14.295  0.00  0.00    +0.000 A 
ATOM     10  C   UNL     1       7.437   4.884  15.594  0.00  0.00    +0.000 A 
ATOM     11  C   UNL     1       6.391   5.009  16.514  0.00  0.00    +0.000 A 
ENDROOT
BRANCH   1  12
ATOM     12  C   UNL     1       7.832   6.353  18.206  0.00  0.00    +0.000 C 
BRANCH  12  14
ATOM     13  O   UNL     1       8.621   8.597  18.558  0.00  0.00    +0.000 OA
ATOM     14  C   UNL     1       7.861   7.839  17.965  0.00  0.00    +0.000 C 
BRANCH  14  15
ATOM     15  O   UNL     1       6.985   8.274  17.042  0.00  0.00    +0.000 OA
ATOM     16  H   UNL     1       6.600   7.581  16.476  0.00  0.00    +0.000 HD
ENDBRANCH  14  15
ENDBRANCH  12  14
ENDBRANCH   1  12
BRANCH   3  17
ATOM     17  C   UNL     1       3.378   4.961  19.499  0.00  0.00    +0.000 C 
BRANCH  17  18
ATOM     18  C   UNL     1       2.589   6.222  19.722  0.00  0.00    +0.000 A 
ATOM     19  N   UNL     1       2.524   7.188  18.828  0.00  0.00    +0.000 NA
ATOM     20  C   UNL     1       1.744   8.235  19.289  0.00  0.00    +0.000 A 
ATOM     21  C   UNL     1       1.527   9.470  18.641  0.00  0.00    +0.000 A 
ATOM     22  F   UNL     1       2.106   9.728  17.459  0.00  0.00    +0.000 F 
ATOM     23  C   UNL     1       0.720  10.450  19.220  0.00  0.00    +0.000 A 
ATOM     24  C   UNL     1       0.080  10.194  20.423  0.00  0.00    +0.000 A 
ATOM     25  C   UNL     1       0.271   8.973  21.081  0.00  0.00    +0.000 A 
ATOM     26  F   UNL     1      -0.362   8.750  22.240  0.00  0.00    +0.000 F 
ATOM     27  C   UNL     1       1.128   8.016  20.522  0.00  0.00    +0.000 A 
ATOM     28  S   UNL     1       1.627   6.475  21.127  0.00  0.00    +0.000 S 
ENDBRANCH  17  18
ENDBRANCH   3  17
TORSDOF 5
ENDMDL
MODEL 7
REMARK VINA RESULT:      -7.5      6.654      9.960
REMARK  Name = 
REMARK  5 active torsions:
REMARK  status: ('A' for Active; 'I' for Inactive)
REMARK    1  A    between atoms: C_2  and  O_3
REMARK    2  A    between atoms: C_2  and  C_4
REMARK    3  A    between atoms: C_4  and  C_5
REMARK    4  A    between atoms: N_7  and  C_8
REMARK    5  A    between atoms: C_8  and  C_9
REMARK                            x       y       z     vdW  Elec       q    Type
REMARK                         _______ _______ _______ _____ _____    ______ ____
ROOT
ATOM      1  C   UNL     1       0.457   8.762  20.848  0.00  0.00    +0.000 A 
ATOM      2  N   UNL     1       0.172   9.944  20.383  0.00  0.00    +0.000 NA
ATOM      3  N   UNL     1       0.698  10.333  19.166  0.00  0.00    +0.000 N 
ATOM      4  C   UNL     1       1.608   9.578  18.435  0.00  0.00    +0.000 A 
ATOM      5  O   UNL     1       2.091   9.930  17.363  0.00  0.00    +0.000 OA
ATOM      6  C   UNL     1       1.959   8.262  18.984  0.00  0.00    +0.000 A 
ATOM      7  C   UNL     1       2.921   7.475  18.338  0.00  0.00    +0.000 A 
ATOM      8  C   UNL     1       3.220   6.207  18.827  0.00  0.00    +0.000 A 
ATOM      9  C   UNL     1       2.513   5.702  19.917  0.00  0.00    +0.000 A 
ATOM     10  C   UNL     1       1.546   6.485  20.555  0.00  0.00    +0.000 A 
ATOM     11  C   UNL     1       1.316   7.796  20.122  0.00  0.00    +0.000 A 
ENDROOT
BRANCH   1  12
ATOM     12  C   UNL     1      -0.104   8.401  22.211  0.00  0.00    +0.000 C 
BRANCH  12  14
ATOM     13  O   UNL     1       0.769   9.608  24.098  0.00  0.00    +0.000 OA
ATOM     14  C   UNL     1      -0.097   9.504  23.236  0.00  0.00    +0.000 C 
BRANCH  14  15
ATOM     15  O   UNL     1      -1.118  10.372  23.131  0.00  0.00    +0.000 OA
ATOM     16  H   UNL     1      -1.356  10.834  23.955  0.00  0.00    +0.000 HD
ENDBRANCH  14  15
ENDBRANCH  12  14
ENDBRANCH   1  12
BRANCH   3  17
ATOM     17  C   UNL     1       0.218  11.593  18.585  0.00  0.00    +0.000 C 
BRANCH  17  18
ATOM     18  C   UNL     1      -1.279  11.732  18.626  0.00  0.00    +0.000 A 
ATOM     19  N   UNL     1      -2.063  11.274  17.671  0.00  0.00    +0.000 NA
ATOM     20  C   UNL     1      -3.392  11.544  17.952  0.00  0.00    +0.000 A 
ATOM     21  C   UNL     1      -4.497  11.283  17.115  0.00  0.00    +0.000 A 
ATOM     22  F   UNL     1      -4.320  10.723  15.909  0.00  0.00    +0.000 F 
ATOM     23  C   UNL     1      -5.793  11.613  17.516  0.00  0.00    +0.000 A 
ATOM     24  C   UNL     1      -6.008  12.158  18.773  0.00  0.00    +0.000 A 
ATOM     25  C   UNL     1      -4.929  12.418  19.626  0.00  0.00    +0.000 A 
ATOM     26  F   UNL     1      -5.165  12.941  20.835  0.00  0.00    +0.000 F 
ATOM     27  C   UNL     1      -3.626  12.137  19.194  0.00  0.00    +0.000 A 
ATOM     28  S   UNL     1      -2.107  12.421  19.970  0.00  0.00    +0.000 S 
ENDBRANCH  17  18
ENDBRANCH   3  17
TORSDOF 5
ENDMDL
MODEL 8
REMARK VINA RESULT:      -7.3      4.806      7.731
REMARK  Name = 
REMARK  5 active torsions:
REMARK  status: ('A' for Active; 'I' for Inactive)
REMARK    1  A    between atoms: C_2  and  O_3
REMARK    2  A    between atoms: C_2  and  C_4
REMARK    3  A    between atoms: C_4  and  C_5
REMARK    4  A    between atoms: N_7  and  C_8
REMARK    5  A    between atoms: C_8  and  C_9
REMARK                            x       y       z     vdW  Elec       q    Type
REMARK                         _______ _______ _______ _____ _____    ______ ____
ROOT
ATOM      1  C   UNL     1       4.942   5.251  18.872  0.00  0.00    +0.000 A 
ATOM      2  N   UNL     1       4.529   6.364  18.339  0.00  0.00    +0.000 NA
ATOM      3  N   UNL     1       3.226   6.451  17.887  0.00  0.00    +0.000 N 
ATOM      4  C   UNL     1       2.337   5.382  17.869  0.00  0.00    +0.000 A 
ATOM      5  O   UNL     1       1.185   5.452  17.450  0.00  0.00    +0.000 OA
ATOM      6  C   UNL     1       2.822   4.116  18.433  0.00  0.00    +0.000 A 
ATOM      7  C   UNL     1       2.006   2.978  18.387  0.00  0.00    +0.000 A 
ATOM      8  C   UNL     1       2.442   1.789  18.965  0.00  0.00    +0.000 A 
ATOM      9  C   UNL     1       3.658   1.757  19.646  0.00  0.00    +0.000 A 
ATOM     10  C   UNL     1       4.466   2.897  19.700  0.00  0.00    +0.000 A 
ATOM     11  C   UNL     1       4.072   4.063  19.034  0.00  0.00    +0.000 A 
ENDROOT
BRANCH   1  12
ATOM     12  C   UNL     1       6.395   5.191  19.308  0.00  0.00    +0.000 C 
BRANCH  12  14
ATOM     13  O   UNL     1       7.833   4.682  17.449  0.00  0.00    +0.000 OA
ATOM     14  C   UNL     1       7.411   5.515  18.245  0.00  0.00    +0.000 C 
BRANCH  14  15
ATOM     15  O   UNL     1       7.823   6.794  18.234  0.00  0.00    +0.000 OA
ATOM     16  H   UNL     1       7.974   7.189  19.112  0.00  0.00    +0.000 HD
ENDBRANCH  14  15
ENDBRANCH  12  14
ENDBRANCH   1  12
BRANCH   3  17
ATOM     17  C   UNL     1       2.736   7.766  17.458  0.00  0.00    +0.000 C 
BRANCH  17  18
ATOM     18  C   UNL     1       1.982   8.498  18.533  0.00  0.00    +0.000 A 
ATOM     19  N   UNL     1       1.326   9.618  18.306  0.00  0.00    +0.000 NA
ATOM     20  C   UNL     1       0.733  10.086  19.467  0.00  0.00    +0.000 A 
ATOM     21  C   UNL     1       0.030  11.300  19.620  0.00  0.00    +0.000 A 
ATOM     22  F   UNL     1      -0.114  12.138  18.582  0.00  0.00    +0.000 F 
ATOM     23  C   UNL     1      -0.516  11.661  20.853  0.00  0.00    +0.000 A 
ATOM     24  C   UNL     1      -0.414  10.795  21.931  0.00  0.00    +0.000 A 
ATOM     25  C   UNL     1       0.270   9.581  21.803  0.00  0.00    +0.000 A 
ATOM     26  F   UNL     1       0.351   8.762  22.859  0.00  0.00    +0.000 F 
ATOM     27  C   UNL     1       0.865   9.252  20.577  0.00  0.00    +0.000 A 
ATOM     28  S   UNL     1       1.834   7.888  20.137  0.00  0.00    +0.000 S 
ENDBRANCH  17  18
ENDBRANCH   3  17
TORSDOF 5
ENDMDL
MODEL 9
REMARK VINA RESULT:      -7.3      5.057      8.125
REMARK  Name = 
REMARK  5 active torsions:
REMARK  status: ('A' for Active; 'I' for Inactive)
REMARK    1  A    between atoms: C_2  and  O_3
REMARK    2  A    between atoms: C_2  and  C_4
REMARK    3  A    between atoms: C_4  and  C_5
REMARK    4  A    between atoms: N_7  and  C_8
REMARK    5  A    between atoms: C_8  and  C_9
REMARK                            x       y       z     vdW  Elec       q    Type
REMARK                         _______ _______ _______ _____ _____    ______ ____
ROOT
ATOM      1  C   UNL     1       3.606   6.274  17.855  0.00  0.00    +0.000 A 
ATOM      2  N   UNL     1       3.317   7.530  17.672  0.00  0.00    +0.000 NA
ATOM      3  N   UNL     1       2.539   8.186  18.607  0.00  0.00    +0.000 N 
ATOM      4  C   UNL     1       1.947   7.562  19.700  0.00  0.00    +0.000 A 
ATOM      5  O   UNL     1       1.240   8.138  20.521  0.00  0.00    +0.000 OA
ATOM      6  C   UNL     1       2.242   6.135  19.880  0.00  0.00    +0.000 A 
ATOM      7  C   UNL     1       1.627   5.425  20.920  0.00  0.00    +0.000 A 
ATOM      8  C   UNL     1       1.942   4.085  21.124  0.00  0.00    +0.000 A 
ATOM      9  C   UNL     1       2.918   3.476  20.336  0.00  0.00    +0.000 A 
ATOM     10  C   UNL     1       3.538   4.189  19.305  0.00  0.00    +0.000 A 
ATOM     11  C   UNL     1       3.150   5.506  19.038  0.00  0.00    +0.000 A 
ENDROOT
BRANCH   1  12
ATOM     12  C   UNL     1       4.422   5.587  16.776  0.00  0.00    +0.000 C 
BRANCH  12  14
ATOM     13  O   UNL     1       5.360   6.623  14.819  0.00  0.00    +0.000 OA
ATOM     14  C   UNL     1       5.397   6.463  16.034  0.00  0.00    +0.000 C 
BRANCH  14  15
ATOM     15  O   UNL     1       6.317   7.060  16.812  0.00  0.00    +0.000 OA
ATOM     16  H   UNL     1       6.690   6.501  17.517  0.00  0.00    +0.000 HD
ENDBRANCH  14  15
ENDBRANCH  12  14
ENDBRANCH   1  12
BRANCH   3  17
ATOM     17  C   UNL     1       2.379   9.638  18.468  0.00  0.00    +0.000 C 
BRANCH  17  18
ATOM     18  C   UNL     1       0.941  10.074  18.417  0.00  0.00    +0.000 A 
ATOM     19  N   UNL     1       0.076   9.574  17.557  0.00  0.00    +0.000 NA
ATOM     20  C   UNL     1      -1.170  10.156  17.717  0.00  0.00    +0.000 A 
ATOM     21  C   UNL     1      -2.310   9.934  16.915  0.00  0.00    +0.000 A 
ATOM     22  F   UNL     1      -2.254   9.092  15.873  0.00  0.00    +0.000 F 
ATOM     23  C   UNL     1      -3.511  10.594  17.179  0.00  0.00    +0.000 A 
ATOM     24  C   UNL     1      -3.606  11.440  18.273  0.00  0.00    +0.000 A 
ATOM     25  C   UNL     1      -2.493  11.670  19.090  0.00  0.00    +0.000 A 
ATOM     26  F   UNL     1      -2.612  12.490  20.141  0.00  0.00    +0.000 F 
ATOM     27  C   UNL     1      -1.274  11.049  18.785  0.00  0.00    +0.000 A 
ATOM     28  S   UNL     1       0.275  11.198  19.538  0.00  0.00    +0.000 S 
ENDBRANCH  17  18
ENDBRANCH   3  17
TORSDOF 5
ENDMDL
