MODEL 1
REMARK VINA RESULT:      -7.4      0.000      0.000
REMARK  Name = 
REMARK  9 active torsions:
REMARK  status: ('A' for Active; 'I' for Inactive)
REMARK    1  A    between atoms: N_3  and  C_4
REMARK    2  A    between atoms: C_4  and  C_5
REMARK    3  A    between atoms: C_8  and  O_9
REMARK    4  A    between atoms: C_15  and  C_16
REMARK    5  A    between atoms: C_19  and  O_20
REMARK    6  A    between atoms: O_20  and  C_21
REMARK    7  A    between atoms: C_21  and  C_22
REMARK    8  A    between atoms: C_22  and  C_23
REMARK    9  A    between atoms: C_23  and  N_24
REMARK                            x       y       z     vdW  Elec       q    Type
REMARK                         _______ _______ _______ _____ _____    ______ ____
ROOT
ATOM      1  N   UNL     1      -0.444  14.717  23.258  0.00  0.00    +0.000 NA
ATOM      2  C   UNL     1      -0.863  13.714  22.562  0.00  0.00    +0.000 C 
ATOM      3  N   UNL     1      -2.137  13.259  22.572  0.00  0.00    +0.000 N 
ATOM      4  N   UNL     1       0.040  13.002  21.847  0.00  0.00    +0.000 N 
ATOM      5  C   UNL     1      -0.094  12.011  20.943  0.00  0.00    +0.000 A 
ATOM      6  N   UNL     1       0.842  11.111  20.737  0.00  0.00    +0.000 NA
ATOM      7  C   UNL     1       0.421  10.164  19.828  0.00  0.00    +0.000 A 
ATOM      8  C   UNL     1      -0.816  10.394  19.268  0.00  0.00    +0.000 A 
ATOM      9  S   UNL     1      -1.488  11.814  19.931  0.00  0.00    +0.000 S 
ATOM     10  H   UNL     1      -1.228  15.083  23.794  0.00  0.00    +0.000 HD
ATOM     11  H   UNL     1      -2.303  12.382  22.093  0.00  0.00    +0.000 HD
ATOM     12  H   UNL     1       0.992  13.235  22.099  0.00  0.00    +0.000 HD
ENDROOT
BRANCH   7  13
ATOM     13  C   UNL     1       1.225   8.987  19.554  0.00  0.00    +0.000 A 
ATOM     14  C   UNL     1       1.835   8.864  18.301  0.00  0.00    +0.000 A 
ATOM     15  C   UNL     1       2.630   7.755  18.003  0.00  0.00    +0.000 A 
ATOM     16  C   UNL     1       2.815   6.756  18.956  0.00  0.00    +0.000 A 
ATOM     17  C   UNL     1       2.191   6.864  20.201  0.00  0.00    +0.000 A 
ATOM     18  C   UNL     1       1.409   7.978  20.506  0.00  0.00    +0.000 A 
BRANCH  16  19
ATOM     19  O   UNL     1       3.535   5.610  18.767  0.00  0.00    +0.000 OA
BRANCH  19  20
ATOM     20  C   UNL     1       3.377   4.975  17.500  0.00  0.00    +0.000 C 
BRANCH  20  21
ATOM     21  C   UNL     1       2.137   4.092  17.566  0.00  0.00    +0.000 C 
BRANCH  21  22
ATOM     22  C   UNL     1       2.464   2.747  18.211  0.00  0.00    +0.000 C 
BRANCH  22  23
ATOM     23  N   UNL     1       2.239   2.753  19.640  0.00  0.00    +0.000 N 
ATOM     24  C   UNL     1       1.052   2.990  20.272  0.00  0.00    +0.000 A 
ATOM     25  C   UNL     1       1.351   2.933  21.612  0.00  0.00    +0.000 A 
ATOM     26  N   UNL     1       2.681   2.661  21.805  0.00  0.00    +0.000 NA
ATOM     27  C   UNL     1       3.192   2.564  20.599  0.00  0.00    +0.000 A 
ENDBRANCH  22  23
ENDBRANCH  21  22
ENDBRANCH  20  21
ENDBRANCH  19  20
ENDBRANCH  16  19
ENDBRANCH   7  13
BRANCH   3  28
ATOM     28  C   UNL     1      -3.344  14.016  22.789  0.00  0.00    +0.000 C 
BRANCH  28  29
ATOM     29  C   UNL     1      -4.416  13.515  21.856  0.00  0.00    +0.000 A 
ATOM     30  C   UNL     1      -5.429  12.667  22.337  0.00  0.00    +0.000 A 
ATOM     31  C   UNL     1      -6.421  12.183  21.485  0.00  0.00    +0.000 A 
ATOM     32  C   UNL     1      -6.403  12.549  20.145  0.00  0.00    +0.000 A 
ATOM     33  C   UNL     1      -5.415  13.390  19.647  0.00  0.00    +0.000 A 
ATOM     34  C   UNL     1      -4.421  13.873  20.500  0.00  0.00    +0.000 A 
BRANCH  32  35
ATOM     35  O   UNL     1      -7.347  12.092  19.274  0.00  0.00    +0.000 OA
ATOM     36  H   UNL     1      -7.681  11.240  19.600  0.00  0.00    +0.000 HD
ENDBRANCH  32  35
ENDBRANCH  28  29
ENDBRANCH   3  28
TORSDOF 9
ENDMDL
MODEL 2
REMARK VINA RESULT:      -7.3      7.355     11.860
REMARK  Name = 
REMARK  9 active torsions:
REMARK  status: ('A' for Active; 'I' for Inactive)
REMARK    1  A    between atoms: N_3  and  C_4
REMARK    2  A    between atoms: C_4  and  C_5
REMARK    3  A    between atoms: C_8  and  O_9
REMARK    4  A    between atoms: C_15  and  C_16
REMARK    5  A    between atoms: C_19  and  O_20
REMARK    6  A    between atoms: O_20  and  C_21
REMARK    7  A    between atoms: C_21  and  C_22
REMARK    8  A    between atoms: C_22  and  C_23
REMARK    9  A    between atoms: C_23  and  N_24
REMARK                            x       y       z     vdW  Elec       q    Type
REMARK                         _______ _______ _______ _____ _____    ______ ____
ROOT
ATOM      1  N   UNL     1       5.212   4.575  14.512  0.00  0.00    +0.000 NA
ATOM      2  C   UNL     1       5.553   4.973  15.691  0.00  0.00    +0.000 C 
ATOM      3  N   UNL     1       4.981   4.537  16.837  0.00  0.00    +0.000 N 
ATOM      4  N   UNL     1       6.471   5.962  15.798  0.00  0.00    +0.000 N 
ATOM      5  C   UNL     1       7.115   6.494  16.857  0.00  0.00    +0.000 A 
ATOM      6  N   UNL     1       7.561   7.731  16.865  0.00  0.00    +0.000 NA
ATOM      7  C   UNL     1       8.102   8.050  18.092  0.00  0.00    +0.000 A 
ATOM      8  C   UNL     1       8.149   7.017  19.002  0.00  0.00    +0.000 A 
ATOM      9  S   UNL     1       7.459   5.619  18.314  0.00  0.00    +0.000 S 
ATOM     10  H   UNL     1       4.460   3.896  14.609  0.00  0.00    +0.000 HD
ATOM     11  H   UNL     1       5.240   5.031  17.683  0.00  0.00    +0.000 HD
ATOM     12  H   UNL     1       6.650   6.413  14.910  0.00  0.00    +0.000 HD
ENDROOT
BRANCH   7  13
ATOM     13  C   UNL     1       8.521   9.407  18.389  0.00  0.00    +0.000 A 
ATOM     14  C   UNL     1       9.215   9.654  19.578  0.00  0.00    +0.000 A 
ATOM     15  C   UNL     1       9.650  10.943  19.893  0.00  0.00    +0.000 A 
ATOM     16  C   UNL     1       9.388  11.998  19.022  0.00  0.00    +0.000 A 
ATOM     17  C   UNL     1       8.678  11.761  17.844  0.00  0.00    +0.000 A 
ATOM     18  C   UNL     1       8.255  10.471  17.520  0.00  0.00    +0.000 A 
BRANCH  16  19
ATOM     19  O   UNL     1       9.728  13.303  19.241  0.00  0.00    +0.000 OA
BRANCH  19  20
ATOM     20  C   UNL     1       8.646  14.231  19.285  0.00  0.00    +0.000 C 
BRANCH  20  21
ATOM     21  C   UNL     1       8.414  14.617  20.741  0.00  0.00    +0.000 C 
BRANCH  21  22
ATOM     22  C   UNL     1       6.920  14.723  21.042  0.00  0.00    +0.000 C 
BRANCH  22  23
ATOM     23  N   UNL     1       6.264  15.719  20.223  0.00  0.00    +0.000 N 
ATOM     24  C   UNL     1       5.365  15.481  19.223  0.00  0.00    +0.000 A 
ATOM     25  C   UNL     1       5.065  16.724  18.719  0.00  0.00    +0.000 A 
ATOM     26  N   UNL     1       5.750  17.703  19.392  0.00  0.00    +0.000 NA
ATOM     27  C   UNL     1       6.470  17.067  20.288  0.00  0.00    +0.000 A 
ENDBRANCH  22  23
ENDBRANCH  21  22
ENDBRANCH  20  21
ENDBRANCH  19  20
ENDBRANCH  16  19
ENDBRANCH   7  13
BRANCH   3  28
ATOM     28  C   UNL     1       4.400   3.245  17.099  0.00  0.00    +0.000 C 
BRANCH  28  29
ATOM     29  C   UNL     1       3.752   3.261  18.459  0.00  0.00    +0.000 A 
ATOM     30  C   UNL     1       4.280   2.477  19.500  0.00  0.00    +0.000 A 
ATOM     31  C   UNL     1       3.686   2.468  20.761  0.00  0.00    +0.000 A 
ATOM     32  C   UNL     1       2.558   3.249  20.986  0.00  0.00    +0.000 A 
ATOM     33  C   UNL     1       2.022   4.037  19.975  0.00  0.00    +0.000 A 
ATOM     34  C   UNL     1       2.616   4.044  18.711  0.00  0.00    +0.000 A 
BRANCH  32  35
ATOM     35  O   UNL     1       1.939   3.264  22.201  0.00  0.00    +0.000 OA
ATOM     36  H   UNL     1       2.403   3.895  22.776  0.00  0.00    +0.000 HD
ENDBRANCH  32  35
ENDBRANCH  28  29
ENDBRANCH   3  28
TORSDOF 9
ENDMDL
MODEL 3
REMARK VINA RESULT:      -7.3      2.628      3.491
REMARK  Name = 
REMARK  9 active torsions:
REMARK  status: ('A' for Active; 'I' for Inactive)
REMARK    1  A    between atoms: N_3  and  C_4
REMARK    2  A    between atoms: C_4  and  C_5
REMARK    3  A    between atoms: C_8  and  O_9
REMARK    4  A    between atoms: C_15  and  C_16
REMARK    5  A    between atoms: C_19  and  O_20
REMARK    6  A    between atoms: O_20  and  C_21
REMARK    7  A    between atoms: C_21  and  C_22
REMARK    8  A    between atoms: C_22  and  C_23
REMARK    9  A    between atoms: C_23  and  N_24
REMARK                            x       y       z     vdW  Elec       q    Type
REMARK                         _______ _______ _______ _____ _____    ______ ____
ROOT
ATOM      1  N   UNL     1      -1.029  12.873  23.317  0.00  0.00    +0.000 NA
ATOM      2  C   UNL     1      -1.042  12.244  22.190  0.00  0.00    +0.000 C 
ATOM      3  N   UNL     1      -2.109  12.189  21.361  0.00  0.00    +0.000 N 
ATOM      4  N   UNL     1       0.040  11.504  21.852  0.00  0.00    +0.000 N 
ATOM      5  C   UNL     1       0.379  10.854  20.721  0.00  0.00    +0.000 A 
ATOM      6  N   UNL     1       1.170   9.803  20.718  0.00  0.00    +0.000 NA
ATOM      7  C   UNL     1       1.286   9.278  19.449  0.00  0.00    +0.000 A 
ATOM      8  C   UNL     1       0.647   9.989  18.457  0.00  0.00    +0.000 A 
ATOM      9  S   UNL     1      -0.155  11.329  19.141  0.00  0.00    +0.000 S 
ATOM     10  H   UNL     1      -1.941  13.305  23.452  0.00  0.00    +0.000 HD
ATOM     11  H   UNL     1      -2.038  11.547  20.581  0.00  0.00    +0.000 HD
ATOM     12  H   UNL     1       0.675  11.380  22.631  0.00  0.00    +0.000 HD
ENDROOT
BRANCH   7  13
ATOM     13  C   UNL     1       1.986   8.027  19.223  0.00  0.00    +0.000 A 
ATOM     14  C   UNL     1       2.696   7.858  18.030  0.00  0.00    +0.000 A 
ATOM     15  C   UNL     1       3.396   6.675  17.780  0.00  0.00    +0.000 A 
ATOM     16  C   UNL     1       3.385   5.649  18.723  0.00  0.00    +0.000 A 
ATOM     17  C   UNL     1       2.661   5.805  19.906  0.00  0.00    +0.000 A 
ATOM     18  C   UNL     1       1.973   6.991  20.163  0.00  0.00    +0.000 A 
BRANCH  16  19
ATOM     19  O   UNL     1       3.998   4.437  18.574  0.00  0.00    +0.000 OA
BRANCH  19  20
ATOM     20  C   UNL     1       3.939   3.864  17.269  0.00  0.00    +0.000 C 
BRANCH  20  21
ATOM     21  C   UNL     1       5.205   4.262  16.520  0.00  0.00    +0.000 C 
BRANCH  21  22
ATOM     22  C   UNL     1       6.415   4.235  17.452  0.00  0.00    +0.000 C 
BRANCH  22  23
ATOM     23  N   UNL     1       7.026   5.539  17.597  0.00  0.00    +0.000 N 
ATOM     24  C   UNL     1       7.668   6.013  18.704  0.00  0.00    +0.000 A 
ATOM     25  C   UNL     1       8.030   7.298  18.375  0.00  0.00    +0.000 A 
ATOM     26  N   UNL     1       7.631   7.607  17.100  0.00  0.00    +0.000 NA
ATOM     27  C   UNL     1       7.023   6.530  16.658  0.00  0.00    +0.000 A 
ENDBRANCH  22  23
ENDBRANCH  21  22
ENDBRANCH  20  21
ENDBRANCH  19  20
ENDBRANCH  16  19
ENDBRANCH   7  13
BRANCH   3  28
ATOM     28  C   UNL     1      -3.136  13.182  21.176  0.00  0.00    +0.000 C 
BRANCH  28  29
ATOM     29  C   UNL     1      -4.237  12.603  20.325  0.00  0.00    +0.000 A 
ATOM     30  C   UNL     1      -3.942  12.078  19.055  0.00  0.00    +0.000 A 
ATOM     31  C   UNL     1      -4.949  11.550  18.247  0.00  0.00    +0.000 A 
ATOM     32  C   UNL     1      -6.259  11.545  18.712  0.00  0.00    +0.000 A 
ATOM     33  C   UNL     1      -6.573  12.052  19.967  0.00  0.00    +0.000 A 
ATOM     34  C   UNL     1      -5.565  12.583  20.774  0.00  0.00    +0.000 A 
BRANCH  32  35
ATOM     35  O   UNL     1      -7.276  11.047  17.953  0.00  0.00    +0.000 OA
ATOM     36  H   UNL     1      -6.899  10.658  17.147  0.00  0.00    +0.000 HD
ENDBRANCH  32  35
ENDBRANCH  28  29
ENDBRANCH   3  28
TORSDOF 9
ENDMDL
MODEL 4
REMARK VINA RESULT:      -7.3      3.388     11.249
REMARK  Name = 
REMARK  9 active torsions:
REMARK  status: ('A' for Active; 'I' for Inactive)
REMARK    1  A    between atoms: N_3  and  C_4
REMARK    2  A    between atoms: C_4  and  C_5
REMARK    3  A    between atoms: C_8  and  O_9
REMARK    4  A    between atoms: C_15  and  C_16
REMARK    5  A    between atoms: C_19  and  O_20
REMARK    6  A    between atoms: O_20  and  C_21
REMARK    7  A    between atoms: C_21  and  C_22
REMARK    8  A    between atoms: C_22  and  C_23
REMARK    9  A    between atoms: C_23  and  N_24
REMARK                            x       y       z     vdW  Elec       q    Type
REMARK                         _______ _______ _______ _____ _____    ______ ____
ROOT
ATOM      1  N   UNL     1       5.237   3.005  19.461  0.00  0.00    +0.000 NA
ATOM      2  C   UNL     1       5.059   4.240  19.132  0.00  0.00    +0.000 C 
ATOM      3  N   UNL     1       6.028   5.044  18.637  0.00  0.00    +0.000 N 
ATOM      4  N   UNL     1       3.857   4.808  19.386  0.00  0.00    +0.000 N 
ATOM      5  C   UNL     1       3.328   6.004  19.054  0.00  0.00    +0.000 A 
ATOM      6  N   UNL     1       2.399   6.591  19.775  0.00  0.00    +0.000 NA
ATOM      7  C   UNL     1       2.096   7.836  19.266  0.00  0.00    +0.000 A 
ATOM      8  C   UNL     1       2.736   8.164  18.092  0.00  0.00    +0.000 A 
ATOM      9  S   UNL     1       3.779   6.895  17.636  0.00  0.00    +0.000 S 
ATOM     10  H   UNL     1       6.210   2.764  19.281  0.00  0.00    +0.000 HD
ATOM     11  H   UNL     1       5.796   6.026  18.554  0.00  0.00    +0.000 HD
ATOM     12  H   UNL     1       3.284   4.233  19.990  0.00  0.00    +0.000 HD
ENDROOT
BRANCH   7  13
ATOM     13  C   UNL     1       1.208   8.734  19.980  0.00  0.00    +0.000 A 
ATOM     14  C   UNL     1       0.563   9.753  19.269  0.00  0.00    +0.000 A 
ATOM     15  C   UNL     1      -0.311  10.628  19.916  0.00  0.00    +0.000 A 
ATOM     16  C   UNL     1      -0.543  10.496  21.284  0.00  0.00    +0.000 A 
ATOM     17  C   UNL     1       0.114   9.495  22.002  0.00  0.00    +0.000 A 
ATOM     18  C   UNL     1       0.977   8.609  21.355  0.00  0.00    +0.000 A 
BRANCH  16  19
ATOM     19  O   UNL     1      -1.343  11.314  22.029  0.00  0.00    +0.000 OA
BRANCH  19  20
ATOM     20  C   UNL     1      -0.765  12.554  22.433  0.00  0.00    +0.000 C 
BRANCH  20  21
ATOM     21  C   UNL     1      -1.852  13.621  22.380  0.00  0.00    +0.000 C 
BRANCH  21  22
ATOM     22  C   UNL     1      -3.038  13.145  21.542  0.00  0.00    +0.000 C 
BRANCH  22  23
ATOM     23  N   UNL     1      -4.249  13.022  22.324  0.00  0.00    +0.000 N 
ATOM     24  C   UNL     1      -4.354  13.153  23.679  0.00  0.00    +0.000 A 
ATOM     25  C   UNL     1      -5.679  12.908  23.952  0.00  0.00    +0.000 A 
ATOM     26  N   UNL     1      -6.375  12.641  22.801  0.00  0.00    +0.000 NA
ATOM     27  C   UNL     1      -5.485  12.711  21.836  0.00  0.00    +0.000 A 
ENDBRANCH  22  23
ENDBRANCH  21  22
ENDBRANCH  20  21
ENDBRANCH  19  20
ENDBRANCH  16  19
ENDBRANCH   7  13
BRANCH   3  28
ATOM     28  C   UNL     1       7.165   4.668  17.836  0.00  0.00    +0.000 C 
BRANCH  28  29
ATOM     29  C   UNL     1       6.719   4.465  16.410  0.00  0.00    +0.000 A 
ATOM     30  C   UNL     1       5.565   3.710  16.134  0.00  0.00    +0.000 A 
ATOM     31  C   UNL     1       5.145   3.500  14.822  0.00  0.00    +0.000 A 
ATOM     32  C   UNL     1       5.880   4.049  13.777  0.00  0.00    +0.000 A 
ATOM     33  C   UNL     1       7.019   4.804  14.026  0.00  0.00    +0.000 A 
ATOM     34  C   UNL     1       7.442   5.012  15.340  0.00  0.00    +0.000 A 
BRANCH  32  35
ATOM     35  O   UNL     1       5.511   3.861  12.479  0.00  0.00    +0.000 OA
ATOM     36  H   UNL     1       5.112   4.683  12.149  0.00  0.00    +0.000 HD
ENDBRANCH  32  35
ENDBRANCH  28  29
ENDBRANCH   3  28
TORSDOF 9
ENDMDL
MODEL 5
REMARK VINA RESULT:      -7.3      2.168      3.286
REMARK  Name = 
REMARK  9 active torsions:
REMARK  status: ('A' for Active; 'I' for Inactive)
REMARK    1  A    between atoms: N_3  and  C_4
REMARK    2  A    between atoms: C_4  and  C_5
REMARK    3  A    between atoms: C_8  and  O_9
REMARK    4  A    between atoms: C_15  and  C_16
REMARK    5  A    between atoms: C_19  and  O_20
REMARK    6  A    between atoms: O_20  and  C_21
REMARK    7  A    between atoms: C_21  and  C_22
REMARK    8  A    between atoms: C_22  and  C_23
REMARK    9  A    between atoms: C_23  and  N_24
REMARK                            x       y       z     vdW  Elec       q    Type
REMARK                         _______ _______ _______ _____ _____    ______ ____
ROOT
ATOM      1  N   UNL     1      -1.991  12.560  17.428  0.00  0.00    +0.000 NA
ATOM      2  C   UNL     1      -1.131  12.087  18.266  0.00  0.00    +0.000 C 
ATOM      3  N   UNL     1      -0.564  12.803  19.263  0.00  0.00    +0.000 N 
ATOM      4  N   UNL     1      -0.683  10.822  18.085  0.00  0.00    +0.000 N 
ATOM      5  C   UNL     1       0.094  10.016  18.837  0.00  0.00    +0.000 A 
ATOM      6  N   UNL     1       0.833   9.060  18.317  0.00  0.00    +0.000 NA
ATOM      7  C   UNL     1       1.593   8.444  19.289  0.00  0.00    +0.000 A 
ATOM      8  C   UNL     1       1.365   8.876  20.576  0.00  0.00    +0.000 A 
ATOM      9  S   UNL     1       0.197  10.117  20.565  0.00  0.00    +0.000 S 
ATOM     10  H   UNL     1      -2.154  13.539  17.658  0.00  0.00    +0.000 HD
ATOM     11  H   UNL     1       0.198  12.357  19.758  0.00  0.00    +0.000 HD
ATOM     12  H   UNL     1      -0.945  10.451  17.180  0.00  0.00    +0.000 HD
ENDROOT
BRANCH   7  13
ATOM     13  C   UNL     1       2.598   7.460  18.933  0.00  0.00    +0.000 A 
ATOM     14  C   UNL     1       2.892   6.437  19.841  0.00  0.00    +0.000 A 
ATOM     15  C   UNL     1       3.841   5.461  19.530  0.00  0.00    +0.000 A 
ATOM     16  C   UNL     1       4.509   5.505  18.308  0.00  0.00    +0.000 A 
ATOM     17  C   UNL     1       4.234   6.535  17.407  0.00  0.00    +0.000 A 
ATOM     18  C   UNL     1       3.276   7.503  17.709  0.00  0.00    +0.000 A 
BRANCH  16  19
ATOM     19  O   UNL     1       5.482   4.632  17.911  0.00  0.00    +0.000 OA
BRANCH  19  20
ATOM     20  C   UNL     1       5.248   3.257  18.213  0.00  0.00    +0.000 C 
BRANCH  20  21
ATOM     21  C   UNL     1       3.991   2.818  17.472  0.00  0.00    +0.000 C 
BRANCH  21  22
ATOM     22  C   UNL     1       3.228   1.767  18.277  0.00  0.00    +0.000 C 
BRANCH  22  23
ATOM     23  N   UNL     1       2.352   2.361  19.264  0.00  0.00    +0.000 N 
ATOM     24  C   UNL     1       2.569   2.418  20.610  0.00  0.00    +0.000 A 
ATOM     25  C   UNL     1       1.448   3.030  21.120  0.00  0.00    +0.000 A 
ATOM     26  N   UNL     1       0.567   3.349  20.119  0.00  0.00    +0.000 NA
ATOM     27  C   UNL     1       1.136   2.929  19.012  0.00  0.00    +0.000 A 
ENDBRANCH  22  23
ENDBRANCH  21  22
ENDBRANCH  20  21
ENDBRANCH  19  20
ENDBRANCH  16  19
ENDBRANCH   7  13
BRANCH   3  28
ATOM     28  C   UNL     1      -1.135  13.907  19.992  0.00  0.00    +0.000 C 
BRANCH  28  29
ATOM     29  C   UNL     1      -1.959  13.372  21.135  0.00  0.00    +0.000 A 
ATOM     30  C   UNL     1      -3.354  13.260  21.004  0.00  0.00    +0.000 A 
ATOM     31  C   UNL     1      -4.135  12.780  22.055  0.00  0.00    +0.000 A 
ATOM     32  C   UNL     1      -3.518  12.406  23.243  0.00  0.00    +0.000 A 
ATOM     33  C   UNL     1      -2.140  12.502  23.393  0.00  0.00    +0.000 A 
ATOM     34  C   UNL     1      -1.359  12.985  22.342  0.00  0.00    +0.000 A 
BRANCH  32  35
ATOM     35  O   UNL     1      -4.243  11.941  24.300  0.00  0.00    +0.000 OA
ATOM     36  H   UNL     1      -5.053  12.471  24.377  0.00  0.00    +0.000 HD
ENDBRANCH  32  35
ENDBRANCH  28  29
ENDBRANCH   3  28
TORSDOF 9
ENDMDL
MODEL 6
REMARK VINA RESULT:      -7.2      6.974     11.829
REMARK  Name = 
REMARK  9 active torsions:
REMARK  status: ('A' for Active; 'I' for Inactive)
REMARK    1  A    between atoms: N_3  and  C_4
REMARK    2  A    between atoms: C_4  and  C_5
REMARK    3  A    between atoms: C_8  and  O_9
REMARK    4  A    between atoms: C_15  and  C_16
REMARK    5  A    between atoms: C_19  and  O_20
REMARK    6  A    between atoms: O_20  and  C_21
REMARK    7  A    between atoms: C_21  and  C_22
REMARK    8  A    between atoms: C_22  and  C_23
REMARK    9  A    between atoms: C_23  and  N_24
REMARK                            x       y       z     vdW  Elec       q    Type
REMARK                         _______ _______ _______ _____ _____    ______ ____
ROOT
ATOM      1  N   UNL     1       5.498   4.487  14.383  0.00  0.00    +0.000 NA
ATOM      2  C   UNL     1       5.735   4.929  15.572  0.00  0.00    +0.000 C 
ATOM      3  N   UNL     1       5.039   4.565  16.673  0.00  0.00    +0.000 N 
ATOM      4  N   UNL     1       6.670   5.895  15.726  0.00  0.00    +0.000 N 
ATOM      5  C   UNL     1       7.225   6.458  16.819  0.00  0.00    +0.000 A 
ATOM      6  N   UNL     1       7.710   7.681  16.817  0.00  0.00    +0.000 NA
ATOM      7  C   UNL     1       8.137   8.041  18.077  0.00  0.00    +0.000 A 
ATOM      8  C   UNL     1       8.061   7.051  19.031  0.00  0.00    +0.000 A 
ATOM      9  S   UNL     1       7.395   5.642  18.340  0.00  0.00    +0.000 S 
ATOM     10  H   UNL     1       4.718   3.834  14.435  0.00  0.00    +0.000 HD
ATOM     11  H   UNL     1       5.231   5.089  17.518  0.00  0.00    +0.000 HD
ATOM     12  H   UNL     1       6.950   6.299  14.841  0.00  0.00    +0.000 HD
ENDROOT
BRANCH   7  13
ATOM     13  C   UNL     1       8.571   9.398  18.354  0.00  0.00    +0.000 A 
ATOM     14  C   UNL     1       9.320   9.644  19.509  0.00  0.00    +0.000 A 
ATOM     15  C   UNL     1       9.770  10.933  19.804  0.00  0.00    +0.000 A 
ATOM     16  C   UNL     1       9.467  11.989  18.947  0.00  0.00    +0.000 A 
ATOM     17  C   UNL     1       8.703  11.752  17.803  0.00  0.00    +0.000 A 
ATOM     18  C   UNL     1       8.264  10.463  17.499  0.00  0.00    +0.000 A 
BRANCH  16  19
ATOM     19  O   UNL     1       9.818  13.293  19.150  0.00  0.00    +0.000 OA
BRANCH  19  20
ATOM     20  C   UNL     1       8.773  14.159  19.589  0.00  0.00    +0.000 C 
BRANCH  20  21
ATOM     21  C   UNL     1       8.479  15.151  18.469  0.00  0.00    +0.000 C 
BRANCH  21  22
ATOM     22  C   UNL     1       7.580  16.280  18.969  0.00  0.00    +0.000 C 
BRANCH  22  23
ATOM     23  N   UNL     1       6.192  16.073  18.616  0.00  0.00    +0.000 N 
ATOM     24  C   UNL     1       5.138  16.863  18.978  0.00  0.00    +0.000 A 
ATOM     25  C   UNL     1       4.034  16.239  18.446  0.00  0.00    +0.000 A 
ATOM     26  N   UNL     1       4.394  15.102  17.769  0.00  0.00    +0.000 NA
ATOM     27  C   UNL     1       5.700  15.025  17.893  0.00  0.00    +0.000 A 
ENDBRANCH  22  23
ENDBRANCH  21  22
ENDBRANCH  20  21
ENDBRANCH  19  20
ENDBRANCH  16  19
ENDBRANCH   7  13
BRANCH   3  28
ATOM     28  C   UNL     1       4.393   3.303  16.933  0.00  0.00    +0.000 C 
BRANCH  28  29
ATOM     29  C   UNL     1       3.768   3.341  18.303  0.00  0.00    +0.000 A 
ATOM     30  C   UNL     1       3.416   4.572  18.883  0.00  0.00    +0.000 A 
ATOM     31  C   UNL     1       2.850   4.628  20.156  0.00  0.00    +0.000 A 
ATOM     32  C   UNL     1       2.630   3.446  20.854  0.00  0.00    +0.000 A 
ATOM     33  C   UNL     1       2.964   2.217  20.299  0.00  0.00    +0.000 A 
ATOM     34  C   UNL     1       3.533   2.162  19.025  0.00  0.00    +0.000 A 
BRANCH  32  35
ATOM     35  O   UNL     1       2.087   3.454  22.104  0.00  0.00    +0.000 OA
ATOM     36  H   UNL     1       2.437   4.220  22.588  0.00  0.00    +0.000 HD
ENDBRANCH  32  35
ENDBRANCH  28  29
ENDBRANCH   3  28
TORSDOF 9
ENDMDL
MODEL 7
REMARK VINA RESULT:      -7.2      2.531      3.532
REMARK  Name = 
REMARK  9 active torsions:
REMARK  status: ('A' for Active; 'I' for Inactive)
REMARK    1  A    between atoms: N_3  and  C_4
REMARK    2  A    between atoms: C_4  and  C_5
REMARK    3  A    between atoms: C_8  and  O_9
REMARK    4  A    between atoms: C_15  and  C_16
REMARK    5  A    between atoms: C_19  and  O_20
REMARK    6  A    between atoms: O_20  and  C_21
REMARK    7  A    between atoms: C_21  and  C_22
REMARK    8  A    between atoms: C_22  and  C_23
REMARK    9  A    between atoms: C_23  and  N_24
REMARK                            x       y       z     vdW  Elec       q    Type
REMARK                         _______ _______ _______ _____ _____    ______ ____
ROOT
ATOM      1  N   UNL     1      -0.865  13.702  23.409  0.00  0.00    +0.000 NA
ATOM      2  C   UNL     1      -0.947  13.038  22.306  0.00  0.00    +0.000 C 
ATOM      3  N   UNL     1      -2.001  13.092  21.461  0.00  0.00    +0.000 N 
ATOM      4  N   UNL     1       0.033  12.151  22.013  0.00  0.00    +0.000 N 
ATOM      5  C   UNL     1       0.298  11.419  20.912  0.00  0.00    +0.000 A 
ATOM      6  N   UNL     1       0.944  10.275  20.961  0.00  0.00    +0.000 NA
ATOM      7  C   UNL     1       1.006   9.692  19.713  0.00  0.00    +0.000 A 
ATOM      8  C   UNL     1       0.479  10.442  18.686  0.00  0.00    +0.000 A 
ATOM      9  S   UNL     1      -0.149  11.900  19.307  0.00  0.00    +0.000 S 
ATOM     10  H   UNL     1      -1.715  14.254  23.513  0.00  0.00    +0.000 HD
ATOM     11  H   UNL     1      -2.005  12.417  20.705  0.00  0.00    +0.000 HD
ATOM     12  H   UNL     1       0.636  11.974  22.807  0.00  0.00    +0.000 HD
ENDROOT
BRANCH   7  13
ATOM     13  C   UNL     1       1.539   8.353  19.545  0.00  0.00    +0.000 A 
ATOM     14  C   UNL     1       2.097   7.999  18.312  0.00  0.00    +0.000 A 
ATOM     15  C   UNL     1       2.635   6.725  18.114  0.00  0.00    +0.000 A 
ATOM     16  C   UNL     1       2.611   5.792  19.148  0.00  0.00    +0.000 A 
ATOM     17  C   UNL     1       2.036   6.133  20.373  0.00  0.00    +0.000 A 
ATOM     18  C   UNL     1       1.512   7.410  20.578  0.00  0.00    +0.000 A 
BRANCH  16  19
ATOM     19  O   UNL     1       3.070   4.508  19.060  0.00  0.00    +0.000 OA
BRANCH  19  20
ATOM     20  C   UNL     1       2.848   3.850  17.814  0.00  0.00    +0.000 C 
BRANCH  20  21
ATOM     21  C   UNL     1       4.169   3.241  17.359  0.00  0.00    +0.000 C 
BRANCH  21  22
ATOM     22  C   UNL     1       5.321   4.217  17.588  0.00  0.00    +0.000 C 
BRANCH  22  23
ATOM     23  N   UNL     1       6.025   4.532  16.363  0.00  0.00    +0.000 N 
ATOM     24  C   UNL     1       5.764   4.020  15.125  0.00  0.00    +0.000 A 
ATOM     25  C   UNL     1       6.715   4.582  14.306  0.00  0.00    +0.000 A 
ATOM     26  N   UNL     1       7.535   5.423  15.014  0.00  0.00    +0.000 NA
ATOM     27  C   UNL     1       7.099   5.368  16.252  0.00  0.00    +0.000 A 
ENDBRANCH  22  23
ENDBRANCH  21  22
ENDBRANCH  20  21
ENDBRANCH  19  20
ENDBRANCH  16  19
ENDBRANCH   7  13
BRANCH   3  28
ATOM     28  C   UNL     1      -2.887  14.203  21.222  0.00  0.00    +0.000 C 
BRANCH  28  29
ATOM     29  C   UNL     1      -4.103  14.064  22.100  0.00  0.00    +0.000 A 
ATOM     30  C   UNL     1      -4.412  15.065  23.038  0.00  0.00    +0.000 A 
ATOM     31  C   UNL     1      -5.526  14.947  23.869  0.00  0.00    +0.000 A 
ATOM     32  C   UNL     1      -6.337  13.823  23.762  0.00  0.00    +0.000 A 
ATOM     33  C   UNL     1      -6.055  12.824  22.839  0.00  0.00    +0.000 A 
ATOM     34  C   UNL     1      -4.939  12.941  22.008  0.00  0.00    +0.000 A 
BRANCH  32  35
ATOM     35  O   UNL     1      -7.430  13.662  24.560  0.00  0.00    +0.000 OA
ATOM     36  H   UNL     1      -7.212  13.980  25.451  0.00  0.00    +0.000 HD
ENDBRANCH  32  35
ENDBRANCH  28  29
ENDBRANCH   3  28
TORSDOF 9
ENDMDL
MODEL 8
REMARK VINA RESULT:      -7.2      2.085      2.912
REMARK  Name = 
REMARK  9 active torsions:
REMARK  status: ('A' for Active; 'I' for Inactive)
REMARK    1  A    between atoms: N_3  and  C_4
REMARK    2  A    between atoms: C_4  and  C_5
REMARK    3  A    between atoms: C_8  and  O_9
REMARK    4  A    between atoms: C_15  and  C_16
REMARK    5  A    between atoms: C_19  and  O_20
REMARK    6  A    between atoms: O_20  and  C_21
REMARK    7  A    between atoms: C_21  and  C_22
REMARK    8  A    between atoms: C_22  and  C_23
REMARK    9  A    between atoms: C_23  and  N_24
REMARK                            x       y       z     vdW  Elec       q    Type
REMARK                         _______ _______ _______ _____ _____    ______ ____
ROOT
ATOM      1  N   UNL     1      -3.883  12.313  18.438  0.00  0.00    +0.000 NA
ATOM      2  C   UNL     1      -2.767  12.117  19.055  0.00  0.00    +0.000 C 
ATOM      3  N   UNL     1      -2.125  13.056  19.786  0.00  0.00    +0.000 N 
ATOM      4  N   UNL     1      -2.136  10.932  18.885  0.00  0.00    +0.000 N 
ATOM      5  C   UNL     1      -1.053  10.385  19.475  0.00  0.00    +0.000 A 
ATOM      6  N   UNL     1      -0.291   9.498  18.872  0.00  0.00    +0.000 NA
ATOM      7  C   UNL     1       0.792   9.167  19.658  0.00  0.00    +0.000 A 
ATOM      8  C   UNL     1       0.808   9.740  20.911  0.00  0.00    +0.000 A 
ATOM      9  S   UNL     1      -0.549  10.754  21.092  0.00  0.00    +0.000 S 
ATOM     10  H   UNL     1      -4.176  13.274  18.606  0.00  0.00    +0.000 HD
ATOM     11  H   UNL     1      -1.191  12.820  20.099  0.00  0.00    +0.000 HD
ATOM     12  H   UNL     1      -2.534  10.394  18.126  0.00  0.00    +0.000 HD
ENDROOT
BRANCH   7  13
ATOM     13  C   UNL     1       1.853   8.322  19.143  0.00  0.00    +0.000 A 
ATOM     14  C   UNL     1       2.258   7.213  19.895  0.00  0.00    +0.000 A 
ATOM     15  C   UNL     1       3.264   6.366  19.427  0.00  0.00    +0.000 A 
ATOM     16  C   UNL     1       3.879   6.625  18.204  0.00  0.00    +0.000 A 
ATOM     17  C   UNL     1       3.493   7.741  17.460  0.00  0.00    +0.000 A 
ATOM     18  C   UNL     1       2.477   8.581  17.918  0.00  0.00    +0.000 A 
BRANCH  16  19
ATOM     19  O   UNL     1       4.897   5.892  17.664  0.00  0.00    +0.000 OA
BRANCH  19  20
ATOM     20  C   UNL     1       4.544   5.041  16.575  0.00  0.00    +0.000 C 
BRANCH  20  21
ATOM     21  C   UNL     1       4.396   3.622  17.112  0.00  0.00    +0.000 C 
BRANCH  21  22
ATOM     22  C   UNL     1       2.926   3.287  17.359  0.00  0.00    +0.000 C 
BRANCH  22  23
ATOM     23  N   UNL     1       2.658   2.978  18.746  0.00  0.00    +0.000 N 
ATOM     24  C   UNL     1       1.439   2.696  19.292  0.00  0.00    +0.000 A 
ATOM     25  C   UNL     1       1.689   2.516  20.632  0.00  0.00    +0.000 A 
ATOM     26  N   UNL     1       3.023   2.674  20.907  0.00  0.00    +0.000 NA
ATOM     27  C   UNL     1       3.582   2.958  19.752  0.00  0.00    +0.000 A 
ENDBRANCH  22  23
ENDBRANCH  21  22
ENDBRANCH  20  21
ENDBRANCH  19  20
ENDBRANCH  16  19
ENDBRANCH   7  13
BRANCH   3  28
ATOM     28  C   UNL     1      -2.706  14.145  20.530  0.00  0.00    +0.000 C 
BRANCH  28  29
ATOM     29  C   UNL     1      -3.262  13.617  21.827  0.00  0.00    +0.000 A 
ATOM     30  C   UNL     1      -4.650  13.452  21.983  0.00  0.00    +0.000 A 
ATOM     31  C   UNL     1      -5.184  12.978  23.180  0.00  0.00    +0.000 A 
ATOM     32  C   UNL     1      -4.328  12.663  24.228  0.00  0.00    +0.000 A 
ATOM     33  C   UNL     1      -2.953  12.812  24.096  0.00  0.00    +0.000 A 
ATOM     34  C   UNL     1      -2.418  13.289  22.898  0.00  0.00    +0.000 A 
BRANCH  32  35
ATOM     35  O   UNL     1      -4.807  12.205  25.419  0.00  0.00    +0.000 OA
ATOM     36  H   UNL     1      -5.651  12.649  25.605  0.00  0.00    +0.000 HD
ENDBRANCH  32  35
ENDBRANCH  28  29
ENDBRANCH   3  28
TORSDOF 9
ENDMDL
MODEL 9
REMARK VINA RESULT:      -7.1      2.654      3.692
REMARK  Name = 
REMARK  9 active torsions:
REMARK  status: ('A' for Active; 'I' for Inactive)
REMARK    1  A    between atoms: N_3  and  C_4
REMARK    2  A    between atoms: C_4  and  C_5
REMARK    3  A    between atoms: C_8  and  O_9
REMARK    4  A    between atoms: C_15  and  C_16
REMARK    5  A    between atoms: C_19  and  O_20
REMARK    6  A    between atoms: O_20  and  C_21
REMARK    7  A    between atoms: C_21  and  C_22
REMARK    8  A    between atoms: C_22  and  C_23
REMARK    9  A    between atoms: C_23  and  N_24
REMARK                            x       y       z     vdW  Elec       q    Type
REMARK                         _______ _______ _______ _____ _____    ______ ____
ROOT
ATOM      1  N   UNL     1      -2.400  12.092  23.747  0.00  0.00    +0.000 NA
ATOM      2  C   UNL     1      -1.994  11.800  22.556  0.00  0.00    +0.000 C 
ATOM      3  N   UNL     1      -2.626  12.180  21.422  0.00  0.00    +0.000 N 
ATOM      4  N   UNL     1      -0.927  10.980  22.422  0.00  0.00    +0.000 N 
ATOM      5  C   UNL     1      -0.200  10.601  21.351  0.00  0.00    +0.000 A 
ATOM      6  N   UNL     1       0.443   9.454  21.301  0.00  0.00    +0.000 NA
ATOM      7  C   UNL     1       1.032   9.275  20.068  0.00  0.00    +0.000 A 
ATOM      8  C   UNL     1       0.912  10.335  19.198  0.00  0.00    +0.000 A 
ATOM      9  S   UNL     1       0.000  11.575  19.930  0.00  0.00    +0.000 S 
ATOM     10  H   UNL     1      -3.253  12.642  23.667  0.00  0.00    +0.000 HD
ATOM     11  H   UNL     1      -2.287  11.768  20.561  0.00  0.00    +0.000 HD
ATOM     12  H   UNL     1      -0.679  10.530  23.295  0.00  0.00    +0.000 HD
ENDROOT
BRANCH   7  13
ATOM     13  C   UNL     1       1.669   8.017  19.725  0.00  0.00    +0.000 A 
ATOM     14  C   UNL     1       2.348   7.914  18.507  0.00  0.00    +0.000 A 
ATOM     15  C   UNL     1       2.988   6.726  18.146  0.00  0.00    +0.000 A 
ATOM     16  C   UNL     1       2.948   5.627  19.002  0.00  0.00    +0.000 A 
ATOM     17  C   UNL     1       2.253   5.718  20.210  0.00  0.00    +0.000 A 
ATOM     18  C   UNL     1       1.625   6.908  20.578  0.00  0.00    +0.000 A 
BRANCH  16  19
ATOM     19  O   UNL     1       3.501   4.406  18.741  0.00  0.00    +0.000 OA
BRANCH  19  20
ATOM     20  C   UNL     1       4.787   4.169  19.310  0.00  0.00    +0.000 C 
BRANCH  20  21
ATOM     21  C   UNL     1       5.833   4.406  18.227  0.00  0.00    +0.000 C 
BRANCH  21  22
ATOM     22  C   UNL     1       5.391   3.783  16.903  0.00  0.00    +0.000 C 
BRANCH  22  23
ATOM     23  N   UNL     1       6.127   4.313  15.775  0.00  0.00    +0.000 N 
ATOM     24  C   UNL     1       5.889   4.047  14.457  0.00  0.00    +0.000 A 
ATOM     25  C   UNL     1       6.865   4.738  13.779  0.00  0.00    +0.000 A 
ATOM     26  N   UNL     1       7.678   5.417  14.650  0.00  0.00    +0.000 NA
ATOM     27  C   UNL     1       7.212   5.137  15.846  0.00  0.00    +0.000 A 
ENDBRANCH  22  23
ENDBRANCH  21  22
ENDBRANCH  20  21
ENDBRANCH  19  20
ENDBRANCH  16  19
ENDBRANCH   7  13
BRANCH   3  28
ATOM     28  C   UNL     1      -3.410  13.368  21.203  0.00  0.00    +0.000 C 
BRANCH  28  29
ATOM     29  C   UNL     1      -4.395  13.113  20.091  0.00  0.00    +0.000 A 
ATOM     30  C   UNL     1      -4.146  12.099  19.149  0.00  0.00    +0.000 A 
ATOM     31  C   UNL     1      -5.038  11.857  18.106  0.00  0.00    +0.000 A 
ATOM     32  C   UNL     1      -6.188  12.631  18.003  0.00  0.00    +0.000 A 
ATOM     33  C   UNL     1      -6.458  13.635  18.925  0.00  0.00    +0.000 A 
ATOM     34  C   UNL     1      -5.564  13.878  19.968  0.00  0.00    +0.000 A 
BRANCH  32  35
ATOM     35  O   UNL     1      -7.084  12.436  16.994  0.00  0.00    +0.000 OA
ATOM     36  H   UNL     1      -6.702  12.782  16.170  0.00  0.00    +0.000 HD
ENDBRANCH  32  35
ENDBRANCH  28  29
ENDBRANCH   3  28
TORSDOF 9
ENDMDL
