MODEL 1
REMARK VINA RESULT:      -7.5      0.000      0.000
REMARK  Name = 
REMARK  5 active torsions:
REMARK  status: ('A' for Active; 'I' for Inactive)
REMARK    1  A    between atoms: C_1  and  C_2
REMARK    2  A    between atoms: C_3  and  C_4
REMARK    3  A    between atoms: C_4  and  C_5
REMARK    4  A    between atoms: C_9  and  C_10
REMARK    5  A    between atoms: C_14  and  C_15
REMARK                            x       y       z     vdW  Elec       q    Type
REMARK                         _______ _______ _______ _____ _____    ______ ____
ROOT
ATOM      1  C   UNL     1       3.709   5.623  19.482  0.00  0.00    +0.000 C 
ATOM      2  O   UNL     1       2.938   5.086  20.564  0.00  0.00    +0.000 OA
ATOM      3  C   UNL     1       2.507   3.849  20.795  0.00  0.00    +0.000 C 
ATOM      4  O   UNL     1       2.217   3.583  21.965  0.00  0.00    +0.000 OA
ATOM      5  C   UNL     1       2.481   2.759  19.729  0.00  0.00    +0.000 C 
ATOM      6  C   UNL     1       1.575   1.634  20.286  0.00  0.00    +0.000 C 
ATOM      7  C   UNL     1       2.206   2.967  18.222  0.00  0.00    +0.000 C 
ATOM      8  C   UNL     1       1.487   4.151  17.582  0.00  0.00    +0.000 C 
ATOM      9  C   UNL     1       1.851   5.591  17.742  0.00  0.00    +0.000 C 
ATOM     10  C   UNL     1       2.750   6.235  18.503  0.00  0.00    +0.000 C 
ATOM     11  C   UNL     1       2.695   7.751  18.578  0.00  0.00    +0.000 C 
ENDROOT
BRANCH   1  12
ATOM     12  C   UNL     1       4.921   4.802  19.009  0.00  0.00    +0.000 C 
BRANCH  12  15
ATOM     13  C   UNL     1       5.262   6.512  16.135  0.00  0.00    +0.000 C 
ATOM     14  C   UNL     1       6.166   6.358  17.315  0.00  0.00    +0.000 C 
ATOM     15  C   UNL     1       6.028   5.645  18.438  0.00  0.00    +0.000 C 
ATOM     16  C   UNL     1       7.276   5.862  19.208  0.00  0.00    +0.000 C 
ATOM     17  O   UNL     1       7.530   5.351  20.280  0.00  0.00    +0.000 OA
ATOM     18  O   UNL     1       8.083   6.720  18.530  0.00  0.00    +0.000 OA
ATOM     19  C   UNL     1       7.445   7.113  17.320  0.00  0.00    +0.000 C 
ENDBRANCH  12  15
ENDBRANCH   1  12
TORSDOF 2
ENDMDL
MODEL 2
REMARK VINA RESULT:      -7.1      2.578      3.039
REMARK  Name = 
REMARK  5 active torsions:
REMARK  status: ('A' for Active; 'I' for Inactive)
REMARK    1  A    between atoms: C_1  and  C_2
REMARK    2  A    between atoms: C_3  and  C_4
REMARK    3  A    between atoms: C_4  and  C_5
REMARK    4  A    between atoms: C_9  and  C_10
REMARK    5  A    between atoms: C_14  and  C_15
REMARK                            x       y       z     vdW  Elec       q    Type
REMARK                         _______ _______ _______ _____ _____    ______ ____
ROOT
ATOM      1  C   UNL     1       5.143   4.633  17.516  0.00  0.00    +0.000 C 
ATOM      2  O   UNL     1       5.060   3.980  18.789  0.00  0.00    +0.000 OA
ATOM      3  C   UNL     1       4.273   2.995  19.212  0.00  0.00    +0.000 C 
ATOM      4  O   UNL     1       4.669   2.365  20.197  0.00  0.00    +0.000 OA
ATOM      5  C   UNL     1       3.013   2.557  18.475  0.00  0.00    +0.000 C 
ATOM      6  C   UNL     1       2.211   1.685  19.473  0.00  0.00    +0.000 C 
ATOM      7  C   UNL     1       2.055   3.476  17.683  0.00  0.00    +0.000 C 
ATOM      8  C   UNL     1       1.905   4.987  17.840  0.00  0.00    +0.000 C 
ATOM      9  C   UNL     1       3.003   5.995  17.737  0.00  0.00    +0.000 C 
ATOM     10  C   UNL     1       4.334   5.895  17.603  0.00  0.00    +0.000 C 
ATOM     11  C   UNL     1       5.182   7.147  17.757  0.00  0.00    +0.000 C 
ENDROOT
BRANCH   1  12
ATOM     12  C   UNL     1       5.101   3.740  16.265  0.00  0.00    +0.000 C 
BRANCH  12  15
ATOM     13  C   UNL     1       4.993   3.580  12.909  0.00  0.00    +0.000 C 
ATOM     14  C   UNL     1       6.004   4.158  13.846  0.00  0.00    +0.000 C 
ATOM     15  C   UNL     1       6.047   4.182  15.183  0.00  0.00    +0.000 C 
ATOM     16  C   UNL     1       7.319   4.859  15.531  0.00  0.00    +0.000 C 
ATOM     17  O   UNL     1       7.722   5.044  16.662  0.00  0.00    +0.000 OA
ATOM     18  O   UNL     1       7.958   5.238  14.393  0.00  0.00    +0.000 OA
ATOM     19  C   UNL     1       7.178   4.857  13.265  0.00  0.00    +0.000 C 
ENDBRANCH  12  15
ENDBRANCH   1  12
TORSDOF 2
ENDMDL
MODEL 3
REMARK VINA RESULT:      -7.0      1.557      3.095
REMARK  Name = 
REMARK  5 active torsions:
REMARK  status: ('A' for Active; 'I' for Inactive)
REMARK    1  A    between atoms: C_1  and  C_2
REMARK    2  A    between atoms: C_3  and  C_4
REMARK    3  A    between atoms: C_4  and  C_5
REMARK    4  A    between atoms: C_9  and  C_10
REMARK    5  A    between atoms: C_14  and  C_15
REMARK                            x       y       z     vdW  Elec       q    Type
REMARK                         _______ _______ _______ _____ _____    ______ ____
ROOT
ATOM      1  C   UNL     1       3.601   4.615  18.180  0.00  0.00    +0.000 C 
ATOM      2  O   UNL     1       2.848   5.779  17.821  0.00  0.00    +0.000 OA
ATOM      3  C   UNL     1       2.413   6.796  18.559  0.00  0.00    +0.000 C 
ATOM      4  O   UNL     1       2.143   7.836  17.951  0.00  0.00    +0.000 OA
ATOM      5  C   UNL     1       2.359   6.760  20.083  0.00  0.00    +0.000 C 
ATOM      6  C   UNL     1       1.456   7.944  20.510  0.00  0.00    +0.000 C 
ATOM      7  C   UNL     1       2.057   5.520  20.954  0.00  0.00    +0.000 C 
ATOM      8  C   UNL     1       1.334   4.251  20.513  0.00  0.00    +0.000 C 
ATOM      9  C   UNL     1       1.710   3.381  19.357  0.00  0.00    +0.000 C 
ATOM     10  C   UNL     1       2.627   3.490  18.384  0.00  0.00    +0.000 C 
ATOM     11  C   UNL     1       2.584   2.511  17.223  0.00  0.00    +0.000 C 
ENDROOT
BRANCH   1  12
ATOM     12  C   UNL     1       4.798   4.817  19.124  0.00  0.00    +0.000 C 
BRANCH  12  15
ATOM     13  C   UNL     1       5.219   6.267  16.121  0.00  0.00    +0.000 C 
ATOM     14  C   UNL     1       6.116   6.164  17.311  0.00  0.00    +0.000 C 
ATOM     15  C   UNL     1       5.945   5.552  18.488  0.00  0.00    +0.000 C 
ATOM     16  C   UNL     1       7.204   5.769  19.240  0.00  0.00    +0.000 C 
ATOM     17  O   UNL     1       7.435   5.334  20.350  0.00  0.00    +0.000 OA
ATOM     18  O   UNL     1       8.053   6.526  18.496  0.00  0.00    +0.000 OA
ATOM     19  C   UNL     1       7.432   6.851  17.257  0.00  0.00    +0.000 C 
ENDBRANCH  12  15
ENDBRANCH   1  12
TORSDOF 2
ENDMDL
MODEL 4
REMARK VINA RESULT:      -6.9      2.026      5.245
REMARK  Name = 
REMARK  5 active torsions:
REMARK  status: ('A' for Active; 'I' for Inactive)
REMARK    1  A    between atoms: C_1  and  C_2
REMARK    2  A    between atoms: C_3  and  C_4
REMARK    3  A    between atoms: C_4  and  C_5
REMARK    4  A    between atoms: C_9  and  C_10
REMARK    5  A    between atoms: C_14  and  C_15
REMARK                            x       y       z     vdW  Elec       q    Type
REMARK                         _______ _______ _______ _____ _____    ______ ____
ROOT
ATOM      1  C   UNL     1       3.838   4.441  18.308  0.00  0.00    +0.000 C 
ATOM      2  O   UNL     1       5.054   4.631  19.041  0.00  0.00    +0.000 OA
ATOM      3  C   UNL     1       6.053   5.491  18.863  0.00  0.00    +0.000 C 
ATOM      4  O   UNL     1       6.769   5.706  19.845  0.00  0.00    +0.000 OA
ATOM      5  C   UNL     1       6.255   6.282  17.576  0.00  0.00    +0.000 C 
ATOM      6  C   UNL     1       7.697   6.844  17.637  0.00  0.00    +0.000 C 
ATOM      7  C   UNL     1       5.936   5.791  16.145  0.00  0.00    +0.000 C 
ATOM      8  C   UNL     1       5.801   4.340  15.690  0.00  0.00    +0.000 C 
ATOM      9  C   UNL     1       4.883   3.317  16.275  0.00  0.00    +0.000 C 
ATOM     10  C   UNL     1       4.065   3.316  17.339  0.00  0.00    +0.000 C 
ATOM     11  C   UNL     1       3.436   2.004  17.779  0.00  0.00    +0.000 C 
ENDROOT
BRANCH   1  12
ATOM     12  C   UNL     1       3.061   5.703  17.900  0.00  0.00    +0.000 C 
BRANCH  12  15
ATOM     13  C   UNL     1       1.822   4.616  20.830  0.00  0.00    +0.000 C 
ATOM     14  C   UNL     1       1.929   5.986  20.241  0.00  0.00    +0.000 C 
ATOM     15  C   UNL     1       2.395   6.396  19.056  0.00  0.00    +0.000 C 
ATOM     16  C   UNL     1       2.201   7.866  19.036  0.00  0.00    +0.000 C 
ATOM     17  O   UNL     1       2.482   8.592  18.104  0.00  0.00    +0.000 OA
ATOM     18  O   UNL     1       1.663   8.269  20.217  0.00  0.00    +0.000 OA
ATOM     19  C   UNL     1       1.480   7.138  21.062  0.00  0.00    +0.000 C 
ENDBRANCH  12  15
ENDBRANCH   1  12
TORSDOF 2
ENDMDL
MODEL 5
REMARK VINA RESULT:      -6.8      1.105      1.138
REMARK  Name = 
REMARK  5 active torsions:
REMARK  status: ('A' for Active; 'I' for Inactive)
REMARK    1  A    between atoms: C_1  and  C_2
REMARK    2  A    between atoms: C_3  and  C_4
REMARK    3  A    between atoms: C_4  and  C_5
REMARK    4  A    between atoms: C_9  and  C_10
REMARK    5  A    between atoms: C_14  and  C_15
REMARK                            x       y       z     vdW  Elec       q    Type
REMARK                         _______ _______ _______ _____ _____    ______ ____
ROOT
ATOM      1  C   UNL     1       3.976   5.301  19.347  0.00  0.00    +0.000 C 
ATOM      2  O   UNL     1       3.164   5.069  20.503  0.00  0.00    +0.000 OA
ATOM      3  C   UNL     1       2.507   3.983  20.902  0.00  0.00    +0.000 C 
ATOM      4  O   UNL     1       2.222   3.928  22.102  0.00  0.00    +0.000 OA
ATOM      5  C   UNL     1       2.218   2.798  19.987  0.00  0.00    +0.000 C 
ATOM      6  C   UNL     1       1.132   1.956  20.703  0.00  0.00    +0.000 C 
ATOM      7  C   UNL     1       1.923   2.869  18.471  0.00  0.00    +0.000 C 
ATOM      8  C   UNL     1       1.424   4.085  17.696  0.00  0.00    +0.000 C 
ATOM      9  C   UNL     1       2.073   5.430  17.660  0.00  0.00    +0.000 C 
ATOM     10  C   UNL     1       3.114   5.968  18.314  0.00  0.00    +0.000 C 
ATOM     11  C   UNL     1       3.364   7.462  18.192  0.00  0.00    +0.000 C 
ENDROOT
BRANCH   1  12
ATOM     12  C   UNL     1       4.979   4.201  18.961  0.00  0.00    +0.000 C 
BRANCH  12  15
ATOM     13  C   UNL     1       4.895   4.065  15.603  0.00  0.00    +0.000 C 
ATOM     14  C   UNL     1       5.915   4.606  16.553  0.00  0.00    +0.000 C 
ATOM     15  C   UNL     1       5.947   4.621  17.890  0.00  0.00    +0.000 C 
ATOM     16  C   UNL     1       7.236   5.258  18.253  0.00  0.00    +0.000 C 
ATOM     17  O   UNL     1       7.634   5.423  19.389  0.00  0.00    +0.000 OA
ATOM     18  O   UNL     1       7.895   5.625  17.123  0.00  0.00    +0.000 OA
ATOM     19  C   UNL     1       7.114   5.274  15.986  0.00  0.00    +0.000 C 
ENDBRANCH  12  15
ENDBRANCH   1  12
TORSDOF 2
ENDMDL
MODEL 6
REMARK VINA RESULT:      -6.8      2.526      3.524
REMARK  Name = 
REMARK  5 active torsions:
REMARK  status: ('A' for Active; 'I' for Inactive)
REMARK    1  A    between atoms: C_1  and  C_2
REMARK    2  A    between atoms: C_3  and  C_4
REMARK    3  A    between atoms: C_4  and  C_5
REMARK    4  A    between atoms: C_9  and  C_10
REMARK    5  A    between atoms: C_14  and  C_15
REMARK                            x       y       z     vdW  Elec       q    Type
REMARK                         _______ _______ _______ _____ _____    ______ ____
ROOT
ATOM      1  C   UNL     1       5.296   4.359  17.643  0.00  0.00    +0.000 C 
ATOM      2  O   UNL     1       4.774   3.110  18.109  0.00  0.00    +0.000 OA
ATOM      3  C   UNL     1       3.536   2.625  18.097  0.00  0.00    +0.000 C 
ATOM      4  O   UNL     1       3.429   1.398  18.191  0.00  0.00    +0.000 OA
ATOM      5  C   UNL     1       2.302   3.487  17.854  0.00  0.00    +0.000 C 
ATOM      6  C   UNL     1       1.087   2.637  18.299  0.00  0.00    +0.000 C 
ATOM      7  C   UNL     1       2.116   4.956  18.300  0.00  0.00    +0.000 C 
ATOM      8  C   UNL     1       2.876   5.673  19.413  0.00  0.00    +0.000 C 
ATOM      9  C   UNL     1       4.360   5.799  19.524  0.00  0.00    +0.000 C 
ATOM     10  C   UNL     1       5.383   5.283  18.824  0.00  0.00    +0.000 C 
ATOM     11  C   UNL     1       6.795   5.446  19.361  0.00  0.00    +0.000 C 
ENDROOT
BRANCH   1  12
ATOM     12  C   UNL     1       4.807   4.857  16.273  0.00  0.00    +0.000 C 
BRANCH  12  15
ATOM     13  C   UNL     1       5.034   3.382  13.261  0.00  0.00    +0.000 C 
ATOM     14  C   UNL     1       5.965   4.289  13.998  0.00  0.00    +0.000 C 
ATOM     15  C   UNL     1       5.873   4.840  15.213  0.00  0.00    +0.000 C 
ATOM     16  C   UNL     1       7.128   5.607  15.402  0.00  0.00    +0.000 C 
ATOM     17  O   UNL     1       7.420   6.227  16.405  0.00  0.00    +0.000 OA
ATOM     18  O   UNL     1       7.893   5.508  14.283  0.00  0.00    +0.000 OA
ATOM     19  C   UNL     1       7.218   4.707  13.320  0.00  0.00    +0.000 C 
ENDBRANCH  12  15
ENDBRANCH   1  12
TORSDOF 2
ENDMDL
MODEL 7
REMARK VINA RESULT:      -6.8      2.428      5.031
REMARK  Name = 
REMARK  5 active torsions:
REMARK  status: ('A' for Active; 'I' for Inactive)
REMARK    1  A    between atoms: C_1  and  C_2
REMARK    2  A    between atoms: C_3  and  C_4
REMARK    3  A    between atoms: C_4  and  C_5
REMARK    4  A    between atoms: C_9  and  C_10
REMARK    5  A    between atoms: C_14  and  C_15
REMARK                            x       y       z     vdW  Elec       q    Type
REMARK                         _______ _______ _______ _____ _____    ______ ____
ROOT
ATOM      1  C   UNL     1       3.145   5.635  19.216  0.00  0.00    +0.000 C 
ATOM      2  O   UNL     1       4.428   5.234  19.713  0.00  0.00    +0.000 OA
ATOM      3  C   UNL     1       5.621   5.214  19.126  0.00  0.00    +0.000 C 
ATOM      4  O   UNL     1       6.599   5.205  19.879  0.00  0.00    +0.000 OA
ATOM      5  C   UNL     1       5.813   5.323  17.617  0.00  0.00    +0.000 C 
ATOM      6  C   UNL     1       7.268   4.876  17.334  0.00  0.00    +0.000 C 
ATOM      7  C   UNL     1       4.863   4.760  16.536  0.00  0.00    +0.000 C 
ATOM      8  C   UNL     1       3.841   3.641  16.715  0.00  0.00    +0.000 C 
ATOM      9  C   UNL     1       2.748   3.604  17.733  0.00  0.00    +0.000 C 
ATOM     10  C   UNL     1       2.426   4.396  18.768  0.00  0.00    +0.000 C 
ATOM     11  C   UNL     1       1.362   3.927  19.746  0.00  0.00    +0.000 C 
ENDROOT
BRANCH   1  12
ATOM     12  C   UNL     1       3.085   6.935  18.397  0.00  0.00    +0.000 C 
BRANCH  12  15
ATOM     13  C   UNL     1       1.424   7.151  21.312  0.00  0.00    +0.000 C 
ATOM     14  C   UNL     1       1.525   8.088  20.151  0.00  0.00    +0.000 C 
ATOM     15  C   UNL     1       2.165   7.970  18.983  0.00  0.00    +0.000 C 
ATOM     16  C   UNL     1       1.857   9.210  18.230  0.00  0.00    +0.000 C 
ATOM     17  O   UNL     1       2.243   9.454  17.105  0.00  0.00    +0.000 OA
ATOM     18  O   UNL     1       1.080  10.023  18.993  0.00  0.00    +0.000 OA
ATOM     19  C   UNL     1       0.839   9.401  20.251  0.00  0.00    +0.000 C 
ENDBRANCH  12  15
ENDBRANCH   1  12
TORSDOF 2
ENDMDL
MODEL 8
REMARK VINA RESULT:      -6.8      2.019      3.460
REMARK  Name = 
REMARK  5 active torsions:
REMARK  status: ('A' for Active; 'I' for Inactive)
REMARK    1  A    between atoms: C_1  and  C_2
REMARK    2  A    between atoms: C_3  and  C_4
REMARK    3  A    between atoms: C_4  and  C_5
REMARK    4  A    between atoms: C_9  and  C_10
REMARK    5  A    between atoms: C_14  and  C_15
REMARK                            x       y       z     vdW  Elec       q    Type
REMARK                         _______ _______ _______ _____ _____    ______ ____
ROOT
ATOM      1  C   UNL     1       3.284   5.376  17.971  0.00  0.00    +0.000 C 
ATOM      2  O   UNL     1       2.442   6.492  17.655  0.00  0.00    +0.000 OA
ATOM      3  C   UNL     1       2.034   7.513  18.404  0.00  0.00    +0.000 C 
ATOM      4  O   UNL     1       1.655   8.518  17.795  0.00  0.00    +0.000 OA
ATOM      5  C   UNL     1       2.133   7.527  19.925  0.00  0.00    +0.000 C 
ATOM      6  C   UNL     1       1.220   8.683  20.406  0.00  0.00    +0.000 C 
ATOM      7  C   UNL     1       1.980   6.304  20.858  0.00  0.00    +0.000 C 
ATOM      8  C   UNL     1       1.279   4.989  20.529  0.00  0.00    +0.000 C 
ATOM      9  C   UNL     1       1.580   4.099  19.368  0.00  0.00    +0.000 C 
ATOM     10  C   UNL     1       2.391   4.216  18.304  0.00  0.00    +0.000 C 
ATOM     11  C   UNL     1       2.280   3.197  17.183  0.00  0.00    +0.000 C 
ENDROOT
BRANCH   1  12
ATOM     12  C   UNL     1       4.557   5.665  18.783  0.00  0.00    +0.000 C 
BRANCH  12  15
ATOM     13  C   UNL     1       5.261   4.593  15.676  0.00  0.00    +0.000 C 
ATOM     14  C   UNL     1       6.117   4.761  16.889  0.00  0.00    +0.000 C 
ATOM     15  C   UNL     1       5.812   5.158  18.129  0.00  0.00    +0.000 C 
ATOM     16  C   UNL     1       7.078   5.082  18.898  0.00  0.00    +0.000 C 
ATOM     17  O   UNL     1       7.191   5.341  20.079  0.00  0.00    +0.000 OA
ATOM     18  O   UNL     1       8.084   4.679  18.077  0.00  0.00    +0.000 OA
ATOM     19  C   UNL     1       7.570   4.477  16.765  0.00  0.00    +0.000 C 
ENDBRANCH  12  15
ENDBRANCH   1  12
TORSDOF 2
ENDMDL
MODEL 9
REMARK VINA RESULT:      -6.7      1.492      5.485
REMARK  Name = 
REMARK  5 active torsions:
REMARK  status: ('A' for Active; 'I' for Inactive)
REMARK    1  A    between atoms: C_1  and  C_2
REMARK    2  A    between atoms: C_3  and  C_4
REMARK    3  A    between atoms: C_4  and  C_5
REMARK    4  A    between atoms: C_9  and  C_10
REMARK    5  A    between atoms: C_14  and  C_15
REMARK                            x       y       z     vdW  Elec       q    Type
REMARK                         _______ _______ _______ _____ _____    ______ ____
ROOT
ATOM      1  C   UNL     1       4.883   3.814  18.969  0.00  0.00    +0.000 C 
ATOM      2  O   UNL     1       6.283   4.119  19.002  0.00  0.00    +0.000 OA
ATOM      3  C   UNL     1       6.930   5.260  18.785  0.00  0.00    +0.000 C 
ATOM      4  O   UNL     1       8.068   5.341  19.257  0.00  0.00    +0.000 OA
ATOM      5  C   UNL     1       6.292   6.467  18.107  0.00  0.00    +0.000 C 
ATOM      6  C   UNL     1       7.459   7.405  17.708  0.00  0.00    +0.000 C 
ATOM      7  C   UNL     1       5.235   6.425  16.979  0.00  0.00    +0.000 C 
ATOM      8  C   UNL     1       4.959   5.260  16.033  0.00  0.00    +0.000 C 
ATOM      9  C   UNL     1       4.624   3.861  16.436  0.00  0.00    +0.000 C 
ATOM     10  C   UNL     1       4.580   3.229  17.620  0.00  0.00    +0.000 C 
ATOM     11  C   UNL     1       4.415   1.719  17.639  0.00  0.00    +0.000 C 
ENDROOT
BRANCH   1  12
ATOM     12  C   UNL     1       3.930   4.818  19.639  0.00  0.00    +0.000 C 
BRANCH  12  15
ATOM     13  C   UNL     1       1.272   4.545  17.598  0.00  0.00    +0.000 C 
ATOM     14  C   UNL     1       1.482   4.138  19.021  0.00  0.00    +0.000 C 
ATOM     15  C   UNL     1       2.537   4.285  19.829  0.00  0.00    +0.000 C 
ATOM     16  C   UNL     1       2.126   3.716  21.135  0.00  0.00    +0.000 C 
ATOM     17  O   UNL     1       2.817   3.694  22.133  0.00  0.00    +0.000 OA
ATOM     18  O   UNL     1       0.862   3.224  21.038  0.00  0.00    +0.000 OA
ATOM     19  C   UNL     1       0.379   3.424  19.714  0.00  0.00    +0.000 C 
ENDBRANCH  12  15
ENDBRANCH   1  12
TORSDOF 2
ENDMDL
