MODEL 1
REMARK VINA RESULT:      -8.4      0.000      0.000
REMARK  Name = 
REMARK  4 active torsions:
REMARK  status: ('A' for Active; 'I' for Inactive)
REMARK    1  A    between atoms: C_1  and  C_2
REMARK    2  A    between atoms: C_8  and  C_9
REMARK    3  A    between atoms: N_14  and  S_15
REMARK    4  A    between atoms: S_15  and  C_18
REMARK                            x       y       z     vdW  Elec       q    Type
REMARK                         _______ _______ _______ _____ _____    ______ ____
ROOT
ATOM      1  C   UNL     1       2.483   7.478  18.698  0.00  0.00    +0.000 C 
ATOM      2  O   UNL     1       3.260   8.069  17.947  0.00  0.00    +0.000 OA
ATOM      3  N   UNL     1       1.504   8.158  19.421  0.00  0.00    +0.000 N 
ATOM      4  C   UNL     1       1.272   9.575  19.082  0.00  0.00    +0.000 C 
ATOM      5  C   UNL     1      -0.132  10.064  19.493  0.00  0.00    +0.000 C 
ATOM      6  N   UNL     1      -0.449   9.742  20.923  0.00  0.00    +0.000 NA
ATOM      7  C   UNL     1      -0.269   8.263  21.149  0.00  0.00    +0.000 C 
ATOM      8  C   UNL     1       1.162   7.819  20.814  0.00  0.00    +0.000 C 
ENDROOT
BRANCH   1  16
ATOM      9  C   UNL     1       4.859   6.270  16.395  0.00  0.00    +0.000 C 
ATOM     10  C   UNL     1       4.390   5.218  17.403  0.00  0.00    +0.000 C 
ATOM     11  C   UNL     1       4.687   3.809  16.890  0.00  0.00    +0.000 C 
ATOM     12  C   UNL     1       3.552   2.961  17.420  0.00  0.00    +0.000 C 
ATOM     13  C   UNL     1       2.423   3.945  17.552  0.00  0.00    +0.000 C 
ATOM     14  O   UNL     1       1.256   3.649  17.760  0.00  0.00    +0.000 OA
ATOM     15  N   UNL     1       2.949   5.244  17.636  0.00  0.00    +0.000 N 
ATOM     16  C   UNL     1       2.560   5.937  18.881  0.00  0.00    +0.000 C 
ATOM     17  C   UNL     1       3.580   5.462  19.918  0.00  0.00    +0.000 C 
ATOM     18  S   UNL     1       5.169   5.507  19.034  0.00  0.00    +0.000 S 
ENDBRANCH   1  16
BRANCH   6  19
ATOM     19  S   UNL     1       0.270  10.764  22.096  0.00  0.00    +0.000 S 
ATOM     20  O   UNL     1       0.430  10.001  23.315  0.00  0.00    +0.000 OA
ATOM     21  O   UNL     1       1.391  11.432  21.485  0.00  0.00    +0.000 OA
BRANCH  19  22
ATOM     22  C   UNL     1      -0.985  11.989  22.405  0.00  0.00    +0.000 A 
ATOM     23  C   UNL     1      -0.904  13.249  21.796  0.00  0.00    +0.000 A 
ATOM     24  C   UNL     1      -1.859  14.223  22.096  0.00  0.00    +0.000 A 
ATOM     25  C   UNL     1      -2.899  13.929  22.979  0.00  0.00    +0.000 A 
ATOM     26  C   UNL     1      -2.984  12.659  23.555  0.00  0.00    +0.000 A 
ATOM     27 CL   UNL     1      -4.307  12.287  24.592  0.00  0.00    +0.000 Cl
ATOM     28  C   UNL     1      -2.023  11.688  23.287  0.00  0.00    +0.000 A 
ENDBRANCH  19  22
ENDBRANCH   6  19
TORSDOF 3
ENDMDL
MODEL 2
REMARK VINA RESULT:      -8.1      0.983      1.337
REMARK  Name = 
REMARK  4 active torsions:
REMARK  status: ('A' for Active; 'I' for Inactive)
REMARK    1  A    between atoms: C_1  and  C_2
REMARK    2  A    between atoms: C_8  and  C_9
REMARK    3  A    between atoms: N_14  and  S_15
REMARK    4  A    between atoms: S_15  and  C_18
REMARK                            x       y       z     vdW  Elec       q    Type
REMARK                         _______ _______ _______ _____ _____    ______ ____
ROOT
ATOM      1  C   UNL     1       2.509   7.411  18.650  0.00  0.00    +0.000 C 
ATOM      2  O   UNL     1       3.286   7.975  17.880  0.00  0.00    +0.000 OA
ATOM      3  N   UNL     1       1.557   8.121  19.381  0.00  0.00    +0.000 N 
ATOM      4  C   UNL     1       1.351   9.539  19.029  0.00  0.00    +0.000 C 
ATOM      5  C   UNL     1      -0.034  10.063  19.457  0.00  0.00    +0.000 C 
ATOM      6  N   UNL     1      -0.334   9.765  20.896  0.00  0.00    +0.000 NA
ATOM      7  C   UNL     1      -0.183   8.286  21.136  0.00  0.00    +0.000 C 
ATOM      8  C   UNL     1       1.231   7.805  20.783  0.00  0.00    +0.000 C 
ENDROOT
BRANCH   1  16
ATOM      9  C   UNL     1       4.901   6.136  16.402  0.00  0.00    +0.000 C 
ATOM     10  C   UNL     1       4.396   5.103  17.412  0.00  0.00    +0.000 C 
ATOM     11  C   UNL     1       4.677   3.684  16.918  0.00  0.00    +0.000 C 
ATOM     12  C   UNL     1       3.517   2.862  17.438  0.00  0.00    +0.000 C 
ATOM     13  C   UNL     1       2.405   3.868  17.540  0.00  0.00    +0.000 C 
ATOM     14  O   UNL     1       1.229   3.594  17.731  0.00  0.00    +0.000 OA
ATOM     15  N   UNL     1       2.952   5.157  17.620  0.00  0.00    +0.000 N 
ATOM     16  C   UNL     1       2.555   5.871  18.851  0.00  0.00    +0.000 C 
ATOM     17  C   UNL     1       3.548   5.388  19.910  0.00  0.00    +0.000 C 
ATOM     18  S   UNL     1       5.153   5.396  19.053  0.00  0.00    +0.000 S 
ENDBRANCH   1  16
BRANCH   6  19
ATOM     19  S   UNL     1       0.426  10.784  22.044  0.00  0.00    +0.000 S 
ATOM     20  O   UNL     1       0.727   9.991  23.216  0.00  0.00    +0.000 OA
ATOM     21  O   UNL     1       1.456  11.534  21.370  0.00  0.00    +0.000 OA
BRANCH  19  22
ATOM     22  C   UNL     1      -0.860  11.927  22.502  0.00  0.00    +0.000 A 
ATOM     23  C   UNL     1      -1.997  11.473  23.185  0.00  0.00    +0.000 A 
ATOM     24  C   UNL     1      -3.028  12.368  23.482  0.00  0.00    +0.000 A 
ATOM     25  C   UNL     1      -2.909  13.710  23.120  0.00  0.00    +0.000 A 
ATOM     26  C   UNL     1      -1.758  14.155  22.466  0.00  0.00    +0.000 A 
ATOM     27 CL   UNL     1      -1.594  15.826  22.082  0.00  0.00    +0.000 Cl
ATOM     28  C   UNL     1      -0.735  13.269  22.139  0.00  0.00    +0.000 A 
ENDBRANCH  19  22
ENDBRANCH   6  19
TORSDOF 3
ENDMDL
MODEL 3
REMARK VINA RESULT:      -8.0      1.500      1.831
REMARK  Name = 
REMARK  4 active torsions:
REMARK  status: ('A' for Active; 'I' for Inactive)
REMARK    1  A    between atoms: C_1  and  C_2
REMARK    2  A    between atoms: C_8  and  C_9
REMARK    3  A    between atoms: N_14  and  S_15
REMARK    4  A    between atoms: S_15  and  C_18
REMARK                            x       y       z     vdW  Elec       q    Type
REMARK                         _______ _______ _______ _____ _____    ______ ____
ROOT
ATOM      1  C   UNL     1       2.822   7.122  19.122  0.00  0.00    +0.000 C 
ATOM      2  O   UNL     1       3.474   7.591  18.189  0.00  0.00    +0.000 OA
ATOM      3  N   UNL     1       1.746   7.810  19.683  0.00  0.00    +0.000 N 
ATOM      4  C   UNL     1       1.264   9.010  18.973  0.00  0.00    +0.000 C 
ATOM      5  C   UNL     1      -0.198   9.357  19.314  0.00  0.00    +0.000 C 
ATOM      6  N   UNL     1      -0.438   9.414  20.794  0.00  0.00    +0.000 NA
ATOM      7  C   UNL     1       0.003   8.114  21.416  0.00  0.00    +0.000 C 
ATOM      8  C   UNL     1       1.485   7.835  21.133  0.00  0.00    +0.000 C 
ENDROOT
BRANCH   1  16
ATOM      9  C   UNL     1       1.137   4.694  17.207  0.00  0.00    +0.000 C 
ATOM     10  C   UNL     1       2.141   4.105  18.201  0.00  0.00    +0.000 C 
ATOM     11  C   UNL     1       1.837   2.630  18.464  0.00  0.00    +0.000 C 
ATOM     12  C   UNL     1       2.229   2.410  19.909  0.00  0.00    +0.000 C 
ATOM     13  C   UNL     1       2.048   3.770  20.522  0.00  0.00    +0.000 C 
ATOM     14  O   UNL     1       2.063   4.005  21.721  0.00  0.00    +0.000 OA
ATOM     15  N   UNL     1       2.097   4.743  19.513  0.00  0.00    +0.000 N 
ATOM     16  C   UNL     1       3.171   5.734  19.728  0.00  0.00    +0.000 C 
ATOM     17  C   UNL     1       4.423   5.074  19.146  0.00  0.00    +0.000 C 
ATOM     18  S   UNL     1       3.851   4.329  17.587  0.00  0.00    +0.000 S 
ENDBRANCH   1  16
BRANCH   6  19
ATOM     19  S   UNL     1       0.103  10.835  21.584  0.00  0.00    +0.000 S 
ATOM     20  O   UNL     1       0.553  10.466  22.909  0.00  0.00    +0.000 OA
ATOM     21  O   UNL     1       0.965  11.553  20.680  0.00  0.00    +0.000 OA
BRANCH  19  22
ATOM     22  C   UNL     1      -1.385  11.792  21.783  0.00  0.00    +0.000 A 
ATOM     23  C   UNL     1      -1.828  12.631  20.751  0.00  0.00    +0.000 A 
ATOM     24  C   UNL     1      -2.961  13.424  20.944  0.00  0.00    +0.000 A 
ATOM     25  C   UNL     1      -3.658  13.359  22.150  0.00  0.00    +0.000 A 
ATOM     26  C   UNL     1      -3.224  12.497  23.160  0.00  0.00    +0.000 A 
ATOM     27 CL   UNL     1      -4.129  12.377  24.619  0.00  0.00    +0.000 Cl
ATOM     28  C   UNL     1      -2.080  11.721  22.991  0.00  0.00    +0.000 A 
ENDBRANCH  19  22
ENDBRANCH   6  19
TORSDOF 3
ENDMDL
MODEL 4
REMARK VINA RESULT:      -7.9      1.888      2.318
REMARK  Name = 
REMARK  4 active torsions:
REMARK  status: ('A' for Active; 'I' for Inactive)
REMARK    1  A    between atoms: C_1  and  C_2
REMARK    2  A    between atoms: C_8  and  C_9
REMARK    3  A    between atoms: N_14  and  S_15
REMARK    4  A    between atoms: S_15  and  C_18
REMARK                            x       y       z     vdW  Elec       q    Type
REMARK                         _______ _______ _______ _____ _____    ______ ____
ROOT
ATOM      1  C   UNL     1       3.196   6.971  18.748  0.00  0.00    +0.000 C 
ATOM      2  O   UNL     1       3.913   7.287  17.798  0.00  0.00    +0.000 OA
ATOM      3  N   UNL     1       2.144   7.782  19.173  0.00  0.00    +0.000 N 
ATOM      4  C   UNL     1       1.767   8.915  18.307  0.00  0.00    +0.000 C 
ATOM      5  C   UNL     1       0.317   9.385  18.537  0.00  0.00    +0.000 C 
ATOM      6  N   UNL     1       0.023   9.631  19.987  0.00  0.00    +0.000 NA
ATOM      7  C   UNL     1       0.356   8.391  20.776  0.00  0.00    +0.000 C 
ATOM      8  C   UNL     1       1.828   7.995  20.597  0.00  0.00    +0.000 C 
ENDROOT
BRANCH   1  16
ATOM      9  C   UNL     1       1.231   4.488  17.206  0.00  0.00    +0.000 C 
ATOM     10  C   UNL     1       2.206   3.940  18.250  0.00  0.00    +0.000 C 
ATOM     11  C   UNL     1       1.773   2.548  18.713  0.00  0.00    +0.000 C 
ATOM     12  C   UNL     1       2.189   2.483  20.167  0.00  0.00    +0.000 C 
ATOM     13  C   UNL     1       2.156   3.922  20.597  0.00  0.00    +0.000 C 
ATOM     14  O   UNL     1       2.231   4.310  21.753  0.00  0.00    +0.000 OA
ATOM     15  N   UNL     1       2.264   4.746  19.466  0.00  0.00    +0.000 N 
ATOM     16  C   UNL     1       3.432   5.647  19.526  0.00  0.00    +0.000 C 
ATOM     17  C   UNL     1       4.598   4.799  19.014  0.00  0.00    +0.000 C 
ATOM     18  S   UNL     1       3.909   3.915  17.580  0.00  0.00    +0.000 S 
ENDBRANCH   1  16
BRANCH   6  19
ATOM     19  S   UNL     1       0.620  11.102  20.631  0.00  0.00    +0.000 S 
ATOM     20  O   UNL     1       1.470  10.784  21.758  0.00  0.00    +0.000 OA
ATOM     21  O   UNL     1       1.105  11.908  19.539  0.00  0.00    +0.000 OA
BRANCH  19  22
ATOM     22  C   UNL     1      -0.836  11.893  21.280  0.00  0.00    +0.000 A 
ATOM     23  C   UNL     1      -0.889  12.279  22.627  0.00  0.00    +0.000 A 
ATOM     24  C   UNL     1      -2.060  12.841  23.139  0.00  0.00    +0.000 A 
ATOM     25  C   UNL     1      -3.160  13.037  22.304  0.00  0.00    +0.000 A 
ATOM     26  C   UNL     1      -3.084  12.676  20.957  0.00  0.00    +0.000 A 
ATOM     27 CL   UNL     1      -4.425  12.982  19.921  0.00  0.00    +0.000 Cl
ATOM     28  C   UNL     1      -1.933  12.089  20.440  0.00  0.00    +0.000 A 
ENDBRANCH  19  22
ENDBRANCH   6  19
TORSDOF 3
ENDMDL
MODEL 5
REMARK VINA RESULT:      -7.8      1.811      2.252
REMARK  Name = 
REMARK  4 active torsions:
REMARK  status: ('A' for Active; 'I' for Inactive)
REMARK    1  A    between atoms: C_1  and  C_2
REMARK    2  A    between atoms: C_8  and  C_9
REMARK    3  A    between atoms: N_14  and  S_15
REMARK    4  A    between atoms: S_15  and  C_18
REMARK                            x       y       z     vdW  Elec       q    Type
REMARK                         _______ _______ _______ _____ _____    ______ ____
ROOT
ATOM      1  C   UNL     1       3.140   6.976  18.661  0.00  0.00    +0.000 C 
ATOM      2  O   UNL     1       3.821   7.241  17.671  0.00  0.00    +0.000 OA
ATOM      3  N   UNL     1       2.120   7.821  19.097  0.00  0.00    +0.000 N 
ATOM      4  C   UNL     1       1.725   8.925  18.201  0.00  0.00    +0.000 C 
ATOM      5  C   UNL     1       0.293   9.429  18.472  0.00  0.00    +0.000 C 
ATOM      6  N   UNL     1       0.065   9.738  19.922  0.00  0.00    +0.000 NA
ATOM      7  C   UNL     1       0.411   8.525  20.746  0.00  0.00    +0.000 C 
ATOM      8  C   UNL     1       1.867   8.096  20.523  0.00  0.00    +0.000 C 
ENDROOT
BRANCH   1  16
ATOM      9  C   UNL     1       1.171   4.435  17.223  0.00  0.00    +0.000 C 
ATOM     10  C   UNL     1       2.157   3.926  18.277  0.00  0.00    +0.000 C 
ATOM     11  C   UNL     1       1.734   2.549  18.791  0.00  0.00    +0.000 C 
ATOM     12  C   UNL     1       2.162   2.535  20.242  0.00  0.00    +0.000 C 
ATOM     13  C   UNL     1       2.127   3.989  20.623  0.00  0.00    +0.000 C 
ATOM     14  O   UNL     1       2.211   4.416  21.765  0.00  0.00    +0.000 OA
ATOM     15  N   UNL     1       2.222   4.773  19.464  0.00  0.00    +0.000 N 
ATOM     16  C   UNL     1       3.388   5.680  19.483  0.00  0.00    +0.000 C 
ATOM     17  C   UNL     1       4.552   4.818  18.990  0.00  0.00    +0.000 C 
ATOM     18  S   UNL     1       3.855   3.884  17.593  0.00  0.00    +0.000 S 
ENDBRANCH   1  16
BRANCH   6  19
ATOM     19  S   UNL     1       0.712  11.223  20.480  0.00  0.00    +0.000 S 
ATOM     20  O   UNL     1       1.472  10.956  21.682  0.00  0.00    +0.000 OA
ATOM     21  O   UNL     1       1.310  11.904  19.359  0.00  0.00    +0.000 OA
BRANCH  19  22
ATOM     22  C   UNL     1      -0.729  12.148  20.966  0.00  0.00    +0.000 A 
ATOM     23  C   UNL     1      -1.835  12.234  20.107  0.00  0.00    +0.000 A 
ATOM     24  C   UNL     1      -2.934  13.015  20.473  0.00  0.00    +0.000 A 
ATOM     25  C   UNL     1      -2.935  13.684  21.697  0.00  0.00    +0.000 A 
ATOM     26  C   UNL     1      -1.839  13.566  22.556  0.00  0.00    +0.000 A 
ATOM     27 CL   UNL     1      -1.879  14.344  24.091  0.00  0.00    +0.000 Cl
ATOM     28  C   UNL     1      -0.726  12.814  22.192  0.00  0.00    +0.000 A 
ENDBRANCH  19  22
ENDBRANCH   6  19
TORSDOF 3
ENDMDL
MODEL 6
REMARK VINA RESULT:      -7.6      1.209      1.305
REMARK  Name = 
REMARK  4 active torsions:
REMARK  status: ('A' for Active; 'I' for Inactive)
REMARK    1  A    between atoms: C_1  and  C_2
REMARK    2  A    between atoms: C_8  and  C_9
REMARK    3  A    between atoms: N_14  and  S_15
REMARK    4  A    between atoms: S_15  and  C_18
REMARK                            x       y       z     vdW  Elec       q    Type
REMARK                         _______ _______ _______ _____ _____    ______ ____
ROOT
ATOM      1  C   UNL     1       2.727   7.458  18.300  0.00  0.00    +0.000 C 
ATOM      2  O   UNL     1       3.627   7.858  17.562  0.00  0.00    +0.000 OA
ATOM      3  N   UNL     1       1.762   8.324  18.813  0.00  0.00    +0.000 N 
ATOM      4  C   UNL     1       1.711   9.690  18.257  0.00  0.00    +0.000 C 
ATOM      5  C   UNL     1       0.335  10.359  18.444  0.00  0.00    +0.000 C 
ATOM      6  N   UNL     1      -0.144  10.284  19.863  0.00  0.00    +0.000 NA
ATOM      7  C   UNL     1      -0.141   8.846  20.311  0.00  0.00    +0.000 C 
ATOM      8  C   UNL     1       1.259   8.229  20.196  0.00  0.00    +0.000 C 
ENDROOT
BRANCH   1  16
ATOM      9  C   UNL     1       5.017   5.679  16.302  0.00  0.00    +0.000 C 
ATOM     10  C   UNL     1       4.404   4.843  17.427  0.00  0.00    +0.000 C 
ATOM     11  C   UNL     1       4.556   3.350  17.133  0.00  0.00    +0.000 C 
ATOM     12  C   UNL     1       3.318   2.715  17.728  0.00  0.00    +0.000 C 
ATOM     13  C   UNL     1       2.304   3.823  17.668  0.00  0.00    +0.000 C 
ATOM     14  O   UNL     1       1.106   3.686  17.864  0.00  0.00    +0.000 OA
ATOM     15  N   UNL     1       2.969   5.056  17.590  0.00  0.00    +0.000 N 
ATOM     16  C   UNL     1       2.625   5.961  18.705  0.00  0.00    +0.000 C 
ATOM     17  C   UNL     1       3.555   5.537  19.844  0.00  0.00    +0.000 C 
ATOM     18  S   UNL     1       5.164   5.282  19.034  0.00  0.00    +0.000 S 
ENDBRANCH   1  16
BRANCH   6  19
ATOM     19  S   UNL     1       0.566  11.401  20.951  0.00  0.00    +0.000 S 
ATOM     20  O   UNL     1       1.114  10.655  22.063  0.00  0.00    +0.000 OA
ATOM     21  O   UNL     1       1.386  12.311  20.191  0.00  0.00    +0.000 OA
BRANCH  19  22
ATOM     22  C   UNL     1      -0.826  12.320  21.572  0.00  0.00    +0.000 A 
ATOM     23  C   UNL     1      -0.734  13.000  22.795  0.00  0.00    +0.000 A 
ATOM     24  C   UNL     1      -1.853  13.665  23.301  0.00  0.00    +0.000 A 
ATOM     25  C   UNL     1      -3.046  13.669  22.578  0.00  0.00    +0.000 A 
ATOM     26  C   UNL     1      -3.116  13.012  21.347  0.00  0.00    +0.000 A 
ATOM     27 CL   UNL     1      -4.573  13.078  20.433  0.00  0.00    +0.000 Cl
ATOM     28  C   UNL     1      -2.017  12.322  20.843  0.00  0.00    +0.000 A 
ENDBRANCH  19  22
ENDBRANCH   6  19
TORSDOF 3
ENDMDL
MODEL 7
REMARK VINA RESULT:      -7.5      2.045      2.405
REMARK  Name = 
REMARK  4 active torsions:
REMARK  status: ('A' for Active; 'I' for Inactive)
REMARK    1  A    between atoms: C_1  and  C_2
REMARK    2  A    between atoms: C_8  and  C_9
REMARK    3  A    between atoms: N_14  and  S_15
REMARK    4  A    between atoms: S_15  and  C_18
REMARK                            x       y       z     vdW  Elec       q    Type
REMARK                         _______ _______ _______ _____ _____    ______ ____
ROOT
ATOM      1  C   UNL     1       2.975   7.152  18.516  0.00  0.00    +0.000 C 
ATOM      2  O   UNL     1       3.596   7.336  17.469  0.00  0.00    +0.000 OA
ATOM      3  N   UNL     1       2.014   8.056  18.966  0.00  0.00    +0.000 N 
ATOM      4  C   UNL     1       1.595   9.121  18.034  0.00  0.00    +0.000 C 
ATOM      5  C   UNL     1       0.201   9.689  18.368  0.00  0.00    +0.000 C 
ATOM      6  N   UNL     1       0.080  10.088  19.808  0.00  0.00    +0.000 NA
ATOM      7  C   UNL     1       0.442   8.913  20.679  0.00  0.00    +0.000 C 
ATOM      8  C   UNL     1       1.866   8.421  20.387  0.00  0.00    +0.000 C 
ENDROOT
BRANCH   1  16
ATOM      9  C   UNL     1       1.116   4.501  17.130  0.00  0.00    +0.000 C 
ATOM     10  C   UNL     1       2.087   4.062  18.228  0.00  0.00    +0.000 C 
ATOM     11  C   UNL     1       1.688   2.695  18.785  0.00  0.00    +0.000 C 
ATOM     12  C   UNL     1       2.078   2.750  20.247  0.00  0.00    +0.000 C 
ATOM     13  C   UNL     1       1.992   4.216  20.568  0.00  0.00    +0.000 C 
ATOM     14  O   UNL     1       2.033   4.689  21.694  0.00  0.00    +0.000 OA
ATOM     15  N   UNL     1       2.097   4.957  19.381  0.00  0.00    +0.000 N 
ATOM     16  C   UNL     1       3.236   5.897  19.395  0.00  0.00    +0.000 C 
ATOM     17  C   UNL     1       4.437   5.050  18.966  0.00  0.00    +0.000 C 
ATOM     18  S   UNL     1       3.803   4.042  17.590  0.00  0.00    +0.000 S 
ENDBRANCH   1  16
BRANCH   6  19
ATOM     19  S   UNL     1       0.810  11.579  20.234  0.00  0.00    +0.000 S 
ATOM     20  O   UNL     1       1.380  11.436  21.557  0.00  0.00    +0.000 OA
ATOM     21  O   UNL     1       1.614  12.022  19.123  0.00  0.00    +0.000 OA
BRANCH  19  22
ATOM     22  C   UNL     1      -0.572  12.692  20.377  0.00  0.00    +0.000 A 
ATOM     23  C   UNL     1      -0.357  14.076  20.460  0.00  0.00    +0.000 A 
ATOM     24  C   UNL     1      -1.445  14.934  20.636  0.00  0.00    +0.000 A 
ATOM     25  C   UNL     1      -2.737  14.414  20.703  0.00  0.00    +0.000 A 
ATOM     26  C   UNL     1      -2.940  13.036  20.590  0.00  0.00    +0.000 A 
ATOM     27 CL   UNL     1      -4.544  12.411  20.610  0.00  0.00    +0.000 Cl
ATOM     28  C   UNL     1      -1.862  12.166  20.443  0.00  0.00    +0.000 A 
ENDBRANCH  19  22
ENDBRANCH   6  19
TORSDOF 3
ENDMDL
MODEL 8
REMARK VINA RESULT:      -7.4      0.963      1.065
REMARK  Name = 
REMARK  4 active torsions:
REMARK  status: ('A' for Active; 'I' for Inactive)
REMARK    1  A    between atoms: C_1  and  C_2
REMARK    2  A    between atoms: C_8  and  C_9
REMARK    3  A    between atoms: N_14  and  S_15
REMARK    4  A    between atoms: S_15  and  C_18
REMARK                            x       y       z     vdW  Elec       q    Type
REMARK                         _______ _______ _______ _____ _____    ______ ____
ROOT
ATOM      1  C   UNL     1       2.714   7.251  18.199  0.00  0.00    +0.000 C 
ATOM      2  O   UNL     1       3.592   7.566  17.396  0.00  0.00    +0.000 OA
ATOM      3  N   UNL     1       1.813   8.188  18.704  0.00  0.00    +0.000 N 
ATOM      4  C   UNL     1       1.793   9.520  18.070  0.00  0.00    +0.000 C 
ATOM      5  C   UNL     1       0.457  10.260  18.282  0.00  0.00    +0.000 C 
ATOM      6  N   UNL     1       0.046  10.289  19.724  0.00  0.00    +0.000 NA
ATOM      7  C   UNL     1       0.011   8.880  20.256  0.00  0.00    +0.000 C 
ATOM      8  C   UNL     1       1.377   8.196  20.112  0.00  0.00    +0.000 C 
ENDROOT
BRANCH   1  16
ATOM      9  C   UNL     1       4.926   5.279  16.296  0.00  0.00    +0.000 C 
ATOM     10  C   UNL     1       4.299   4.534  17.476  0.00  0.00    +0.000 C 
ATOM     11  C   UNL     1       4.401   3.021  17.275  0.00  0.00    +0.000 C 
ATOM     12  C   UNL     1       3.149   2.465  17.919  0.00  0.00    +0.000 C 
ATOM     13  C   UNL     1       2.170   3.599  17.798  0.00  0.00    +0.000 C 
ATOM     14  O   UNL     1       0.970   3.513  18.012  0.00  0.00    +0.000 OA
ATOM     15  N   UNL     1       2.873   4.802  17.637  0.00  0.00    +0.000 N 
ATOM     16  C   UNL     1       2.569   5.786  18.697  0.00  0.00    +0.000 C 
ATOM     17  C   UNL     1       3.497   5.404  19.852  0.00  0.00    +0.000 C 
ATOM     18  S   UNL     1       5.089   5.047  19.046  0.00  0.00    +0.000 S 
ENDBRANCH   1  16
BRANCH   6  19
ATOM     19  S   UNL     1       0.857  11.434  20.708  0.00  0.00    +0.000 S 
ATOM     20  O   UNL     1       1.361  10.743  21.875  0.00  0.00    +0.000 OA
ATOM     21  O   UNL     1       1.733  12.210  19.868  0.00  0.00    +0.000 OA
BRANCH  19  22
ATOM     22  C   UNL     1      -0.451  12.508  21.260  0.00  0.00    +0.000 A 
ATOM     23  C   UNL     1      -0.607  13.780  20.690  0.00  0.00    +0.000 A 
ATOM     24  C   UNL     1      -1.596  14.638  21.176  0.00  0.00    +0.000 A 
ATOM     25  C   UNL     1      -2.438  14.216  22.205  0.00  0.00    +0.000 A 
ATOM     26  C   UNL     1      -2.291  12.935  22.744  0.00  0.00    +0.000 A 
ATOM     27 CL   UNL     1      -3.377  12.402  23.969  0.00  0.00    +0.000 Cl
ATOM     28  C   UNL     1      -1.291  12.081  22.289  0.00  0.00    +0.000 A 
ENDBRANCH  19  22
ENDBRANCH   6  19
TORSDOF 3
ENDMDL
MODEL 9
REMARK VINA RESULT:      -7.2      4.002      9.530
REMARK  Name = 
REMARK  4 active torsions:
REMARK  status: ('A' for Active; 'I' for Inactive)
REMARK    1  A    between atoms: C_1  and  C_2
REMARK    2  A    between atoms: C_8  and  C_9
REMARK    3  A    between atoms: N_14  and  S_15
REMARK    4  A    between atoms: S_15  and  C_18
REMARK                            x       y       z     vdW  Elec       q    Type
REMARK                         _______ _______ _______ _____ _____    ______ ____
ROOT
ATOM      1  C   UNL     1      -1.634  14.340  20.381  0.00  0.00    +0.000 C 
ATOM      2  O   UNL     1      -1.165  15.393  19.950  0.00  0.00    +0.000 OA
ATOM      3  N   UNL     1      -0.894  13.158  20.390  0.00  0.00    +0.000 N 
ATOM      4  C   UNL     1       0.546  13.257  20.087  0.00  0.00    +0.000 C 
ATOM      5  C   UNL     1       1.357  12.074  20.652  0.00  0.00    +0.000 C 
ATOM      6  N   UNL     1       0.766  10.748  20.273  0.00  0.00    +0.000 NA
ATOM      7  C   UNL     1      -0.677  10.710  20.701  0.00  0.00    +0.000 C 
ATOM      8  C   UNL     1      -1.481  11.847  20.057  0.00  0.00    +0.000 C 
ENDROOT
BRANCH   1  16
ATOM      9  C   UNL     1      -1.411  14.336  23.895  0.00  0.00    +0.000 C 
ATOM     10  C   UNL     1      -2.839  14.502  23.371  0.00  0.00    +0.000 C 
ATOM     11  C   UNL     1      -3.856  14.152  24.457  0.00  0.00    +0.000 C 
ATOM     12  C   UNL     1      -5.023  13.548  23.706  0.00  0.00    +0.000 C 
ATOM     13  C   UNL     1      -4.378  12.971  22.478  0.00  0.00    +0.000 C 
ATOM     14  O   UNL     1      -4.924  12.215  21.689  0.00  0.00    +0.000 OA
ATOM     15  N   UNL     1      -3.151  13.615  22.255  0.00  0.00    +0.000 N 
ATOM     16  C   UNL     1      -3.085  14.274  20.934  0.00  0.00    +0.000 C 
ATOM     17  C   UNL     1      -3.753  15.633  21.151  0.00  0.00    +0.000 C 
ATOM     18  S   UNL     1      -3.094  16.205  22.748  0.00  0.00    +0.000 S 
ENDBRANCH   1  16
BRANCH   6  19
ATOM     19  S   UNL     1       1.079  10.221  18.673  0.00  0.00    +0.000 S 
ATOM     20  O   UNL     1      -0.192  10.003  18.017  0.00  0.00    +0.000 OA
ATOM     21  O   UNL     1       2.072  11.093  18.097  0.00  0.00    +0.000 OA
BRANCH  19  22
ATOM     22  C   UNL     1       1.832   8.624  18.901  0.00  0.00    +0.000 A 
ATOM     23  C   UNL     1       1.596   7.894  20.074  0.00  0.00    +0.000 A 
ATOM     24  C   UNL     1       2.242   6.671  20.268  0.00  0.00    +0.000 A 
ATOM     25  C   UNL     1       3.099   6.174  19.286  0.00  0.00    +0.000 A 
ATOM     26  C   UNL     1       3.303   6.898  18.109  0.00  0.00    +0.000 A 
ATOM     27 CL   UNL     1       4.311   6.244  16.876  0.00  0.00    +0.000 Cl
ATOM     28  C   UNL     1       2.687   8.131  17.914  0.00  0.00    +0.000 A 
ENDBRANCH  19  22
ENDBRANCH   6  19
TORSDOF 3
ENDMDL
