MODEL 1
REMARK VINA RESULT:      -6.0      0.000      0.000
REMARK  Name = 
REMARK  6 active torsions:
REMARK  status: ('A' for Active; 'I' for Inactive)
REMARK    1  A    between atoms: C_1  and  N_2
REMARK    2  A    between atoms: N_6  and  C_7
REMARK    3  A    between atoms: N_10  and  C_11
REMARK    4  A    between atoms: N_17  and  C_18
REMARK    5  A    between atoms: C_18  and  C_19
REMARK    6  A    between atoms: N_23  and  C_24
REMARK                            x       y       z     vdW  Elec       q    Type
REMARK                         _______ _______ _______ _____ _____    ______ ____
ROOT
ATOM      1  C   UNL     1       7.583   6.985  17.471  0.00  0.00    +0.000 C 
ATOM      2  N   UNL     1       7.458   5.843  16.555  0.00  0.00    +0.000 NA
ATOM      3  C   UNL     1       7.537   6.370  15.171  0.00  0.00    +0.000 C 
ATOM      4  C   UNL     1       7.392   5.328  14.063  0.00  0.00    +0.000 C 
ATOM      5  O   UNL     1       7.967   5.522  12.989  0.00  0.00    +0.000 OA
ATOM      6  N   UNL     1       6.456   4.316  14.307  0.00  0.00    +0.000 N 
ATOM      7  C   UNL     1       6.304   3.863  15.687  0.00  0.00    +0.000 C 
ATOM      8  C   UNL     1       6.237   5.014  16.738  0.00  0.00    +0.000 C 
ATOM      9  C   UNL     1       6.140   4.362  18.137  0.00  0.00    +0.000 C 
ATOM     10  C   UNL     1       4.794   4.797  18.718  0.00  0.00    +0.000 C 
ATOM     11  N   UNL     1       3.953   5.266  17.606  0.00  0.00    +0.000 NA
ATOM     12  C   UNL     1       4.904   5.783  16.614  0.00  0.00    +0.000 C 
ENDROOT
BRANCH   6  13
ATOM     13  C   UNL     1       5.858   3.653  13.218  0.00  0.00    +0.000 A 
ATOM     14  C   UNL     1       6.359   2.584  12.426  0.00  0.00    +0.000 A 
ATOM     15  N   UNL     1       5.539   2.239  11.429  0.00  0.00    +0.000 NA
ATOM     16  N   UNL     1       4.503   3.076  11.577  0.00  0.00    +0.000 N 
ATOM     17  C   UNL     1       3.395   2.985  10.657  0.00  0.00    +0.000 C 
ATOM     18  C   UNL     1       4.646   3.945  12.622  0.00  0.00    +0.000 A 
ENDBRANCH   6  13
BRANCH  11  19
ATOM     19  C   UNL     1       3.058   4.208  17.119  0.00  0.00    +0.000 C 
BRANCH  19  20
ATOM     20  C   UNL     1       2.283   3.444  18.162  0.00  0.00    +0.000 A 
ATOM     21  N   UNL     1       1.168   3.907  18.707  0.00  0.00    +0.000 NA
ATOM     22  C   UNL     1       0.770   2.974  19.622  0.00  0.00    +0.000 A 
ATOM     23  C   UNL     1       1.641   1.918  19.643  0.00  0.00    +0.000 A 
ATOM     24  N   UNL     1       2.586   2.204  18.692  0.00  0.00    +0.000 N 
ATOM     25  C   UNL     1       3.677   1.321  18.361  0.00  0.00    +0.000 C 
ENDBRANCH  19  20
ENDBRANCH  11  19
TORSDOF 3
ENDMDL
MODEL 2
REMARK VINA RESULT:      -5.8     10.755     13.239
REMARK  Name = 
REMARK  6 active torsions:
REMARK  status: ('A' for Active; 'I' for Inactive)
REMARK    1  A    between atoms: C_1  and  N_2
REMARK    2  A    between atoms: N_6  and  C_7
REMARK    3  A    between atoms: N_10  and  C_11
REMARK    4  A    between atoms: N_17  and  C_18
REMARK    5  A    between atoms: C_18  and  C_19
REMARK    6  A    between atoms: N_23  and  C_24
REMARK                            x       y       z     vdW  Elec       q    Type
REMARK                         _______ _______ _______ _____ _____    ______ ____
ROOT
ATOM      1  C   UNL     1      -7.204  13.363  22.609  0.00  0.00    +0.000 C 
ATOM      2  N   UNL     1      -6.581  13.271  21.281  0.00  0.00    +0.000 NA
ATOM      3  C   UNL     1      -6.951  11.956  20.704  0.00  0.00    +0.000 C 
ATOM      4  C   UNL     1      -6.364  11.656  19.325  0.00  0.00    +0.000 C 
ATOM      5  O   UNL     1      -6.999  10.930  18.557  0.00  0.00    +0.000 OA
ATOM      6  N   UNL     1      -5.050  12.095  19.122  0.00  0.00    +0.000 N 
ATOM      7  C   UNL     1      -4.652  13.341  19.772  0.00  0.00    +0.000 C 
ATOM      8  C   UNL     1      -5.106  13.465  21.258  0.00  0.00    +0.000 C 
ATOM      9  C   UNL     1      -4.660  14.856  21.768  0.00  0.00    +0.000 C 
ATOM     10  C   UNL     1      -3.667  14.597  22.902  0.00  0.00    +0.000 C 
ATOM     11  N   UNL     1      -3.192  13.210  22.777  0.00  0.00    +0.000 NA
ATOM     12  C   UNL     1      -4.308  12.490  22.152  0.00  0.00    +0.000 C 
ENDROOT
BRANCH   6  13
ATOM     13  C   UNL     1      -4.246  11.445  18.166  0.00  0.00    +0.000 A 
ATOM     14  C   UNL     1      -3.052  10.695  18.350  0.00  0.00    +0.000 A 
ATOM     15  N   UNL     1      -2.518  10.267  17.202  0.00  0.00    +0.000 NA
ATOM     16  N   UNL     1      -3.367  10.731  16.274  0.00  0.00    +0.000 N 
ATOM     17  C   UNL     1      -3.104  10.447  14.884  0.00  0.00    +0.000 C 
ATOM     18  C   UNL     1      -4.408  11.448  16.793  0.00  0.00    +0.000 A 
ENDBRANCH   6  13
BRANCH  11  19
ATOM     19  C   UNL     1      -1.918  13.136  22.049  0.00  0.00    +0.000 C 
BRANCH  19  20
ATOM     20  C   UNL     1      -1.136  11.854  22.185  0.00  0.00    +0.000 A 
ATOM     21  N   UNL     1      -1.224  11.071  23.250  0.00  0.00    +0.000 NA
ATOM     22  C   UNL     1      -0.361  10.034  23.038  0.00  0.00    +0.000 A 
ATOM     23  C   UNL     1       0.266  10.168  21.828  0.00  0.00    +0.000 A 
ATOM     24  N   UNL     1      -0.252  11.310  21.272  0.00  0.00    +0.000 N 
ATOM     25  C   UNL     1       0.113  11.797  19.965  0.00  0.00    +0.000 C 
ENDBRANCH  19  20
ENDBRANCH  11  19
TORSDOF 3
ENDMDL
MODEL 3
REMARK VINA RESULT:      -5.8      8.709     11.652
REMARK  Name = 
REMARK  6 active torsions:
REMARK  status: ('A' for Active; 'I' for Inactive)
REMARK    1  A    between atoms: C_1  and  N_2
REMARK    2  A    between atoms: N_6  and  C_7
REMARK    3  A    between atoms: N_10  and  C_11
REMARK    4  A    between atoms: N_17  and  C_18
REMARK    5  A    between atoms: C_18  and  C_19
REMARK    6  A    between atoms: N_23  and  C_24
REMARK                            x       y       z     vdW  Elec       q    Type
REMARK                         _______ _______ _______ _____ _____    ______ ____
ROOT
ATOM      1  C   UNL     1      10.826  17.667  17.646  0.00  0.00    +0.000 C 
ATOM      2  N   UNL     1      10.836  16.355  18.308  0.00  0.00    +0.000 NA
ATOM      3  C   UNL     1      11.138  15.337  17.273  0.00  0.00    +0.000 C 
ATOM      4  C   UNL     1      11.159  13.890  17.763  0.00  0.00    +0.000 C 
ATOM      5  O   UNL     1      11.898  13.082  17.195  0.00  0.00    +0.000 OA
ATOM      6  N   UNL     1      10.186  13.563  18.716  0.00  0.00    +0.000 N 
ATOM      7  C   UNL     1       9.814  14.599  19.676  0.00  0.00    +0.000 C 
ATOM      8  C   UNL     1       9.593  16.009  19.047  0.00  0.00    +0.000 C 
ATOM      9  C   UNL     1       9.270  16.988  20.201  0.00  0.00    +0.000 C 
ATOM     10  C   UNL     1       7.854  17.502  19.940  0.00  0.00    +0.000 C 
ATOM     11  N   UNL     1       7.203  16.576  19.000  0.00  0.00    +0.000 NA
ATOM     12  C   UNL     1       8.304  16.027  18.198  0.00  0.00    +0.000 C 
ENDROOT
BRANCH   6  13
ATOM     13  C   UNL     1       9.761  12.226  18.836  0.00  0.00    +0.000 A 
ATOM     14  C   UNL     1      10.115  11.249  19.806  0.00  0.00    +0.000 A 
ATOM     15  N   UNL     1       9.561  10.055  19.578  0.00  0.00    +0.000 NA
ATOM     16  N   UNL     1       8.841  10.256  18.465  0.00  0.00    +0.000 N 
ATOM     17  C   UNL     1       8.083   9.158  17.916  0.00  0.00    +0.000 C 
ATOM     18  C   UNL     1       8.933  11.529  17.976  0.00  0.00    +0.000 A 
ENDBRANCH   6  13
BRANCH  11  19
ATOM     19  C   UNL     1       6.386  15.576  19.702  0.00  0.00    +0.000 C 
BRANCH  19  20
ATOM     20  C   UNL     1       5.026  15.287  19.121  0.00  0.00    +0.000 A 
ATOM     21  N   UNL     1       4.730  15.505  17.848  0.00  0.00    +0.000 NA
ATOM     22  C   UNL     1       3.417  15.163  17.694  0.00  0.00    +0.000 A 
ATOM     23  C   UNL     1       2.891  14.722  18.879  0.00  0.00    +0.000 A 
ATOM     24  N   UNL     1       3.925  14.772  19.778  0.00  0.00    +0.000 N 
ATOM     25  C   UNL     1       3.807  14.349  21.152  0.00  0.00    +0.000 C 
ENDBRANCH  19  20
ENDBRANCH  11  19
TORSDOF 3
ENDMDL
MODEL 4
REMARK VINA RESULT:      -5.7      3.848      7.406
REMARK  Name = 
REMARK  6 active torsions:
REMARK  status: ('A' for Active; 'I' for Inactive)
REMARK    1  A    between atoms: C_1  and  N_2
REMARK    2  A    between atoms: N_6  and  C_7
REMARK    3  A    between atoms: N_10  and  C_11
REMARK    4  A    between atoms: N_17  and  C_18
REMARK    5  A    between atoms: C_18  and  C_19
REMARK    6  A    between atoms: N_23  and  C_24
REMARK                            x       y       z     vdW  Elec       q    Type
REMARK                         _______ _______ _______ _____ _____    ______ ____
ROOT
ATOM      1  C   UNL     1       2.643   2.778  20.771  0.00  0.00    +0.000 C 
ATOM      2  N   UNL     1       2.811   4.232  20.649  0.00  0.00    +0.000 NA
ATOM      3  C   UNL     1       1.471   4.850  20.797  0.00  0.00    +0.000 C 
ATOM      4  C   UNL     1       1.432   6.372  20.664  0.00  0.00    +0.000 C 
ATOM      5  O   UNL     1       0.570   6.999  21.286  0.00  0.00    +0.000 OA
ATOM      6  N   UNL     1       2.280   6.913  19.691  0.00  0.00    +0.000 N 
ATOM      7  C   UNL     1       3.561   6.246  19.472  0.00  0.00    +0.000 C 
ATOM      8  C   UNL     1       3.472   4.691  19.398  0.00  0.00    +0.000 C 
ATOM      9  C   UNL     1       4.911   4.150  19.228  0.00  0.00    +0.000 C 
ATOM     10  C   UNL     1       4.943   3.440  17.874  0.00  0.00    +0.000 C 
ATOM     11  N   UNL     1       3.791   3.911  17.090  0.00  0.00    +0.000 NA
ATOM     12  C   UNL     1       2.774   4.251  18.093  0.00  0.00    +0.000 C 
ENDROOT
BRANCH   6  13
ATOM     13  C   UNL     1       1.964   8.159  19.116  0.00  0.00    +0.000 A 
ATOM     14  C   UNL     1       2.285   8.668  17.828  0.00  0.00    +0.000 A 
ATOM     15  N   UNL     1       1.870   9.924  17.640  0.00  0.00    +0.000 NA
ATOM     16  N   UNL     1       1.274  10.230  18.801  0.00  0.00    +0.000 N 
ATOM     17  C   UNL     1       0.687  11.539  18.961  0.00  0.00    +0.000 C 
ATOM     18  C   UNL     1       1.310   9.218  19.719  0.00  0.00    +0.000 A 
ENDBRANCH   6  13
BRANCH  11  19
ATOM     19  C   UNL     1       4.162   5.007  16.185  0.00  0.00    +0.000 C 
BRANCH  19  20
ATOM     20  C   UNL     1       5.401   4.804  15.350  0.00  0.00    +0.000 A 
ATOM     21  N   UNL     1       5.395   4.117  14.217  0.00  0.00    +0.000 NA
ATOM     22  C   UNL     1       6.683   4.115  13.762  0.00  0.00    +0.000 A 
ATOM     23  C   UNL     1       7.497   4.810  14.616  0.00  0.00    +0.000 A 
ATOM     24  N   UNL     1       6.673   5.275  15.609  0.00  0.00    +0.000 N 
ATOM     25  C   UNL     1       7.128   6.099  16.702  0.00  0.00    +0.000 C 
ENDBRANCH  19  20
ENDBRANCH  11  19
TORSDOF 3
ENDMDL
MODEL 5
REMARK VINA RESULT:      -5.4     10.381     13.072
REMARK  Name = 
REMARK  6 active torsions:
REMARK  status: ('A' for Active; 'I' for Inactive)
REMARK    1  A    between atoms: C_1  and  N_2
REMARK    2  A    between atoms: N_6  and  C_7
REMARK    3  A    between atoms: N_10  and  C_11
REMARK    4  A    between atoms: N_17  and  C_18
REMARK    5  A    between atoms: C_18  and  C_19
REMARK    6  A    between atoms: N_23  and  C_24
REMARK                            x       y       z     vdW  Elec       q    Type
REMARK                         _______ _______ _______ _____ _____    ______ ____
ROOT
ATOM      1  C   UNL     1       0.713   9.865  22.364  0.00  0.00    +0.000 C 
ATOM      2  N   UNL     1      -0.127  11.071  22.371  0.00  0.00    +0.000 NA
ATOM      3  C   UNL     1      -1.395  10.727  23.058  0.00  0.00    +0.000 C 
ATOM      4  C   UNL     1      -2.425  11.853  23.137  0.00  0.00    +0.000 C 
ATOM      5  O   UNL     1      -3.201  11.880  24.096  0.00  0.00    +0.000 OA
ATOM      6  N   UNL     1      -2.516  12.666  22.001  0.00  0.00    +0.000 N 
ATOM      7  C   UNL     1      -1.283  12.925  21.262  0.00  0.00    +0.000 C 
ATOM      8  C   UNL     1      -0.393  11.665  21.033  0.00  0.00    +0.000 C 
ATOM      9  C   UNL     1       0.888  12.127  20.299  0.00  0.00    +0.000 C 
ATOM     10  C   UNL     1       0.883  11.415  18.945  0.00  0.00    +0.000 C 
ATOM     11  N   UNL     1      -0.487  10.949  18.685  0.00  0.00    +0.000 NA
ATOM     12  C   UNL     1      -1.057  10.711  20.017  0.00  0.00    +0.000 C 
ENDROOT
BRANCH   6  13
ATOM     13  C   UNL     1      -3.720  13.346  21.734  0.00  0.00    +0.000 A 
ATOM     14  C   UNL     1      -5.045  12.838  21.649  0.00  0.00    +0.000 A 
ATOM     15  N   UNL     1      -5.945  13.769  21.318  0.00  0.00    +0.000 NA
ATOM     16  N   UNL     1      -5.208  14.881  21.194  0.00  0.00    +0.000 N 
ATOM     17  C   UNL     1      -5.864  16.117  20.842  0.00  0.00    +0.000 C 
ATOM     18  C   UNL     1      -3.875  14.684  21.422  0.00  0.00    +0.000 A 
ENDBRANCH   6  13
BRANCH  11  19
ATOM     19  C   UNL     1      -1.235  11.899  17.849  0.00  0.00    +0.000 C 
BRANCH  19  20
ATOM     20  C   UNL     1      -2.705  11.623  17.663  0.00  0.00    +0.000 A 
ATOM     21  N   UNL     1      -3.614  11.940  18.573  0.00  0.00    +0.000 NA
ATOM     22  C   UNL     1      -4.816  11.516  18.081  0.00  0.00    +0.000 A 
ATOM     23  C   UNL     1      -4.655  10.934  16.853  0.00  0.00    +0.000 A 
ATOM     24  N   UNL     1      -3.316  11.032  16.574  0.00  0.00    +0.000 N 
ATOM     25  C   UNL     1      -2.722  10.571  15.342  0.00  0.00    +0.000 C 
ENDBRANCH  19  20
ENDBRANCH  11  19
TORSDOF 3
ENDMDL
MODEL 6
REMARK VINA RESULT:      -5.4      8.510     10.364
REMARK  Name = 
REMARK  6 active torsions:
REMARK  status: ('A' for Active; 'I' for Inactive)
REMARK    1  A    between atoms: C_1  and  N_2
REMARK    2  A    between atoms: N_6  and  C_7
REMARK    3  A    between atoms: N_10  and  C_11
REMARK    4  A    between atoms: N_17  and  C_18
REMARK    5  A    between atoms: C_18  and  C_19
REMARK    6  A    between atoms: N_23  and  C_24
REMARK                            x       y       z     vdW  Elec       q    Type
REMARK                         _______ _______ _______ _____ _____    ______ ____
ROOT
ATOM      1  C   UNL     1      -2.274  13.232  22.123  0.00  0.00    +0.000 C 
ATOM      2  N   UNL     1      -2.333  13.079  20.662  0.00  0.00    +0.000 NA
ATOM      3  C   UNL     1      -3.630  12.440  20.333  0.00  0.00    +0.000 C 
ATOM      4  C   UNL     1      -3.867  12.163  18.849  0.00  0.00    +0.000 C 
ATOM      5  O   UNL     1      -5.024  12.175  18.422  0.00  0.00    +0.000 OA
ATOM      6  N   UNL     1      -2.744  11.735  18.130  0.00  0.00    +0.000 N 
ATOM      7  C   UNL     1      -1.449  12.289  18.518  0.00  0.00    +0.000 C 
ATOM      8  C   UNL     1      -1.202  12.327  20.057  0.00  0.00    +0.000 C 
ATOM      9  C   UNL     1       0.175  12.992  20.292  0.00  0.00    +0.000 C 
ATOM     10  C   UNL     1       1.054  11.932  20.957  0.00  0.00    +0.000 C 
ATOM     11  N   UNL     1       0.436  10.618  20.718  0.00  0.00    +0.000 NA
ATOM     12  C   UNL     1      -1.001  10.898  20.609  0.00  0.00    +0.000 C 
ENDROOT
BRANCH   6  13
ATOM     13  C   UNL     1      -2.924  10.965  16.965  0.00  0.00    +0.000 A 
ATOM     14  C   UNL     1      -2.323   9.730  16.597  0.00  0.00    +0.000 A 
ATOM     15  N   UNL     1      -2.685   9.311  15.381  0.00  0.00    +0.000 NA
ATOM     16  N   UNL     1      -3.524  10.267  14.961  0.00  0.00    +0.000 N 
ATOM     17  C   UNL     1      -4.131  10.141  13.658  0.00  0.00    +0.000 C 
ATOM     18  C   UNL     1      -3.695  11.281  15.862  0.00  0.00    +0.000 A 
ENDBRANCH   6  13
BRANCH  11  19
ATOM     19  C   UNL     1       1.028   9.945  19.554  0.00  0.00    +0.000 C 
BRANCH  19  20
ATOM     20  C   UNL     1       1.522   8.537  19.767  0.00  0.00    +0.000 A 
ATOM     21  N   UNL     1       1.249   7.840  20.861  0.00  0.00    +0.000 NA
ATOM     22  C   UNL     1       1.882   6.638  20.720  0.00  0.00    +0.000 A 
ATOM     23  C   UNL     1       2.549   6.582  19.526  0.00  0.00    +0.000 A 
ATOM     24  N   UNL     1       2.293   7.779  18.907  0.00  0.00    +0.000 N 
ATOM     25  C   UNL     1       2.782   8.117  17.593  0.00  0.00    +0.000 C 
ENDBRANCH  19  20
ENDBRANCH  11  19
TORSDOF 3
ENDMDL
MODEL 7
REMARK VINA RESULT:      -5.4     10.461     13.334
REMARK  Name = 
REMARK  6 active torsions:
REMARK  status: ('A' for Active; 'I' for Inactive)
REMARK    1  A    between atoms: C_1  and  N_2
REMARK    2  A    between atoms: N_6  and  C_7
REMARK    3  A    between atoms: N_10  and  C_11
REMARK    4  A    between atoms: N_17  and  C_18
REMARK    5  A    between atoms: C_18  and  C_19
REMARK    6  A    between atoms: N_23  and  C_24
REMARK                            x       y       z     vdW  Elec       q    Type
REMARK                         _______ _______ _______ _____ _____    ______ ____
ROOT
ATOM      1  C   UNL     1       0.263   9.819  18.638  0.00  0.00    +0.000 C 
ATOM      2  N   UNL     1      -0.188  10.939  19.475  0.00  0.00    +0.000 NA
ATOM      3  C   UNL     1      -0.254  10.453  20.874  0.00  0.00    +0.000 C 
ATOM      4  C   UNL     1      -0.741  11.474  21.901  0.00  0.00    +0.000 C 
ATOM      5  O   UNL     1      -0.327  11.393  23.060  0.00  0.00    +0.000 OA
ATOM      6  N   UNL     1      -1.772  12.318  21.470  0.00  0.00    +0.000 N 
ATOM      7  C   UNL     1      -1.766  12.719  20.065  0.00  0.00    +0.000 C 
ATOM      8  C   UNL     1      -1.478  11.557  19.066  0.00  0.00    +0.000 C 
ATOM      9  C   UNL     1      -1.446  12.163  17.643  0.00  0.00    +0.000 C 
ATOM     10  C   UNL     1      -2.594  11.506  16.873  0.00  0.00    +0.000 C 
ATOM     11  N   UNL     1      -3.521  10.924  17.856  0.00  0.00    +0.000 NA
ATOM     12  C   UNL     1      -2.676  10.584  19.007  0.00  0.00    +0.000 C 
ENDROOT
BRANCH   6  13
ATOM     13  C   UNL     1      -2.637  12.892  22.421  0.00  0.00    +0.000 A 
ATOM     14  C   UNL     1      -3.417  12.263  23.429  0.00  0.00    +0.000 A 
ATOM     15  N   UNL     1      -4.174  13.120  24.121  0.00  0.00    +0.000 NA
ATOM     16  N   UNL     1      -3.882  14.306  23.568  0.00  0.00    +0.000 N 
ATOM     17  C   UNL     1      -4.525  15.492  24.079  0.00  0.00    +0.000 C 
ATOM     18  C   UNL     1      -2.980  14.226  22.544  0.00  0.00    +0.000 A 
ENDBRANCH   6  13
BRANCH  11  19
ATOM     19  C   UNL     1      -4.639  11.831  18.151  0.00  0.00    +0.000 C 
BRANCH  19  20
ATOM     20  C   UNL     1      -5.737  11.286  19.028  0.00  0.00    +0.000 A 
ATOM     21  N   UNL     1      -6.290  10.098  18.828  0.00  0.00    +0.000 NA
ATOM     22  C   UNL     1      -7.258   9.959  19.781  0.00  0.00    +0.000 A 
ATOM     23  C   UNL     1      -7.305  11.065  20.586  0.00  0.00    +0.000 A 
ATOM     24  N   UNL     1      -6.315  11.895  20.125  0.00  0.00    +0.000 N 
ATOM     25  C   UNL     1      -5.996  13.167  20.726  0.00  0.00    +0.000 C 
ENDBRANCH  19  20
ENDBRANCH  11  19
TORSDOF 3
ENDMDL
MODEL 8
REMARK VINA RESULT:      -5.3     11.495     14.205
REMARK  Name = 
REMARK  6 active torsions:
REMARK  status: ('A' for Active; 'I' for Inactive)
REMARK    1  A    between atoms: C_1  and  N_2
REMARK    2  A    between atoms: N_6  and  C_7
REMARK    3  A    between atoms: N_10  and  C_11
REMARK    4  A    between atoms: N_17  and  C_18
REMARK    5  A    between atoms: C_18  and  C_19
REMARK    6  A    between atoms: N_23  and  C_24
REMARK                            x       y       z     vdW  Elec       q    Type
REMARK                         _______ _______ _______ _____ _____    ______ ____
ROOT
ATOM      1  C   UNL     1      -1.126  16.708  22.627  0.00  0.00    +0.000 C 
ATOM      2  N   UNL     1      -2.227  15.940  22.029  0.00  0.00    +0.000 NA
ATOM      3  C   UNL     1      -3.451  16.231  22.813  0.00  0.00    +0.000 C 
ATOM      4  C   UNL     1      -4.710  15.491  22.362  0.00  0.00    +0.000 C 
ATOM      5  O   UNL     1      -5.807  16.029  22.533  0.00  0.00    +0.000 OA
ATOM      6  N   UNL     1      -4.515  14.166  21.952  0.00  0.00    +0.000 N 
ATOM      7  C   UNL     1      -3.263  13.855  21.267  0.00  0.00    +0.000 C 
ATOM      8  C   UNL     1      -1.995  14.474  21.931  0.00  0.00    +0.000 C 
ATOM      9  C   UNL     1      -0.779  14.100  21.051  0.00  0.00    +0.000 C 
ATOM     10  C   UNL     1       0.132  13.237  21.926  0.00  0.00    +0.000 C 
ATOM     11  N   UNL     1      -0.668  12.739  23.056  0.00  0.00    +0.000 NA
ATOM     12  C   UNL     1      -1.689  13.771  23.272  0.00  0.00    +0.000 C 
ENDROOT
BRANCH   6  13
ATOM     13  C   UNL     1      -5.585  13.255  22.033  0.00  0.00    +0.000 A 
ATOM     14  C   UNL     1      -6.357  12.867  23.162  0.00  0.00    +0.000 A 
ATOM     15  N   UNL     1      -7.263  11.925  22.881  0.00  0.00    +0.000 NA
ATOM     16  N   UNL     1      -7.085  11.705  21.570  0.00  0.00    +0.000 N 
ATOM     17  C   UNL     1      -7.917  10.731  20.906  0.00  0.00    +0.000 C 
ATOM     18  C   UNL     1      -6.092  12.464  21.018  0.00  0.00    +0.000 A 
ENDBRANCH   6  13
BRANCH  11  19
ATOM     19  C   UNL     1      -1.192  11.390  22.797  0.00  0.00    +0.000 C 
BRANCH  19  20
ATOM     20  C   UNL     1      -0.281  10.443  22.058  0.00  0.00    +0.000 A 
ATOM     21  N   UNL     1       0.661   9.737  22.665  0.00  0.00    +0.000 NA
ATOM     22  C   UNL     1       1.299   9.026  21.688  0.00  0.00    +0.000 A 
ATOM     23  C   UNL     1       0.746   9.287  20.464  0.00  0.00    +0.000 A 
ATOM     24  N   UNL     1      -0.280  10.164  20.705  0.00  0.00    +0.000 N 
ATOM     25  C   UNL     1      -1.157  10.668  19.676  0.00  0.00    +0.000 C 
ENDBRANCH  19  20
ENDBRANCH  11  19
TORSDOF 3
ENDMDL
MODEL 9
REMARK VINA RESULT:      -5.3      0.551      1.180
REMARK  Name = 
REMARK  6 active torsions:
REMARK  status: ('A' for Active; 'I' for Inactive)
REMARK    1  A    between atoms: C_1  and  N_2
REMARK    2  A    between atoms: N_6  and  C_7
REMARK    3  A    between atoms: N_10  and  C_11
REMARK    4  A    between atoms: N_17  and  C_18
REMARK    5  A    between atoms: C_18  and  C_19
REMARK    6  A    between atoms: N_23  and  C_24
REMARK                            x       y       z     vdW  Elec       q    Type
REMARK                         _______ _______ _______ _____ _____    ______ ____
ROOT
ATOM      1  C   UNL     1       7.610   6.961  17.515  0.00  0.00    +0.000 C 
ATOM      2  N   UNL     1       7.474   5.826  16.591  0.00  0.00    +0.000 NA
ATOM      3  C   UNL     1       7.558   6.362  15.211  0.00  0.00    +0.000 C 
ATOM      4  C   UNL     1       7.403   5.329  14.096  0.00  0.00    +0.000 C 
ATOM      5  O   UNL     1       7.980   5.524  13.023  0.00  0.00    +0.000 OA
ATOM      6  N   UNL     1       6.457   4.324  14.333  0.00  0.00    +0.000 N 
ATOM      7  C   UNL     1       6.301   3.864  15.711  0.00  0.00    +0.000 C 
ATOM      8  C   UNL     1       6.245   5.008  16.769  0.00  0.00    +0.000 C 
ATOM      9  C   UNL     1       6.142   4.347  18.164  0.00  0.00    +0.000 C 
ATOM     10  C   UNL     1       4.800   4.792  18.748  0.00  0.00    +0.000 C 
ATOM     11  N   UNL     1       3.963   5.277  17.640  0.00  0.00    +0.000 NA
ATOM     12  C   UNL     1       4.919   5.791  16.651  0.00  0.00    +0.000 C 
ENDROOT
BRANCH   6  13
ATOM     13  C   UNL     1       5.853   3.674  13.241  0.00  0.00    +0.000 A 
ATOM     14  C   UNL     1       6.338   2.597  12.449  0.00  0.00    +0.000 A 
ATOM     15  N   UNL     1       5.516   2.269  11.447  0.00  0.00    +0.000 NA
ATOM     16  N   UNL     1       4.496   3.126  11.590  0.00  0.00    +0.000 N 
ATOM     17  C   UNL     1       3.391   3.057  10.665  0.00  0.00    +0.000 C 
ATOM     18  C   UNL     1       4.649   3.991  12.637  0.00  0.00    +0.000 A 
ENDBRANCH   6  13
BRANCH  11  19
ATOM     19  C   UNL     1       3.058   4.230  17.145  0.00  0.00    +0.000 C 
BRANCH  19  20
ATOM     20  C   UNL     1       2.292   3.453  18.185  0.00  0.00    +0.000 A 
ATOM     21  N   UNL     1       2.179   2.133  18.153  0.00  0.00    +0.000 NA
ATOM     22  C   UNL     1       1.399   1.788  19.219  0.00  0.00    +0.000 A 
ATOM     23  C   UNL     1       1.028   2.901  19.925  0.00  0.00    +0.000 A 
ATOM     24  N   UNL     1       1.623   3.956  19.284  0.00  0.00    +0.000 N 
ATOM     25  C   UNL     1       1.519   5.323  19.733  0.00  0.00    +0.000 C 
ENDBRANCH  19  20
ENDBRANCH  11  19
TORSDOF 3
ENDMDL
