MODEL 1
REMARK VINA RESULT:      -7.1      0.000      0.000
REMARK  Name = 
REMARK  8 active torsions:
REMARK  status: ('A' for Active; 'I' for Inactive)
REMARK    1  A    between atoms: C_1  and  O_2
REMARK    2  A    between atoms: O_2  and  C_3
REMARK    3  A    between atoms: C_6  and  C_7
REMARK    4  A    between atoms: C_7  and  N_8
REMARK    5  A    between atoms: C_12  and  S_13
REMARK    6  A    between atoms: S_13  and  C_14
REMARK    7  A    between atoms: C_14  and  C_15
REMARK    8  A    between atoms: N_19  and  C_20
REMARK                            x       y       z     vdW  Elec       q    Type
REMARK                         _______ _______ _______ _____ _____    ______ ____
ROOT
ATOM      1  N   UNL     1       2.411   4.765  20.042  0.00  0.00    +0.000 N 
ATOM      2  N   UNL     1       1.882   4.437  21.243  0.00  0.00    +0.000 NA
ATOM      3  N   UNL     1       1.109   3.386  21.014  0.00  0.00    +0.000 NA
ATOM      4  N   UNL     1       1.110   3.053  19.682  0.00  0.00    +0.000 NA
ATOM      5  C   UNL     1       1.911   3.913  19.092  0.00  0.00    +0.000 A 
ENDROOT
BRANCH   1   6
ATOM      6  C   UNL     1       3.221   5.959  19.921  0.00  0.00    +0.000 C 
BRANCH   6  10
ATOM      7  C   UNL     1       0.966   9.511  18.887  0.00  0.00    +0.000 A 
ATOM      8  C   UNL     1       0.959   9.018  20.191  0.00  0.00    +0.000 A 
ATOM      9  C   UNL     1       1.695   7.879  20.524  0.00  0.00    +0.000 A 
ATOM     10  C   UNL     1       2.414   7.182  19.544  0.00  0.00    +0.000 A 
ATOM     11  C   UNL     1       2.398   7.673  18.229  0.00  0.00    +0.000 A 
ATOM     12  C   UNL     1       1.677   8.828  17.902  0.00  0.00    +0.000 A 
BRANCH   7  14
ATOM     13  C   UNL     1      -1.182  10.476  18.915  0.00  0.00    +0.000 C 
ATOM     14  O   UNL     1       0.214  10.634  18.678  0.00  0.00    +0.000 OA
ENDBRANCH   7  14
ENDBRANCH   6  10
ENDBRANCH   1   6
BRANCH   5  15
ATOM     15  S   UNL     1       2.084   4.072  17.386  0.00  0.00    +0.000 S 
BRANCH  15  16
ATOM     16  C   UNL     1       3.872   3.829  17.130  0.00  0.00    +0.000 C 
BRANCH  16  17
ATOM     17  C   UNL     1       4.569   5.077  16.534  0.00  0.00    +0.000 C 
ATOM     18  C   UNL     1       5.393   4.710  15.281  0.00  0.00    +0.000 C 
ATOM     19  C   UNL     1       6.699   3.990  15.629  0.00  0.00    +0.000 C 
ATOM     20  C   UNL     1       7.478   4.682  16.752  0.00  0.00    +0.000 C 
ATOM     21  N   UNL     1       6.612   4.935  17.917  0.00  0.00    +0.000 NA
ATOM     22  C   UNL     1       7.371   5.543  19.011  0.00  0.00    +0.000 C 
ATOM     23  C   UNL     1       5.498   5.811  17.520  0.00  0.00    +0.000 C 
ENDBRANCH  16  17
ENDBRANCH  15  16
ENDBRANCH   5  15
TORSDOF 6
ENDMDL
MODEL 2
REMARK VINA RESULT:      -7.0      3.779      7.419
REMARK  Name = 
REMARK  8 active torsions:
REMARK  status: ('A' for Active; 'I' for Inactive)
REMARK    1  A    between atoms: C_1  and  O_2
REMARK    2  A    between atoms: O_2  and  C_3
REMARK    3  A    between atoms: C_6  and  C_7
REMARK    4  A    between atoms: C_7  and  N_8
REMARK    5  A    between atoms: C_12  and  S_13
REMARK    6  A    between atoms: S_13  and  C_14
REMARK    7  A    between atoms: C_14  and  C_15
REMARK    8  A    between atoms: N_19  and  C_20
REMARK                            x       y       z     vdW  Elec       q    Type
REMARK                         _______ _______ _______ _____ _____    ______ ____
ROOT
ATOM      1  N   UNL     1       6.871   5.335  16.682  0.00  0.00    +0.000 N 
ATOM      2  N   UNL     1       7.961   4.674  17.135  0.00  0.00    +0.000 NA
ATOM      3  N   UNL     1       7.677   4.341  18.386  0.00  0.00    +0.000 NA
ATOM      4  N   UNL     1       6.437   4.804  18.750  0.00  0.00    +0.000 NA
ATOM      5  C   UNL     1       5.951   5.419  17.695  0.00  0.00    +0.000 A 
ENDROOT
BRANCH   1   6
ATOM      6  C   UNL     1       6.901   5.944  15.368  0.00  0.00    +0.000 C 
BRANCH   6  10
ATOM      7  C   UNL     1       5.888   3.204  12.168  0.00  0.00    +0.000 A 
ATOM      8  C   UNL     1       5.045   3.358  13.267  0.00  0.00    +0.000 A 
ATOM      9  C   UNL     1       5.368   4.249  14.293  0.00  0.00    +0.000 A 
ATOM     10  C   UNL     1       6.570   4.969  14.260  0.00  0.00    +0.000 A 
ATOM     11  C   UNL     1       7.423   4.792  13.159  0.00  0.00    +0.000 A 
ATOM     12  C   UNL     1       7.086   3.914  12.122  0.00  0.00    +0.000 A 
BRANCH   7  14
ATOM     13  C   UNL     1       6.172   1.070  11.214  0.00  0.00    +0.000 C 
ATOM     14  O   UNL     1       5.468   2.310  11.224  0.00  0.00    +0.000 OA
ENDBRANCH   7  14
ENDBRANCH   6  10
ENDBRANCH   1   6
BRANCH   5  15
ATOM     15  S   UNL     1       4.518   6.372  17.695  0.00  0.00    +0.000 S 
BRANCH  15  16
ATOM     16  C   UNL     1       3.675   5.847  19.223  0.00  0.00    +0.000 C 
BRANCH  16  17
ATOM     17  C   UNL     1       2.567   4.796  18.968  0.00  0.00    +0.000 C 
ATOM     18  C   UNL     1       1.551   4.764  20.130  0.00  0.00    +0.000 C 
ATOM     19  C   UNL     1       2.106   4.063  21.373  0.00  0.00    +0.000 C 
ATOM     20  C   UNL     1       2.783   2.726  21.050  0.00  0.00    +0.000 C 
ATOM     21  N   UNL     1       3.770   2.883  19.968  0.00  0.00    +0.000 NA
ATOM     22  C   UNL     1       4.457   1.619  19.700  0.00  0.00    +0.000 C 
ATOM     23  C   UNL     1       3.094   3.364  18.752  0.00  0.00    +0.000 C 
ENDBRANCH  16  17
ENDBRANCH  15  16
ENDBRANCH   5  15
TORSDOF 6
ENDMDL
MODEL 3
REMARK VINA RESULT:      -7.0      0.224      1.029
REMARK  Name = 
REMARK  8 active torsions:
REMARK  status: ('A' for Active; 'I' for Inactive)
REMARK    1  A    between atoms: C_1  and  O_2
REMARK    2  A    between atoms: O_2  and  C_3
REMARK    3  A    between atoms: C_6  and  C_7
REMARK    4  A    between atoms: C_7  and  N_8
REMARK    5  A    between atoms: C_12  and  S_13
REMARK    6  A    between atoms: S_13  and  C_14
REMARK    7  A    between atoms: C_14  and  C_15
REMARK    8  A    between atoms: N_19  and  C_20
REMARK                            x       y       z     vdW  Elec       q    Type
REMARK                         _______ _______ _______ _____ _____    ______ ____
ROOT
ATOM      1  N   UNL     1       2.418   4.656  20.046  0.00  0.00    +0.000 N 
ATOM      2  N   UNL     1       1.848   4.353  21.236  0.00  0.00    +0.000 NA
ATOM      3  N   UNL     1       1.054   3.320  20.994  0.00  0.00    +0.000 NA
ATOM      4  N   UNL     1       1.083   2.975  19.666  0.00  0.00    +0.000 NA
ATOM      5  C   UNL     1       1.922   3.808  19.090  0.00  0.00    +0.000 A 
ENDROOT
BRANCH   1   6
ATOM      6  C   UNL     1       3.262   5.827  19.937  0.00  0.00    +0.000 C 
BRANCH   6  10
ATOM      7  C   UNL     1       0.988   9.371  18.918  0.00  0.00    +0.000 A 
ATOM      8  C   UNL     1       1.762   8.722  17.957  0.00  0.00    +0.000 A 
ATOM      9  C   UNL     1       2.486   7.574  18.286  0.00  0.00    +0.000 A 
ATOM     10  C   UNL     1       2.487   7.081  19.598  0.00  0.00    +0.000 A 
ATOM     11  C   UNL     1       1.721   7.754  20.563  0.00  0.00    +0.000 A 
ATOM     12  C   UNL     1       0.978   8.892  20.226  0.00  0.00    +0.000 A 
BRANCH   7  14
ATOM     13  C   UNL     1      -0.780  10.879  19.298  0.00  0.00    +0.000 C 
ATOM     14  O   UNL     1       0.318  10.480  18.482  0.00  0.00    +0.000 OA
ENDBRANCH   7  14
ENDBRANCH   6  10
ENDBRANCH   1   6
BRANCH   5  15
ATOM     15  S   UNL     1       2.145   3.946  17.389  0.00  0.00    +0.000 S 
BRANCH  15  16
ATOM     16  C   UNL     1       3.952   3.799  17.198  0.00  0.00    +0.000 C 
BRANCH  16  17
ATOM     17  C   UNL     1       4.590   5.042  16.530  0.00  0.00    +0.000 C 
ATOM     18  C   UNL     1       5.286   4.666  15.205  0.00  0.00    +0.000 C 
ATOM     19  C   UNL     1       6.618   3.945  15.427  0.00  0.00    +0.000 C 
ATOM     20  C   UNL     1       7.505   4.641  16.465  0.00  0.00    +0.000 C 
ATOM     21  N   UNL     1       6.757   4.902  17.707  0.00  0.00    +0.000 NA
ATOM     22  C   UNL     1       7.621   5.514  18.718  0.00  0.00    +0.000 C 
ATOM     23  C   UNL     1       5.611   5.779  17.417  0.00  0.00    +0.000 C 
ENDBRANCH  16  17
ENDBRANCH  15  16
ENDBRANCH   5  15
TORSDOF 6
ENDMDL
MODEL 4
REMARK VINA RESULT:      -6.9      1.180      1.713
REMARK  Name = 
REMARK  8 active torsions:
REMARK  status: ('A' for Active; 'I' for Inactive)
REMARK    1  A    between atoms: C_1  and  O_2
REMARK    2  A    between atoms: O_2  and  C_3
REMARK    3  A    between atoms: C_6  and  C_7
REMARK    4  A    between atoms: C_7  and  N_8
REMARK    5  A    between atoms: C_12  and  S_13
REMARK    6  A    between atoms: S_13  and  C_14
REMARK    7  A    between atoms: C_14  and  C_15
REMARK    8  A    between atoms: N_19  and  C_20
REMARK                            x       y       z     vdW  Elec       q    Type
REMARK                         _______ _______ _______ _____ _____    ______ ____
ROOT
ATOM      1  N   UNL     1       1.771   3.761  20.159  0.00  0.00    +0.000 N 
ATOM      2  N   UNL     1       0.453   3.576  19.916  0.00  0.00    +0.000 NA
ATOM      3  N   UNL     1       0.391   2.573  19.054  0.00  0.00    +0.000 NA
ATOM      4  N   UNL     1       1.646   2.132  18.717  0.00  0.00    +0.000 NA
ATOM      5  C   UNL     1       2.489   2.875  19.400  0.00  0.00    +0.000 A 
ENDROOT
BRANCH   1   6
ATOM      6  C   UNL     1       2.195   4.875  20.982  0.00  0.00    +0.000 C 
BRANCH   6  10
ATOM      7  C   UNL     1       1.747   8.661  18.923  0.00  0.00    +0.000 A 
ATOM      8  C   UNL     1       2.348   7.574  18.291  0.00  0.00    +0.000 A 
ATOM      9  C   UNL     1       2.482   6.351  18.953  0.00  0.00    +0.000 A 
ATOM     10  C   UNL     1       2.060   6.209  20.282  0.00  0.00    +0.000 A 
ATOM     11  C   UNL     1       1.475   7.316  20.917  0.00  0.00    +0.000 A 
ATOM     12  C   UNL     1       1.322   8.534  20.244  0.00  0.00    +0.000 A 
BRANCH   7  14
ATOM     13  C   UNL     1       0.865  10.837  18.747  0.00  0.00    +0.000 C 
ATOM     14  O   UNL     1       1.665   9.804  18.178  0.00  0.00    +0.000 OA
ENDBRANCH   7  14
ENDBRANCH   6  10
ENDBRANCH   1   6
BRANCH   5  15
ATOM     15  S   UNL     1       4.195   2.879  19.168  0.00  0.00    +0.000 S 
BRANCH  15  16
ATOM     16  C   UNL     1       4.364   2.974  17.356  0.00  0.00    +0.000 C 
BRANCH  16  17
ATOM     17  C   UNL     1       4.547   4.423  16.844  0.00  0.00    +0.000 C 
ATOM     18  C   UNL     1       5.028   4.439  15.377  0.00  0.00    +0.000 C 
ATOM     19  C   UNL     1       6.508   4.071  15.241  0.00  0.00    +0.000 C 
ATOM     20  C   UNL     1       7.400   4.819  16.237  0.00  0.00    +0.000 C 
ATOM     21  N   UNL     1       6.881   4.692  17.610  0.00  0.00    +0.000 NA
ATOM     22  C   UNL     1       7.766   5.357  18.567  0.00  0.00    +0.000 C 
ATOM     23  C   UNL     1       5.528   5.268  17.679  0.00  0.00    +0.000 C 
ENDBRANCH  16  17
ENDBRANCH  15  16
ENDBRANCH   5  15
TORSDOF 6
ENDMDL
MODEL 5
REMARK VINA RESULT:      -6.9      4.745      6.922
REMARK  Name = 
REMARK  8 active torsions:
REMARK  status: ('A' for Active; 'I' for Inactive)
REMARK    1  A    between atoms: C_1  and  O_2
REMARK    2  A    between atoms: O_2  and  C_3
REMARK    3  A    between atoms: C_6  and  C_7
REMARK    4  A    between atoms: C_7  and  N_8
REMARK    5  A    between atoms: C_12  and  S_13
REMARK    6  A    between atoms: S_13  and  C_14
REMARK    7  A    between atoms: C_14  and  C_15
REMARK    8  A    between atoms: N_19  and  C_20
REMARK                            x       y       z     vdW  Elec       q    Type
REMARK                         _______ _______ _______ _____ _____    ______ ____
ROOT
ATOM      1  N   UNL     1       6.728   6.187  17.857  0.00  0.00    +0.000 N 
ATOM      2  N   UNL     1       6.973   5.049  18.546  0.00  0.00    +0.000 NA
ATOM      3  N   UNL     1       7.964   5.343  19.375  0.00  0.00    +0.000 NA
ATOM      4  N   UNL     1       8.377   6.641  19.207  0.00  0.00    +0.000 NA
ATOM      5  C   UNL     1       7.613   7.151  18.266  0.00  0.00    +0.000 A 
ENDROOT
BRANCH   1   6
ATOM      6  C   UNL     1       5.768   6.173  16.773  0.00  0.00    +0.000 C 
BRANCH   6  10
ATOM      7  C   UNL     1       2.183   3.978  17.823  0.00  0.00    +0.000 A 
ATOM      8  C   UNL     1       3.188   3.379  17.064  0.00  0.00    +0.000 A 
ATOM      9  C   UNL     1       4.347   4.085  16.736  0.00  0.00    +0.000 A 
ATOM     10  C   UNL     1       4.500   5.424  17.120  0.00  0.00    +0.000 A 
ATOM     11  C   UNL     1       3.474   6.025  17.866  0.00  0.00    +0.000 A 
ATOM     12  C   UNL     1       2.322   5.308  18.213  0.00  0.00    +0.000 A 
BRANCH   7  14
ATOM     13  C   UNL     1       0.844   2.961  19.472  0.00  0.00    +0.000 C 
ATOM     14  O   UNL     1       1.097   3.190  18.088  0.00  0.00    +0.000 OA
ENDBRANCH   7  14
ENDBRANCH   6  10
ENDBRANCH   1   6
BRANCH   5  15
ATOM     15  S   UNL     1       7.870   8.682  17.523  0.00  0.00    +0.000 S 
BRANCH  15  16
ATOM     16  C   UNL     1       8.956   9.538  18.710  0.00  0.00    +0.000 C 
BRANCH  16  17
ATOM     17  C   UNL     1       9.125  11.045  18.392  0.00  0.00    +0.000 C 
ATOM     18  C   UNL     1      10.535  11.343  17.840  0.00  0.00    +0.000 C 
ATOM     19  C   UNL     1      11.608  11.324  18.932  0.00  0.00    +0.000 C 
ATOM     20  C   UNL     1      11.204  12.121  20.177  0.00  0.00    +0.000 C 
ATOM     21  N   UNL     1       9.868  11.718  20.651  0.00  0.00    +0.000 NA
ATOM     22  C   UNL     1       9.507  12.438  21.872  0.00  0.00    +0.000 C 
ATOM     23  C   UNL     1       8.874  11.974  19.595  0.00  0.00    +0.000 C 
ENDBRANCH  16  17
ENDBRANCH  15  16
ENDBRANCH   5  15
TORSDOF 6
ENDMDL
MODEL 6
REMARK VINA RESULT:      -6.9      3.555      6.950
REMARK  Name = 
REMARK  8 active torsions:
REMARK  status: ('A' for Active; 'I' for Inactive)
REMARK    1  A    between atoms: C_1  and  O_2
REMARK    2  A    between atoms: O_2  and  C_3
REMARK    3  A    between atoms: C_6  and  C_7
REMARK    4  A    between atoms: C_7  and  N_8
REMARK    5  A    between atoms: C_12  and  S_13
REMARK    6  A    between atoms: S_13  and  C_14
REMARK    7  A    between atoms: C_14  and  C_15
REMARK    8  A    between atoms: N_19  and  C_20
REMARK                            x       y       z     vdW  Elec       q    Type
REMARK                         _______ _______ _______ _____ _____    ______ ____
ROOT
ATOM      1  N   UNL     1       6.654   5.622  17.701  0.00  0.00    +0.000 N 
ATOM      2  N   UNL     1       7.698   5.131  18.408  0.00  0.00    +0.000 NA
ATOM      3  N   UNL     1       7.186   4.730  19.561  0.00  0.00    +0.000 NA
ATOM      4  N   UNL     1       5.838   4.984  19.618  0.00  0.00    +0.000 NA
ATOM      5  C   UNL     1       5.522   5.539  18.469  0.00  0.00    +0.000 A 
ENDROOT
BRANCH   1   6
ATOM      6  C   UNL     1       6.895   6.257  16.422  0.00  0.00    +0.000 C 
BRANCH   6  10
ATOM      7  C   UNL     1       6.017   3.639  13.083  0.00  0.00    +0.000 A 
ATOM      8  C   UNL     1       7.156   4.442  13.077  0.00  0.00    +0.000 A 
ATOM      9  C   UNL     1       7.443   5.278  14.159  0.00  0.00    +0.000 A 
ATOM     10  C   UNL     1       6.565   5.361  15.249  0.00  0.00    +0.000 A 
ATOM     11  C   UNL     1       5.410   4.564  15.236  0.00  0.00    +0.000 A 
ATOM     12  C   UNL     1       5.136   3.711  14.161  0.00  0.00    +0.000 A 
BRANCH   7  14
ATOM     13  C   UNL     1       4.553   2.950  11.372  0.00  0.00    +0.000 C 
ATOM     14  O   UNL     1       5.841   2.858  11.975  0.00  0.00    +0.000 OA
ENDBRANCH   7  14
ENDBRANCH   6  10
ENDBRANCH   1   6
BRANCH   5  15
ATOM     15  S   UNL     1       3.996   6.254  18.117  0.00  0.00    +0.000 S 
BRANCH  15  16
ATOM     16  C   UNL     1       2.983   5.790  19.559  0.00  0.00    +0.000 C 
BRANCH  16  17
ATOM     17  C   UNL     1       1.764   4.913  19.180  0.00  0.00    +0.000 C 
ATOM     18  C   UNL     1       0.996   4.453  20.437  0.00  0.00    +0.000 C 
ATOM     19  C   UNL     1       1.723   3.338  21.194  0.00  0.00    +0.000 C 
ATOM     20  C   UNL     1       2.213   2.216  20.272  0.00  0.00    +0.000 C 
ATOM     21  N   UNL     1       2.979   2.762  19.138  0.00  0.00    +0.000 NA
ATOM     22  C   UNL     1       3.495   1.686  18.291  0.00  0.00    +0.000 C 
ATOM     23  C   UNL     1       2.121   3.663  18.352  0.00  0.00    +0.000 C 
ENDBRANCH  16  17
ENDBRANCH  15  16
ENDBRANCH   5  15
TORSDOF 6
ENDMDL
MODEL 7
REMARK VINA RESULT:      -6.8      1.842      4.604
REMARK  Name = 
REMARK  8 active torsions:
REMARK  status: ('A' for Active; 'I' for Inactive)
REMARK    1  A    between atoms: C_1  and  O_2
REMARK    2  A    between atoms: O_2  and  C_3
REMARK    3  A    between atoms: C_6  and  C_7
REMARK    4  A    between atoms: C_7  and  N_8
REMARK    5  A    between atoms: C_12  and  S_13
REMARK    6  A    between atoms: S_13  and  C_14
REMARK    7  A    between atoms: C_14  and  C_15
REMARK    8  A    between atoms: N_19  and  C_20
REMARK                            x       y       z     vdW  Elec       q    Type
REMARK                         _______ _______ _______ _____ _____    ______ ____
ROOT
ATOM      1  N   UNL     1       5.499   6.695  16.789  0.00  0.00    +0.000 N 
ATOM      2  N   UNL     1       6.444   7.554  17.235  0.00  0.00    +0.000 NA
ATOM      3  N   UNL     1       7.484   6.800  17.556  0.00  0.00    +0.000 NA
ATOM      4  N   UNL     1       7.212   5.470  17.351  0.00  0.00    +0.000 NA
ATOM      5  C   UNL     1       5.984   5.416  16.884  0.00  0.00    +0.000 A 
ENDROOT
BRANCH   1   6
ATOM      6  C   UNL     1       4.178   7.192  16.464  0.00  0.00    +0.000 C 
BRANCH   6  10
ATOM      7  C   UNL     1       1.699   7.985  19.928  0.00  0.00    +0.000 A 
ATOM      8  C   UNL     1       1.731   8.876  18.856  0.00  0.00    +0.000 A 
ATOM      9  C   UNL     1       2.524   8.614  17.736  0.00  0.00    +0.000 A 
ATOM     10  C   UNL     1       3.338   7.474  17.690  0.00  0.00    +0.000 A 
ATOM     11  C   UNL     1       3.314   6.592  18.782  0.00  0.00    +0.000 A 
ATOM     12  C   UNL     1       2.502   6.847  19.894  0.00  0.00    +0.000 A 
BRANCH   7  14
ATOM     13  C   UNL     1       0.035   9.457  20.708  0.00  0.00    +0.000 C 
ATOM     14  O   UNL     1       0.884   8.342  20.966  0.00  0.00    +0.000 OA
ENDBRANCH   7  14
ENDBRANCH   6  10
ENDBRANCH   1   6
BRANCH   5  15
ATOM     15  S   UNL     1       5.082   3.965  16.676  0.00  0.00    +0.000 S 
BRANCH  15  16
ATOM     16  C   UNL     1       4.681   3.480  18.386  0.00  0.00    +0.000 C 
BRANCH  16  17
ATOM     17  C   UNL     1       3.658   2.320  18.459  0.00  0.00    +0.000 C 
ATOM     18  C   UNL     1       2.484   2.551  17.484  0.00  0.00    +0.000 C 
ATOM     19  C   UNL     1       1.504   3.614  17.988  0.00  0.00    +0.000 C 
ATOM     20  C   UNL     1       1.114   3.415  19.456  0.00  0.00    +0.000 C 
ATOM     21  N   UNL     1       2.310   3.261  20.304  0.00  0.00    +0.000 NA
ATOM     22  C   UNL     1       1.939   3.129  21.713  0.00  0.00    +0.000 C 
ATOM     23  C   UNL     1       3.075   2.082  19.865  0.00  0.00    +0.000 C 
ENDBRANCH  16  17
ENDBRANCH  15  16
ENDBRANCH   5  15
TORSDOF 6
ENDMDL
MODEL 8
REMARK VINA RESULT:      -6.7      1.881      4.159
REMARK  Name = 
REMARK  8 active torsions:
REMARK  status: ('A' for Active; 'I' for Inactive)
REMARK    1  A    between atoms: C_1  and  O_2
REMARK    2  A    between atoms: O_2  and  C_3
REMARK    3  A    between atoms: C_6  and  C_7
REMARK    4  A    between atoms: C_7  and  N_8
REMARK    5  A    between atoms: C_12  and  S_13
REMARK    6  A    between atoms: S_13  and  C_14
REMARK    7  A    between atoms: C_14  and  C_15
REMARK    8  A    between atoms: N_19  and  C_20
REMARK                            x       y       z     vdW  Elec       q    Type
REMARK                         _______ _______ _______ _____ _____    ______ ____
ROOT
ATOM      1  N   UNL     1       4.264   6.112  17.734  0.00  0.00    +0.000 N 
ATOM      2  N   UNL     1       5.112   7.121  17.427  0.00  0.00    +0.000 NA
ATOM      3  N   UNL     1       5.744   6.730  16.331  0.00  0.00    +0.000 NA
ATOM      4  N   UNL     1       5.338   5.476  15.947  0.00  0.00    +0.000 NA
ATOM      5  C   UNL     1       4.430   5.102  16.821  0.00  0.00    +0.000 A 
ENDROOT
BRANCH   1   6
ATOM      6  C   UNL     1       3.497   6.172  18.961  0.00  0.00    +0.000 C 
BRANCH   6  10
ATOM      7  C   UNL     1       0.851   9.598  19.141  0.00  0.00    +0.000 A 
ATOM      8  C   UNL     1       1.091   8.823  20.275  0.00  0.00    +0.000 A 
ATOM      9  C   UNL     1       1.952   7.725  20.217  0.00  0.00    +0.000 A 
ATOM     10  C   UNL     1       2.553   7.353  19.007  0.00  0.00    +0.000 A 
ATOM     11  C   UNL     1       2.289   8.126  17.866  0.00  0.00    +0.000 A 
ATOM     12  C   UNL     1       1.442   9.239  17.931  0.00  0.00    +0.000 A 
BRANCH   7  14
ATOM     13  C   UNL     1       0.537  11.926  18.988  0.00  0.00    +0.000 C 
ATOM     14  O   UNL     1      -0.005  10.650  19.317  0.00  0.00    +0.000 OA
ENDBRANCH   7  14
ENDBRANCH   6  10
ENDBRANCH   1   6
BRANCH   5  15
ATOM     15  S   UNL     1       3.767   3.517  16.923  0.00  0.00    +0.000 S 
BRANCH  15  16
ATOM     16  C   UNL     1       2.090   3.813  17.572  0.00  0.00    +0.000 C 
BRANCH  16  17
ATOM     17  C   UNL     1       1.559   2.635  18.426  0.00  0.00    +0.000 C 
ATOM     18  C   UNL     1       0.557   3.127  19.492  0.00  0.00    +0.000 C 
ATOM     19  C   UNL     1       1.247   3.830  20.664  0.00  0.00    +0.000 C 
ATOM     20  C   UNL     1       2.452   3.048  21.200  0.00  0.00    +0.000 C 
ATOM     21  N   UNL     1       3.369   2.678  20.108  0.00  0.00    +0.000 NA
ATOM     22  C   UNL     1       4.547   1.983  20.627  0.00  0.00    +0.000 C 
ATOM     23  C   UNL     1       2.660   1.826  19.138  0.00  0.00    +0.000 C 
ENDBRANCH  16  17
ENDBRANCH  15  16
ENDBRANCH   5  15
TORSDOF 6
ENDMDL
MODEL 9
REMARK VINA RESULT:      -6.7      3.900      7.574
REMARK  Name = 
REMARK  8 active torsions:
REMARK  status: ('A' for Active; 'I' for Inactive)
REMARK    1  A    between atoms: C_1  and  O_2
REMARK    2  A    between atoms: O_2  and  C_3
REMARK    3  A    between atoms: C_6  and  C_7
REMARK    4  A    between atoms: C_7  and  N_8
REMARK    5  A    between atoms: C_12  and  S_13
REMARK    6  A    between atoms: S_13  and  C_14
REMARK    7  A    between atoms: C_14  and  C_15
REMARK    8  A    between atoms: N_19  and  C_20
REMARK                            x       y       z     vdW  Elec       q    Type
REMARK                         _______ _______ _______ _____ _____    ______ ____
ROOT
ATOM      1  N   UNL     1       6.960   5.219  16.612  0.00  0.00    +0.000 N 
ATOM      2  N   UNL     1       8.103   4.519  16.805  0.00  0.00    +0.000 NA
ATOM      3  N   UNL     1       8.072   4.136  18.073  0.00  0.00    +0.000 NA
ATOM      4  N   UNL     1       6.946   4.604  18.703  0.00  0.00    +0.000 NA
ATOM      5  C   UNL     1       6.271   5.274  17.796  0.00  0.00    +0.000 A 
ENDROOT
BRANCH   1   6
ATOM      6  C   UNL     1       6.737   5.885  15.346  0.00  0.00    +0.000 C 
BRANCH   6  10
ATOM      7  C   UNL     1       5.838   3.080  12.168  0.00  0.00    +0.000 A 
ATOM      8  C   UNL     1       7.013   3.830  12.144  0.00  0.00    +0.000 A 
ATOM      9  C   UNL     1       7.305   4.727  13.175  0.00  0.00    +0.000 A 
ATOM     10  C   UNL     1       6.401   4.924  14.227  0.00  0.00    +0.000 A 
ATOM     11  C   UNL     1       5.211   4.179  14.232  0.00  0.00    +0.000 A 
ATOM     12  C   UNL     1       4.930   3.265  13.209  0.00  0.00    +0.000 A 
BRANCH   7  14
ATOM     13  C   UNL     1       6.568   1.135  11.061  0.00  0.00    +0.000 C 
ATOM     14  O   UNL     1       5.660   2.232  11.111  0.00  0.00    +0.000 OA
ENDBRANCH   7  14
ENDBRANCH   6  10
ENDBRANCH   1   6
BRANCH   5  15
ATOM     15  S   UNL     1       4.893   6.250  18.128  0.00  0.00    +0.000 S 
BRANCH  15  16
ATOM     16  C   UNL     1       3.986   5.273  19.371  0.00  0.00    +0.000 C 
BRANCH  16  17
ATOM     17  C   UNL     1       3.830   3.785  18.969  0.00  0.00    +0.000 C 
ATOM     18  C   UNL     1       2.958   3.638  17.705  0.00  0.00    +0.000 C 
ATOM     19  C   UNL     1       1.469   3.847  17.992  0.00  0.00    +0.000 C 
ATOM     20  C   UNL     1       0.986   3.070  19.222  0.00  0.00    +0.000 C 
ATOM     21  N   UNL     1       1.856   3.326  20.383  0.00  0.00    +0.000 NA
ATOM     22  C   UNL     1       1.361   2.630  21.571  0.00  0.00    +0.000 C 
ATOM     23  C   UNL     1       3.229   2.894  20.074  0.00  0.00    +0.000 C 
ENDBRANCH  16  17
ENDBRANCH  15  16
ENDBRANCH   5  15
TORSDOF 6
ENDMDL
