MODEL 1
REMARK VINA RESULT:      -7.4      0.000      0.000
REMARK  Name = 
REMARK  10 active torsions:
REMARK  status: ('A' for Active; 'I' for Inactive)
REMARK    1  A    between atoms: N_1  and  N_2
REMARK    2  A    between atoms: C_3  and  S_4
REMARK    3  A    between atoms: S_4  and  C_5
REMARK    4  A    between atoms: C_5  and  C_6
REMARK    5  A    between atoms: C_6  and  C_7
REMARK    6  A    between atoms: C_7  and  S_8
REMARK    7  A    between atoms: S_8  and  C_9
REMARK    8  A    between atoms: C_12  and  C_13
REMARK    9  A    between atoms: N_19  and  N_20
REMARK   10  A    between atoms: C_23  and  C_24
REMARK                            x       y       z     vdW  Elec       q    Type
REMARK                         _______ _______ _______ _____ _____    ______ ____
ROOT
ATOM      1  C   UNL     1       1.043   4.321  20.365  0.00  0.00    +0.000 C 
ENDROOT
BRANCH   1   2
ATOM      2  C   UNL     1       2.207   5.202  20.845  0.00  0.00    +0.000 C 
BRANCH   2   3
ATOM      3  S   UNL     1       2.735   6.389  19.568  0.00  0.00    +0.000 S 
BRANCH   3   5
ATOM      4  N   UNL     1       1.619   8.841  19.118  0.00  0.00    +0.000 N 
ATOM      5  C   UNL     1       1.850   7.812  20.002  0.00  0.00    +0.000 A 
ATOM      6  N   UNL     1       1.326   8.101  21.168  0.00  0.00    +0.000 NA
ATOM      7  N   UNL     1       0.718   9.334  21.054  0.00  0.00    +0.000 NA
ATOM      8  C   UNL     1       0.858   9.769  19.809  0.00  0.00    +0.000 A 
BRANCH   8   9
ATOM      9  C   UNL     1       0.364  11.042  19.286  0.00  0.00    +0.000 A 
ATOM     10  C   UNL     1      -0.915  11.204  18.742  0.00  0.00    +0.000 A 
ATOM     11  C   UNL     1      -1.301  12.433  18.208  0.00  0.00    +0.000 A 
ATOM     12  C   UNL     1      -0.399  13.481  18.254  0.00  0.00    +0.000 A 
ATOM     13  N   UNL     1       0.831  13.380  18.798  0.00  0.00    +0.000 NA
ATOM     14  C   UNL     1       1.179  12.171  19.308  0.00  0.00    +0.000 A 
ENDBRANCH   8   9
BRANCH   4  15
ATOM     15  N   UNL     1       2.135   8.963  17.769  0.00  0.00    +0.000 N 
ATOM     16  H   UNL     1       3.024   9.464  17.779  0.00  0.00    +0.000 HD
ATOM     17  H   UNL     1       1.518   9.533  17.193  0.00  0.00    +0.000 HD
ENDBRANCH   4  15
ENDBRANCH   3   5
ENDBRANCH   2   3
ENDBRANCH   1   2
BRANCH   1  18
ATOM     18  C   UNL     1       1.040   2.916  20.977  0.00  0.00    +0.000 C 
BRANCH  18  19
ATOM     19  S   UNL     1       2.573   2.040  20.533  0.00  0.00    +0.000 S 
BRANCH  19  20
ATOM     20  C   UNL     1       2.822   2.589  18.907  0.00  0.00    +0.000 A 
ATOM     21  N   UNL     1       1.963   2.602  17.921  0.00  0.00    +0.000 NA
ATOM     22  N   UNL     1       2.588   3.177  16.831  0.00  0.00    +0.000 NA
ATOM     23  C   UNL     1       3.831   3.487  17.167  0.00  0.00    +0.000 A 
ATOM     24  N   UNL     1       4.016   3.143  18.497  0.00  0.00    +0.000 N 
BRANCH  23  25
ATOM     25  C   UNL     1       4.811   4.157  16.310  0.00  0.00    +0.000 A 
ATOM     26  C   UNL     1       5.631   3.472  15.406  0.00  0.00    +0.000 A 
ATOM     27  C   UNL     1       6.585   4.163  14.660  0.00  0.00    +0.000 A 
ATOM     28  C   UNL     1       6.677   5.535  14.820  0.00  0.00    +0.000 A 
ATOM     29  N   UNL     1       5.889   6.240  15.656  0.00  0.00    +0.000 NA
ATOM     30  C   UNL     1       4.971   5.539  16.372  0.00  0.00    +0.000 A 
ENDBRANCH  23  25
BRANCH  24  31
ATOM     31  N   UNL     1       5.179   3.392  19.315  0.00  0.00    +0.000 N 
ATOM     32  H   UNL     1       5.661   2.519  19.531  0.00  0.00    +0.000 HD
ATOM     33  H   UNL     1       5.855   3.950  18.790  0.00  0.00    +0.000 HD
ENDBRANCH  24  31
ENDBRANCH  19  20
ENDBRANCH  18  19
ENDBRANCH   1  18
TORSDOF 10
ENDMDL
MODEL 2
REMARK VINA RESULT:      -7.3      2.170      8.326
REMARK  Name = 
REMARK  10 active torsions:
REMARK  status: ('A' for Active; 'I' for Inactive)
REMARK    1  A    between atoms: N_1  and  N_2
REMARK    2  A    between atoms: C_3  and  S_4
REMARK    3  A    between atoms: S_4  and  C_5
REMARK    4  A    between atoms: C_5  and  C_6
REMARK    5  A    between atoms: C_6  and  C_7
REMARK    6  A    between atoms: C_7  and  S_8
REMARK    7  A    between atoms: S_8  and  C_9
REMARK    8  A    between atoms: C_12  and  C_13
REMARK    9  A    between atoms: N_19  and  N_20
REMARK   10  A    between atoms: C_23  and  C_24
REMARK                            x       y       z     vdW  Elec       q    Type
REMARK                         _______ _______ _______ _____ _____    ______ ____
ROOT
ATOM      1  C   UNL     1       5.350   6.801  16.478  0.00  0.00    +0.000 C 
ENDROOT
BRANCH   1   2
ATOM      2  C   UNL     1       6.827   6.491  16.767  0.00  0.00    +0.000 C 
BRANCH   2   3
ATOM      3  S   UNL     1       7.177   4.705  16.690  0.00  0.00    +0.000 S 
BRANCH   3   5
ATOM      4  N   UNL     1       5.183   4.039  18.433  0.00  0.00    +0.000 N 
ATOM      5  C   UNL     1       5.655   4.015  17.140  0.00  0.00    +0.000 A 
ATOM      6  N   UNL     1       4.802   3.389  16.367  0.00  0.00    +0.000 NA
ATOM      7  N   UNL     1       3.733   3.010  17.151  0.00  0.00    +0.000 NA
ATOM      8  C   UNL     1       3.939   3.432  18.391  0.00  0.00    +0.000 A 
BRANCH   8   9
ATOM      9  C   UNL     1       3.043   3.220  19.528  0.00  0.00    +0.000 A 
ATOM     10  C   UNL     1       1.699   3.611  19.529  0.00  0.00    +0.000 A 
ATOM     11  C   UNL     1       0.916   3.431  20.669  0.00  0.00    +0.000 A 
ATOM     12  C   UNL     1       1.496   2.838  21.777  0.00  0.00    +0.000 A 
ATOM     13  N   UNL     1       2.777   2.415  21.809  0.00  0.00    +0.000 NA
ATOM     14  C   UNL     1       3.515   2.606  20.685  0.00  0.00    +0.000 A 
ENDBRANCH   8   9
BRANCH   4  15
ATOM     15  N   UNL     1       5.879   4.529  19.606  0.00  0.00    +0.000 N 
ATOM     16  H   UNL     1       5.253   5.107  20.167  0.00  0.00    +0.000 HD
ATOM     17  H   UNL     1       6.645   5.147  19.344  0.00  0.00    +0.000 HD
ENDBRANCH   4  15
ENDBRANCH   3   5
ENDBRANCH   2   3
ENDBRANCH   1   2
BRANCH   1  18
ATOM     18  C   UNL     1       4.635   7.524  17.624  0.00  0.00    +0.000 C 
BRANCH  18  19
ATOM     19  S   UNL     1       2.955   6.854  17.832  0.00  0.00    +0.000 S 
BRANCH  19  20
ATOM     20  C   UNL     1       2.095   8.253  18.387  0.00  0.00    +0.000 A 
ATOM     21  N   UNL     1       1.735   9.304  17.696  0.00  0.00    +0.000 NA
ATOM     22  N   UNL     1       1.026  10.136  18.541  0.00  0.00    +0.000 NA
ATOM     23  C   UNL     1       0.983   9.584  19.745  0.00  0.00    +0.000 A 
ATOM     24  N   UNL     1       1.642   8.367  19.684  0.00  0.00    +0.000 N 
BRANCH  23  25
ATOM     25  C   UNL     1       0.286  10.126  20.913  0.00  0.00    +0.000 A 
ATOM     26  C   UNL     1      -0.006   9.365  22.050  0.00  0.00    +0.000 A 
ATOM     27  C   UNL     1      -0.724   9.925  23.106  0.00  0.00    +0.000 A 
ATOM     28  C   UNL     1      -1.113  11.250  23.006  0.00  0.00    +0.000 A 
ATOM     29  N   UNL     1      -0.829  12.030  21.943  0.00  0.00    +0.000 NA
ATOM     30  C   UNL     1      -0.130  11.455  20.930  0.00  0.00    +0.000 A 
ENDBRANCH  23  25
BRANCH  24  31
ATOM     31  N   UNL     1       1.756   7.376  20.728  0.00  0.00    +0.000 N 
ATOM     32  H   UNL     1       1.076   6.629  20.593  0.00  0.00    +0.000 HD
ATOM     33  H   UNL     1       2.670   6.922  20.672  0.00  0.00    +0.000 HD
ENDBRANCH  24  31
ENDBRANCH  19  20
ENDBRANCH  18  19
ENDBRANCH   1  18
TORSDOF 10
ENDMDL
MODEL 3
REMARK VINA RESULT:      -7.1      5.855      7.525
REMARK  Name = 
REMARK  10 active torsions:
REMARK  status: ('A' for Active; 'I' for Inactive)
REMARK    1  A    between atoms: N_1  and  N_2
REMARK    2  A    between atoms: C_3  and  S_4
REMARK    3  A    between atoms: S_4  and  C_5
REMARK    4  A    between atoms: C_5  and  C_6
REMARK    5  A    between atoms: C_6  and  C_7
REMARK    6  A    between atoms: C_7  and  S_8
REMARK    7  A    between atoms: S_8  and  C_9
REMARK    8  A    between atoms: C_12  and  C_13
REMARK    9  A    between atoms: N_19  and  N_20
REMARK   10  A    between atoms: C_23  and  C_24
REMARK                            x       y       z     vdW  Elec       q    Type
REMARK                         _______ _______ _______ _____ _____    ______ ____
ROOT
ATOM      1  C   UNL     1       8.918   9.753  18.542  0.00  0.00    +0.000 C 
ENDROOT
BRANCH   1   2
ATOM      2  C   UNL     1       9.039  11.211  18.074  0.00  0.00    +0.000 C 
BRANCH   2   3
ATOM      3  S   UNL     1      10.190  12.167  19.113  0.00  0.00    +0.000 S 
BRANCH   3   5
ATOM      4  N   UNL     1       8.781  12.355  21.445  0.00  0.00    +0.000 N 
ATOM      5  C   UNL     1       9.119  12.928  20.240  0.00  0.00    +0.000 A 
ATOM      6  N   UNL     1       8.501  14.075  20.104  0.00  0.00    +0.000 NA
ATOM      7  N   UNL     1       7.754  14.282  21.245  0.00  0.00    +0.000 NA
ATOM      8  C   UNL     1       7.948  13.266  22.075  0.00  0.00    +0.000 A 
BRANCH   8   9
ATOM      9  C   UNL     1       7.326  13.102  23.389  0.00  0.00    +0.000 A 
ATOM     10  C   UNL     1       7.885  13.605  24.569  0.00  0.00    +0.000 A 
ATOM     11  C   UNL     1       7.267  13.362  25.796  0.00  0.00    +0.000 A 
ATOM     12  C   UNL     1       6.088  12.639  25.807  0.00  0.00    +0.000 A 
ATOM     13  N   UNL     1       5.497  12.165  24.691  0.00  0.00    +0.000 NA
ATOM     14  C   UNL     1       6.122  12.414  23.511  0.00  0.00    +0.000 A 
ENDBRANCH   8   9
BRANCH   4  15
ATOM     15  N   UNL     1       9.155  11.038  21.919  0.00  0.00    +0.000 N 
ATOM     16  H   UNL     1       8.539  10.754  22.681  0.00  0.00    +0.000 HD
ATOM     17  H   UNL     1      10.089  11.049  22.326  0.00  0.00    +0.000 HD
ENDBRANCH   4  15
ENDBRANCH   3   5
ENDBRANCH   2   3
ENDBRANCH   1   2
BRANCH   1  18
ATOM     18  C   UNL     1       7.873   8.941  17.769  0.00  0.00    +0.000 C 
BRANCH  18  19
ATOM     19  S   UNL     1       8.004   7.179  18.208  0.00  0.00    +0.000 S 
BRANCH  19  20
ATOM     20  C   UNL     1       6.528   6.552  17.549  0.00  0.00    +0.000 A 
ATOM     21  N   UNL     1       5.988   6.817  16.387  0.00  0.00    +0.000 NA
ATOM     22  N   UNL     1       4.848   6.047  16.272  0.00  0.00    +0.000 NA
ATOM     23  C   UNL     1       4.700   5.335  17.380  0.00  0.00    +0.000 A 
ATOM     24  N   UNL     1       5.767   5.617  18.217  0.00  0.00    +0.000 N 
BRANCH  23  25
ATOM     25  C   UNL     1       3.641   4.358  17.638  0.00  0.00    +0.000 A 
ATOM     26  C   UNL     1       2.323   4.719  17.938  0.00  0.00    +0.000 A 
ATOM     27  C   UNL     1       1.375   3.739  18.231  0.00  0.00    +0.000 A 
ATOM     28  C   UNL     1       1.768   2.412  18.191  0.00  0.00    +0.000 A 
ATOM     29  N   UNL     1       3.018   2.016  17.879  0.00  0.00    +0.000 NA
ATOM     30  C   UNL     1       3.920   2.993  17.601  0.00  0.00    +0.000 A 
ENDBRANCH  23  25
BRANCH  24  31
ATOM     31  N   UNL     1       6.076   5.000  19.485  0.00  0.00    +0.000 N 
ATOM     32  H   UNL     1       5.227   4.855  20.032  0.00  0.00    +0.000 HD
ATOM     33  H   UNL     1       6.457   4.065  19.328  0.00  0.00    +0.000 HD
ENDBRANCH  24  31
ENDBRANCH  19  20
ENDBRANCH  18  19
ENDBRANCH   1  18
TORSDOF 10
ENDMDL
MODEL 4
REMARK VINA RESULT:      -7.1      0.840      1.324
REMARK  Name = 
REMARK  10 active torsions:
REMARK  status: ('A' for Active; 'I' for Inactive)
REMARK    1  A    between atoms: N_1  and  N_2
REMARK    2  A    between atoms: C_3  and  S_4
REMARK    3  A    between atoms: S_4  and  C_5
REMARK    4  A    between atoms: C_5  and  C_6
REMARK    5  A    between atoms: C_6  and  C_7
REMARK    6  A    between atoms: C_7  and  S_8
REMARK    7  A    between atoms: S_8  and  C_9
REMARK    8  A    between atoms: C_12  and  C_13
REMARK    9  A    between atoms: N_19  and  N_20
REMARK   10  A    between atoms: C_23  and  C_24
REMARK                            x       y       z     vdW  Elec       q    Type
REMARK                         _______ _______ _______ _____ _____    ______ ____
ROOT
ATOM      1  C   UNL     1       1.111   4.017  20.559  0.00  0.00    +0.000 C 
ENDROOT
BRANCH   1   2
ATOM      2  C   UNL     1       1.861   5.268  21.041  0.00  0.00    +0.000 C 
BRANCH   2   3
ATOM      3  S   UNL     1       2.407   6.313  19.651  0.00  0.00    +0.000 S 
BRANCH   3   5
ATOM      4  N   UNL     1       1.546   8.857  19.153  0.00  0.00    +0.000 N 
ATOM      5  C   UNL     1       1.756   7.858  20.078  0.00  0.00    +0.000 A 
ATOM      6  N   UNL     1       1.413   8.279  21.271  0.00  0.00    +0.000 NA
ATOM      7  N   UNL     1       0.947   9.570  21.137  0.00  0.00    +0.000 NA
ATOM      8  C   UNL     1       0.989   9.911  19.857  0.00  0.00    +0.000 A 
BRANCH   8   9
ATOM      9  C   UNL     1       0.591  11.205  19.302  0.00  0.00    +0.000 A 
ATOM     10  C   UNL     1       1.396  12.348  19.369  0.00  0.00    +0.000 A 
ATOM     11  C   UNL     1       0.930  13.565  18.870  0.00  0.00    +0.000 A 
ATOM     12  C   UNL     1      -0.327  13.600  18.293  0.00  0.00    +0.000 A 
ATOM     13  N   UNL     1      -1.122  12.517  18.176  0.00  0.00    +0.000 NA
ATOM     14  C   UNL     1      -0.643  11.347  18.673  0.00  0.00    +0.000 A 
ENDBRANCH   8   9
BRANCH   4  15
ATOM     15  N   UNL     1       1.909   8.834  17.750  0.00  0.00    +0.000 N 
ATOM     16  H   UNL     1       2.481   8.014  17.551  0.00  0.00    +0.000 HD
ATOM     17  H   UNL     1       2.498   9.631  17.513  0.00  0.00    +0.000 HD
ENDBRANCH   4  15
ENDBRANCH   3   5
ENDBRANCH   2   3
ENDBRANCH   1   2
BRANCH   1  18
ATOM     18  C   UNL     1       1.418   2.759  21.379  0.00  0.00    +0.000 C 
BRANCH  18  19
ATOM     19  S   UNL     1       3.134   2.228  21.085  0.00  0.00    +0.000 S 
BRANCH  19  20
ATOM     20  C   UNL     1       3.292   2.507  19.381  0.00  0.00    +0.000 A 
ATOM     21  N   UNL     1       2.504   2.094  18.422  0.00  0.00    +0.000 NA
ATOM     22  N   UNL     1       2.993   2.602  17.234  0.00  0.00    +0.000 NA
ATOM     23  C   UNL     1       4.088   3.303  17.488  0.00  0.00    +0.000 A 
ATOM     24  N   UNL     1       4.304   3.281  18.857  0.00  0.00    +0.000 N 
BRANCH  23  25
ATOM     25  C   UNL     1       4.882   4.042  16.506  0.00  0.00    +0.000 A 
ATOM     26  C   UNL     1       4.772   5.424  16.317  0.00  0.00    +0.000 A 
ATOM     27  C   UNL     1       5.516   6.060  15.323  0.00  0.00    +0.000 A 
ATOM     28  C   UNL     1       6.376   5.293  14.555  0.00  0.00    +0.000 A 
ATOM     29  N   UNL     1       6.536   3.965  14.720  0.00  0.00    +0.000 NA
ATOM     30  C   UNL     1       5.796   3.373  15.693  0.00  0.00    +0.000 A 
ENDBRANCH  23  25
BRANCH  24  31
ATOM     31  N   UNL     1       5.319   3.992  19.597  0.00  0.00    +0.000 N 
ATOM     32  H   UNL     1       4.904   4.517  20.366  0.00  0.00    +0.000 HD
ATOM     33  H   UNL     1       5.952   3.323  20.040  0.00  0.00    +0.000 HD
ENDBRANCH  24  31
ENDBRANCH  19  20
ENDBRANCH  18  19
ENDBRANCH   1  18
TORSDOF 10
ENDMDL
MODEL 5
REMARK VINA RESULT:      -7.1      0.857      1.735
REMARK  Name = 
REMARK  10 active torsions:
REMARK  status: ('A' for Active; 'I' for Inactive)
REMARK    1  A    between atoms: N_1  and  N_2
REMARK    2  A    between atoms: C_3  and  S_4
REMARK    3  A    between atoms: S_4  and  C_5
REMARK    4  A    between atoms: C_5  and  C_6
REMARK    5  A    between atoms: C_6  and  C_7
REMARK    6  A    between atoms: C_7  and  S_8
REMARK    7  A    between atoms: S_8  and  C_9
REMARK    8  A    between atoms: C_12  and  C_13
REMARK    9  A    between atoms: N_19  and  N_20
REMARK   10  A    between atoms: C_23  and  C_24
REMARK                            x       y       z     vdW  Elec       q    Type
REMARK                         _______ _______ _______ _____ _____    ______ ____
ROOT
ATOM      1  C   UNL     1       1.085   4.265  20.632  0.00  0.00    +0.000 C 
ENDROOT
BRANCH   1   2
ATOM      2  C   UNL     1       2.144   5.328  20.962  0.00  0.00    +0.000 C 
BRANCH   2   3
ATOM      3  S   UNL     1       2.510   6.391  19.528  0.00  0.00    +0.000 S 
BRANCH   3   5
ATOM      4  N   UNL     1       1.575   8.921  19.096  0.00  0.00    +0.000 N 
ATOM      5  C   UNL     1       1.771   7.888  19.985  0.00  0.00    +0.000 A 
ATOM      6  N   UNL     1       1.341   8.236  21.173  0.00  0.00    +0.000 NA
ATOM      7  N   UNL     1       0.830   9.513  21.071  0.00  0.00    +0.000 NA
ATOM      8  C   UNL     1       0.934   9.918  19.812  0.00  0.00    +0.000 A 
BRANCH   8   9
ATOM      9  C   UNL     1       0.516  11.221  19.294  0.00  0.00    +0.000 A 
ATOM     10  C   UNL     1       1.298  12.376  19.405  0.00  0.00    +0.000 A 
ATOM     11  C   UNL     1       0.813  13.599  18.939  0.00  0.00    +0.000 A 
ATOM     12  C   UNL     1      -0.439  13.628  18.352  0.00  0.00    +0.000 A 
ATOM     13  N   UNL     1      -1.212  12.534  18.195  0.00  0.00    +0.000 NA
ATOM     14  C   UNL     1      -0.715  11.359  18.659  0.00  0.00    +0.000 A 
ENDBRANCH   8   9
BRANCH   4  15
ATOM     15  N   UNL     1       2.020   8.981  17.718  0.00  0.00    +0.000 N 
ATOM     16  H   UNL     1       2.820   8.362  17.583  0.00  0.00    +0.000 HD
ATOM     17  H   UNL     1       2.365   9.911  17.487  0.00  0.00    +0.000 HD
ENDBRANCH   4  15
ENDBRANCH   3   5
ENDBRANCH   2   3
ENDBRANCH   1   2
BRANCH   1  18
ATOM     18  C   UNL     1       1.358   2.901  21.278  0.00  0.00    +0.000 C 
BRANCH  18  19
ATOM     19  S   UNL     1       1.965   1.729  20.024  0.00  0.00    +0.000 S 
BRANCH  19  20
ATOM     20  C   UNL     1       3.362   2.562  19.425  0.00  0.00    +0.000 A 
ATOM     21  N   UNL     1       4.518   2.724  20.015  0.00  0.00    +0.000 NA
ATOM     22  N   UNL     1       5.342   3.403  19.139  0.00  0.00    +0.000 NA
ATOM     23  C   UNL     1       4.665   3.663  18.030  0.00  0.00    +0.000 A 
ATOM     24  N   UNL     1       3.395   3.124  18.167  0.00  0.00    +0.000 N 
BRANCH  23  25
ATOM     25  C   UNL     1       5.192   4.327  16.837  0.00  0.00    +0.000 A 
ATOM     26  C   UNL     1       4.933   5.667  16.530  0.00  0.00    +0.000 A 
ATOM     27  C   UNL     1       5.418   6.224  15.346  0.00  0.00    +0.000 A 
ATOM     28  C   UNL     1       6.176   5.424  14.507  0.00  0.00    +0.000 A 
ATOM     29  N   UNL     1       6.475   4.138  14.776  0.00  0.00    +0.000 NA
ATOM     30  C   UNL     1       5.987   3.623  15.934  0.00  0.00    +0.000 A 
ENDBRANCH  23  25
BRANCH  24  31
ATOM     31  N   UNL     1       2.350   3.076  17.172  0.00  0.00    +0.000 N 
ATOM     32  H   UNL     1       1.715   2.300  17.354  0.00  0.00    +0.000 HD
ATOM     33  H   UNL     1       1.774   3.917  17.239  0.00  0.00    +0.000 HD
ENDBRANCH  24  31
ENDBRANCH  19  20
ENDBRANCH  18  19
ENDBRANCH   1  18
TORSDOF 10
ENDMDL
MODEL 6
REMARK VINA RESULT:      -7.0      0.922      7.974
REMARK  Name = 
REMARK  10 active torsions:
REMARK  status: ('A' for Active; 'I' for Inactive)
REMARK    1  A    between atoms: N_1  and  N_2
REMARK    2  A    between atoms: C_3  and  S_4
REMARK    3  A    between atoms: S_4  and  C_5
REMARK    4  A    between atoms: C_5  and  C_6
REMARK    5  A    between atoms: C_6  and  C_7
REMARK    6  A    between atoms: C_7  and  S_8
REMARK    7  A    between atoms: S_8  and  C_9
REMARK    8  A    between atoms: C_12  and  C_13
REMARK    9  A    between atoms: N_19  and  N_20
REMARK   10  A    between atoms: C_23  and  C_24
REMARK                            x       y       z     vdW  Elec       q    Type
REMARK                         _______ _______ _______ _____ _____    ______ ____
ROOT
ATOM      1  C   UNL     1       1.045   4.247  20.210  0.00  0.00    +0.000 C 
ENDROOT
BRANCH   1   2
ATOM      2  C   UNL     1       1.332   3.040  21.117  0.00  0.00    +0.000 C 
BRANCH   2   3
ATOM      3  S   UNL     1       2.301   1.758  20.258  0.00  0.00    +0.000 S 
BRANCH   3   5
ATOM      4  N   UNL     1       3.881   3.055  18.446  0.00  0.00    +0.000 N 
ATOM      5  C   UNL     1       2.649   2.516  18.742  0.00  0.00    +0.000 A 
ATOM      6  N   UNL     1       1.832   2.694  17.732  0.00  0.00    +0.000 NA
ATOM      7  N   UNL     1       2.536   3.342  16.739  0.00  0.00    +0.000 NA
ATOM      8  C   UNL     1       3.783   3.529  17.149  0.00  0.00    +0.000 A 
BRANCH   8   9
ATOM      9  C   UNL     1       4.843   4.193  16.390  0.00  0.00    +0.000 A 
ATOM     10  C   UNL     1       5.614   3.543  15.420  0.00  0.00    +0.000 A 
ATOM     11  C   UNL     1       6.648   4.221  14.775  0.00  0.00    +0.000 A 
ATOM     12  C   UNL     1       6.870   5.546  15.103  0.00  0.00    +0.000 A 
ATOM     13  N   UNL     1       6.130   6.222  16.006  0.00  0.00    +0.000 NA
ATOM     14  C   UNL     1       5.132   5.535  16.619  0.00  0.00    +0.000 A 
ENDBRANCH   8   9
BRANCH   4  15
ATOM     15  N   UNL     1       5.017   3.172  19.338  0.00  0.00    +0.000 N 
ATOM     16  H   UNL     1       5.587   3.975  19.072  0.00  0.00    +0.000 HD
ATOM     17  H   UNL     1       5.635   2.368  19.247  0.00  0.00    +0.000 HD
ENDBRANCH   4  15
ENDBRANCH   3   5
ENDBRANCH   2   3
ENDBRANCH   1   2
BRANCH   1  18
ATOM     18  C   UNL     1       1.594   5.571  20.754  0.00  0.00    +0.000 C 
BRANCH  18  19
ATOM     19  S   UNL     1       2.852   6.236  19.618  0.00  0.00    +0.000 S 
BRANCH  19  20
ATOM     20  C   UNL     1       2.116   7.728  19.130  0.00  0.00    +0.000 A 
ATOM     21  N   UNL     1       1.916   8.167  17.913  0.00  0.00    +0.000 NA
ATOM     22  N   UNL     1       1.250   9.374  18.010  0.00  0.00    +0.000 NA
ATOM     23  C   UNL     1       1.071   9.661  19.291  0.00  0.00    +0.000 A 
ATOM     24  N   UNL     1       1.596   8.622  20.041  0.00  0.00    +0.000 N 
BRANCH  23  25
ATOM     25  C   UNL     1       0.365  10.830  19.818  0.00  0.00    +0.000 A 
ATOM     26  C   UNL     1      -1.009  11.033  19.653  0.00  0.00    +0.000 A 
ATOM     27  C   UNL     1      -1.611  12.196  20.130  0.00  0.00    +0.000 A 
ATOM     28  C   UNL     1      -0.819  13.124  20.787  0.00  0.00    +0.000 A 
ATOM     29  N   UNL     1       0.502  12.958  20.994  0.00  0.00    +0.000 NA
ATOM     30  C   UNL     1       1.061  11.816  20.516  0.00  0.00    +0.000 A 
ENDBRANCH  23  25
BRANCH  24  31
ATOM     31  N   UNL     1       1.536   8.455  21.475  0.00  0.00    +0.000 N 
ATOM     32  H   UNL     1       2.304   8.950  21.927  0.00  0.00    +0.000 HD
ATOM     33  H   UNL     1       0.685   8.892  21.835  0.00  0.00    +0.000 HD
ENDBRANCH  24  31
ENDBRANCH  19  20
ENDBRANCH  18  19
ENDBRANCH   1  18
TORSDOF 10
ENDMDL
MODEL 7
REMARK VINA RESULT:      -7.0      1.893      7.333
REMARK  Name = 
REMARK  10 active torsions:
REMARK  status: ('A' for Active; 'I' for Inactive)
REMARK    1  A    between atoms: N_1  and  N_2
REMARK    2  A    between atoms: C_3  and  S_4
REMARK    3  A    between atoms: S_4  and  C_5
REMARK    4  A    between atoms: C_5  and  C_6
REMARK    5  A    between atoms: C_6  and  C_7
REMARK    6  A    between atoms: C_7  and  S_8
REMARK    7  A    between atoms: S_8  and  C_9
REMARK    8  A    between atoms: C_12  and  C_13
REMARK    9  A    between atoms: N_19  and  N_20
REMARK   10  A    between atoms: C_23  and  C_24
REMARK                            x       y       z     vdW  Elec       q    Type
REMARK                         _______ _______ _______ _____ _____    ______ ____
ROOT
ATOM      1  C   UNL     1       1.429   3.667  19.022  0.00  0.00    +0.000 C 
ENDROOT
BRANCH   1   2
ATOM      2  C   UNL     1       1.979   2.299  19.453  0.00  0.00    +0.000 C 
BRANCH   2   3
ATOM      3  S   UNL     1       3.164   1.629  18.243  0.00  0.00    +0.000 S 
BRANCH   3   5
ATOM      4  N   UNL     1       4.895   3.740  18.331  0.00  0.00    +0.000 N 
ATOM      5  C   UNL     1       3.918   3.063  17.636  0.00  0.00    +0.000 A 
ATOM      6  N   UNL     1       3.666   3.682  16.508  0.00  0.00    +0.000 NA
ATOM      7  N   UNL     1       4.502   4.777  16.440  0.00  0.00    +0.000 NA
ATOM      8  C   UNL     1       5.272   4.796  17.519  0.00  0.00    +0.000 A 
BRANCH   8   9
ATOM      9  C   UNL     1       6.285   5.805  17.830  0.00  0.00    +0.000 A 
ATOM     10  C   UNL     1       6.391   7.022  17.147  0.00  0.00    +0.000 A 
ATOM     11  C   UNL     1       7.418   7.914  17.457  0.00  0.00    +0.000 A 
ATOM     12  C   UNL     1       8.303   7.572  18.463  0.00  0.00    +0.000 A 
ATOM     13  N   UNL     1       8.220   6.426  19.170  0.00  0.00    +0.000 NA
ATOM     14  C   UNL     1       7.211   5.577  18.844  0.00  0.00    +0.000 A 
ENDBRANCH   8   9
BRANCH   4  15
ATOM     15  N   UNL     1       5.370   3.451  19.669  0.00  0.00    +0.000 N 
ATOM     16  H   UNL     1       4.887   2.633  20.042  0.00  0.00    +0.000 HD
ATOM     17  H   UNL     1       5.138   4.208  20.310  0.00  0.00    +0.000 HD
ENDBRANCH   4  15
ENDBRANCH   3   5
ENDBRANCH   2   3
ENDBRANCH   1   2
BRANCH   1  18
ATOM     18  C   UNL     1       1.178   4.628  20.189  0.00  0.00    +0.000 C 
BRANCH  18  19
ATOM     19  S   UNL     1       2.646   5.668  20.466  0.00  0.00    +0.000 S 
BRANCH  19  20
ATOM     20  C   UNL     1       2.315   7.011  19.420  0.00  0.00    +0.000 A 
ATOM     21  N   UNL     1       2.596   7.128  18.148  0.00  0.00    +0.000 NA
ATOM     22  N   UNL     1       2.096   8.344  17.721  0.00  0.00    +0.000 NA
ATOM     23  C   UNL     1       1.535   8.959  18.751  0.00  0.00    +0.000 A 
ATOM     24  N   UNL     1       1.638   8.129  19.856  0.00  0.00    +0.000 N 
BRANCH  23  25
ATOM     25  C   UNL     1       0.849  10.252  18.710  0.00  0.00    +0.000 A 
ATOM     26  C   UNL     1      -0.542  10.377  18.619  0.00  0.00    +0.000 A 
ATOM     27  C   UNL     1      -1.130  11.638  18.525  0.00  0.00    +0.000 A 
ATOM     28  C   UNL     1      -0.306  12.750  18.548  0.00  0.00    +0.000 A 
ATOM     29  N   UNL     1       1.035  12.679  18.663  0.00  0.00    +0.000 NA
ATOM     30  C   UNL     1       1.579  11.437  18.750  0.00  0.00    +0.000 A 
ENDBRANCH  23  25
BRANCH  24  31
ATOM     31  N   UNL     1       1.077   8.342  21.170  0.00  0.00    +0.000 N 
ATOM     32  H   UNL     1       0.163   8.787  21.104  0.00  0.00    +0.000 HD
ATOM     33  H   UNL     1       0.906   7.440  21.619  0.00  0.00    +0.000 HD
ENDBRANCH  24  31
ENDBRANCH  19  20
ENDBRANCH  18  19
ENDBRANCH   1  18
TORSDOF 10
ENDMDL
MODEL 8
REMARK VINA RESULT:      -7.0      1.752      8.383
REMARK  Name = 
REMARK  10 active torsions:
REMARK  status: ('A' for Active; 'I' for Inactive)
REMARK    1  A    between atoms: N_1  and  N_2
REMARK    2  A    between atoms: C_3  and  S_4
REMARK    3  A    between atoms: S_4  and  C_5
REMARK    4  A    between atoms: C_5  and  C_6
REMARK    5  A    between atoms: C_6  and  C_7
REMARK    6  A    between atoms: C_7  and  S_8
REMARK    7  A    between atoms: S_8  and  C_9
REMARK    8  A    between atoms: C_12  and  C_13
REMARK    9  A    between atoms: N_19  and  N_20
REMARK   10  A    between atoms: C_23  and  C_24
REMARK                            x       y       z     vdW  Elec       q    Type
REMARK                         _______ _______ _______ _____ _____    ______ ____
ROOT
ATOM      1  C   UNL     1       1.756   4.812  20.131  0.00  0.00    +0.000 C 
ENDROOT
BRANCH   1   2
ATOM      2  C   UNL     1       1.733   3.276  20.089  0.00  0.00    +0.000 C 
BRANCH   2   3
ATOM      3  S   UNL     1       3.328   2.557  20.597  0.00  0.00    +0.000 S 
BRANCH   3   5
ATOM      4  N   UNL     1       4.527   3.309  18.261  0.00  0.00    +0.000 N 
ATOM      5  C   UNL     1       4.455   3.445  19.629  0.00  0.00    +0.000 A 
ATOM      6  N   UNL     1       5.358   4.302  20.039  0.00  0.00    +0.000 NA
ATOM      7  N   UNL     1       6.028   4.762  18.925  0.00  0.00    +0.000 NA
ATOM      8  C   UNL     1       5.507   4.195  17.845  0.00  0.00    +0.000 A 
BRANCH   8   9
ATOM      9  C   UNL     1       5.947   4.411  16.467  0.00  0.00    +0.000 A 
ATOM     10  C   UNL     1       5.195   4.025  15.352  0.00  0.00    +0.000 A 
ATOM     11  C   UNL     1       5.702   4.209  14.066  0.00  0.00    +0.000 A 
ATOM     12  C   UNL     1       6.946   4.799  13.928  0.00  0.00    +0.000 A 
ATOM     13  N   UNL     1       7.690   5.216  14.972  0.00  0.00    +0.000 NA
ATOM     14  C   UNL     1       7.172   5.022  16.212  0.00  0.00    +0.000 A 
ENDBRANCH   8   9
BRANCH   4  15
ATOM     15  N   UNL     1       3.786   2.374  17.438  0.00  0.00    +0.000 N 
ATOM     16  H   UNL     1       4.323   1.515  17.317  0.00  0.00    +0.000 HD
ATOM     17  H   UNL     1       3.658   2.740  16.496  0.00  0.00    +0.000 HD
ENDBRANCH   4  15
ENDBRANCH   3   5
ENDBRANCH   2   3
ENDBRANCH   1   2
BRANCH   1  18
ATOM     18  C   UNL     1       1.771   5.467  18.745  0.00  0.00    +0.000 C 
BRANCH  18  19
ATOM     19  S   UNL     1       2.957   6.848  18.722  0.00  0.00    +0.000 S 
BRANCH  19  20
ATOM     20  C   UNL     1       1.901   8.208  18.925  0.00  0.00    +0.000 A 
ATOM     21  N   UNL     1       1.322   8.923  17.995  0.00  0.00    +0.000 NA
ATOM     22  N   UNL     1       0.531   9.865  18.626  0.00  0.00    +0.000 NA
ATOM     23  C   UNL     1       0.658   9.720  19.937  0.00  0.00    +0.000 A 
ATOM     24  N   UNL     1       1.514   8.655  20.170  0.00  0.00    +0.000 N 
BRANCH  23  25
ATOM     25  C   UNL     1      -0.050  10.492  20.959  0.00  0.00    +0.000 A 
ATOM     26  C   UNL     1      -0.470  11.812  20.766  0.00  0.00    +0.000 A 
ATOM     27  C   UNL     1      -1.089  12.512  21.801  0.00  0.00    +0.000 A 
ATOM     28  C   UNL     1      -1.295  11.859  23.004  0.00  0.00    +0.000 A 
ATOM     29  N   UNL     1      -0.933  10.579  23.226  0.00  0.00    +0.000 NA
ATOM     30  C   UNL     1      -0.330   9.924  22.200  0.00  0.00    +0.000 A 
ENDBRANCH  23  25
BRANCH  24  31
ATOM     31  N   UNL     1       1.863   8.071  21.444  0.00  0.00    +0.000 N 
ATOM     32  H   UNL     1       2.614   7.391  21.335  0.00  0.00    +0.000 HD
ATOM     33  H   UNL     1       2.242   8.793  22.060  0.00  0.00    +0.000 HD
ENDBRANCH  24  31
ENDBRANCH  19  20
ENDBRANCH  18  19
ENDBRANCH   1  18
TORSDOF 10
ENDMDL
MODEL 9
REMARK VINA RESULT:      -6.9      1.770      8.372
REMARK  Name = 
REMARK  10 active torsions:
REMARK  status: ('A' for Active; 'I' for Inactive)
REMARK    1  A    between atoms: N_1  and  N_2
REMARK    2  A    between atoms: C_3  and  S_4
REMARK    3  A    between atoms: S_4  and  C_5
REMARK    4  A    between atoms: C_5  and  C_6
REMARK    5  A    between atoms: C_6  and  C_7
REMARK    6  A    between atoms: C_7  and  S_8
REMARK    7  A    between atoms: S_8  and  C_9
REMARK    8  A    between atoms: C_12  and  C_13
REMARK    9  A    between atoms: N_19  and  N_20
REMARK   10  A    between atoms: C_23  and  C_24
REMARK                            x       y       z     vdW  Elec       q    Type
REMARK                         _______ _______ _______ _____ _____    ______ ____
ROOT
ATOM      1  C   UNL     1       1.856   4.976  19.789  0.00  0.00    +0.000 C 
ENDROOT
BRANCH   1   2
ATOM      2  C   UNL     1       1.236   3.571  19.818  0.00  0.00    +0.000 C 
BRANCH   2   3
ATOM      3  S   UNL     1       2.498   2.273  20.021  0.00  0.00    +0.000 S 
BRANCH   3   5
ATOM      4  N   UNL     1       4.045   3.191  17.966  0.00  0.00    +0.000 N 
ATOM      5  C   UNL     1       3.898   3.013  19.323  0.00  0.00    +0.000 A 
ATOM      6  N   UNL     1       4.961   3.458  19.947  0.00  0.00    +0.000 NA
ATOM      7  N   UNL     1       5.821   3.962  18.994  0.00  0.00    +0.000 NA
ATOM      8  C   UNL     1       5.258   3.838  17.800  0.00  0.00    +0.000 A 
BRANCH   8   9
ATOM      9  C   UNL     1       5.854   4.243  16.526  0.00  0.00    +0.000 A 
ATOM     10  C   UNL     1       5.458   3.715  15.292  0.00  0.00    +0.000 A 
ATOM     11  C   UNL     1       6.108   4.103  14.121  0.00  0.00    +0.000 A 
ATOM     12  C   UNL     1       7.129   5.033  14.214  0.00  0.00    +0.000 A 
ATOM     13  N   UNL     1       7.521   5.593  15.377  0.00  0.00    +0.000 NA
ATOM     14  C   UNL     1       6.870   5.194  16.501  0.00  0.00    +0.000 A 
ENDBRANCH   8   9
BRANCH   4  15
ATOM     15  N   UNL     1       3.151   2.726  16.925  0.00  0.00    +0.000 N 
ATOM     16  H   UNL     1       2.648   3.516  16.519  0.00  0.00    +0.000 HD
ATOM     17  H   UNL     1       2.427   2.122  17.309  0.00  0.00    +0.000 HD
ENDBRANCH   4  15
ENDBRANCH   3   5
ENDBRANCH   2   3
ENDBRANCH   1   2
BRANCH   1  18
ATOM     18  C   UNL     1       1.805   5.645  18.411  0.00  0.00    +0.000 C 
BRANCH  18  19
ATOM     19  S   UNL     1       2.987   7.029  18.347  0.00  0.00    +0.000 S 
BRANCH  19  20
ATOM     20  C   UNL     1       1.957   8.376  18.710  0.00  0.00    +0.000 A 
ATOM     21  N   UNL     1       1.376   9.194  17.871  0.00  0.00    +0.000 NA
ATOM     22  N   UNL     1       0.610  10.074  18.611  0.00  0.00    +0.000 NA
ATOM     23  C   UNL     1       0.753   9.789  19.896  0.00  0.00    +0.000 A 
ATOM     24  N   UNL     1       1.595   8.693  20.001  0.00  0.00    +0.000 N 
BRANCH  23  25
ATOM     25  C   UNL     1       0.073  10.458  21.006  0.00  0.00    +0.000 A 
ATOM     26  C   UNL     1      -0.358   9.787  22.156  0.00  0.00    +0.000 A 
ATOM     27  C   UNL     1      -1.052  10.473  23.152  0.00  0.00    +0.000 A 
ATOM     28  C   UNL     1      -1.278  11.828  22.981  0.00  0.00    +0.000 A 
ATOM     29  N   UNL     1      -0.857  12.522  21.904  0.00  0.00    +0.000 NA
ATOM     30  C   UNL     1      -0.186  11.826  20.950  0.00  0.00    +0.000 A 
ENDBRANCH  23  25
BRANCH  24  31
ATOM     31  N   UNL     1       1.953   7.972  21.200  0.00  0.00    +0.000 N 
ATOM     32  H   UNL     1       1.300   7.207  21.369  0.00  0.00    +0.000 HD
ATOM     33  H   UNL     1       2.863   7.525  21.073  0.00  0.00    +0.000 HD
ENDBRANCH  24  31
ENDBRANCH  19  20
ENDBRANCH  18  19
ENDBRANCH   1  18
TORSDOF 10
ENDMDL
