MODEL 1
REMARK VINA RESULT:      -7.8      0.000      0.000
REMARK  Name = 
REMARK  6 active torsions:
REMARK  status: ('A' for Active; 'I' for Inactive)
REMARK    1  A    between atoms: C_2  and  O_3
REMARK    2  A    between atoms: C_2  and  C_4
REMARK    3  A    between atoms: C_5  and  C_6
REMARK    4  A    between atoms: C_5  and  C_15
REMARK    5  A    between atoms: C_6  and  C_7
REMARK    6  A    between atoms: C_7  and  C_8
REMARK                            x       y       z     vdW  Elec       q    Type
REMARK                         _______ _______ _______ _____ _____    ______ ____
ROOT
ATOM      1  C   UNL     1       7.024   4.788  16.706  0.00  0.00    +0.000 C 
ATOM      2  C   UNL     1       6.202   5.385  15.812  0.00  0.00    +0.000 C 
ENDROOT
BRANCH   2   3
ATOM      3  C   UNL     1       6.379   4.891  14.423  0.00  0.00    +0.000 A 
ATOM      4  C   UNL     1       5.493   3.931  13.913  0.00  0.00    +0.000 A 
ATOM      5  C   UNL     1       5.712   3.370  12.652  0.00  0.00    +0.000 A 
ATOM      6  C   UNL     1       6.815   3.764  11.895  0.00  0.00    +0.000 A 
ATOM      7  C   UNL     1       7.692   4.729  12.390  0.00  0.00    +0.000 A 
ATOM      8  C   UNL     1       7.477   5.289  13.654  0.00  0.00    +0.000 A 
ENDBRANCH   2   3
BRANCH   1  10
ATOM      9  O   UNL     1       7.837   5.724  18.785  0.00  0.00    +0.000 OA
ATOM     10  C   UNL     1       7.161   4.918  18.182  0.00  0.00    +0.000 C 
BRANCH  10  11
ATOM     11  O   UNL     1       6.382   4.023  18.828  0.00  0.00    +0.000 OA
ATOM     12  H   UNL     1       6.420   4.044  19.800  0.00  0.00    +0.000 HD
ENDBRANCH  10  11
ENDBRANCH   1  10
BRANCH   2  13
ATOM     13  C   UNL     1       5.114   6.451  15.940  0.00  0.00    +0.000 C 
BRANCH  13  14
ATOM     14  C   UNL     1       4.592   6.691  17.353  0.00  0.00    +0.000 C 
BRANCH  14  15
ATOM     15  C   UNL     1       3.530   5.813  17.968  0.00  0.00    +0.000 A 
ATOM     16  C   UNL     1       3.105   4.597  17.427  0.00  0.00    +0.000 A 
ATOM     17  C   UNL     1       2.250   3.766  18.163  0.00  0.00    +0.000 A 
ATOM     18  C   UNL     1       1.825   4.143  19.437  0.00  0.00    +0.000 A 
ATOM     19 CL   UNL     1       0.818   3.094  20.356  0.00  0.00    +0.000 Cl
ATOM     20  C   UNL     1       2.237   5.351  19.985  0.00  0.00    +0.000 A 
ATOM     21  C   UNL     1       3.087   6.177  19.254  0.00  0.00    +0.000 A 
ENDBRANCH  14  15
ENDBRANCH  13  14
ENDBRANCH   2  13
TORSDOF 6
ENDMDL
MODEL 2
REMARK VINA RESULT:      -7.7      3.022      5.718
REMARK  Name = 
REMARK  6 active torsions:
REMARK  status: ('A' for Active; 'I' for Inactive)
REMARK    1  A    between atoms: C_2  and  O_3
REMARK    2  A    between atoms: C_2  and  C_4
REMARK    3  A    between atoms: C_5  and  C_6
REMARK    4  A    between atoms: C_5  and  C_15
REMARK    5  A    between atoms: C_6  and  C_7
REMARK    6  A    between atoms: C_7  and  C_8
REMARK                            x       y       z     vdW  Elec       q    Type
REMARK                         _______ _______ _______ _____ _____    ______ ____
ROOT
ATOM      1  C   UNL     1       4.312   4.003  16.807  0.00  0.00    +0.000 C 
ATOM      2  C   UNL     1       3.900   4.806  17.816  0.00  0.00    +0.000 C 
ENDROOT
BRANCH   2   3
ATOM      3  C   UNL     1       2.917   4.160  18.722  0.00  0.00    +0.000 A 
ATOM      4  C   UNL     1       1.877   3.391  18.180  0.00  0.00    +0.000 A 
ATOM      5  C   UNL     1       0.879   2.872  19.008  0.00  0.00    +0.000 A 
ATOM      6  C   UNL     1       0.912   3.118  20.380  0.00  0.00    +0.000 A 
ATOM      7  C   UNL     1       1.951   3.872  20.929  0.00  0.00    +0.000 A 
ATOM      8  C   UNL     1       2.950   4.395  20.101  0.00  0.00    +0.000 A 
ENDBRANCH   2   3
BRANCH   1  10
ATOM      9  O   UNL     1       5.445   5.180  15.022  0.00  0.00    +0.000 OA
ATOM     10  C   UNL     1       5.307   4.197  15.718  0.00  0.00    +0.000 C 
BRANCH  10  11
ATOM     11  O   UNL     1       6.117   3.123  15.596  0.00  0.00    +0.000 OA
ATOM     12  H   UNL     1       5.676   2.259  15.515  0.00  0.00    +0.000 HD
ENDBRANCH  10  11
ENDBRANCH   1  10
BRANCH   2  13
ATOM     13  C   UNL     1       4.253   6.235  18.230  0.00  0.00    +0.000 C 
BRANCH  13  14
ATOM     14  C   UNL     1       3.369   7.327  17.637  0.00  0.00    +0.000 C 
BRANCH  14  15
ATOM     15  C   UNL     1       2.315   8.029  18.457  0.00  0.00    +0.000 A 
ATOM     16  C   UNL     1       2.040   7.741  19.796  0.00  0.00    +0.000 A 
ATOM     17  C   UNL     1       1.175   8.568  20.526  0.00  0.00    +0.000 A 
ATOM     18  C   UNL     1       0.589   9.681  19.923  0.00  0.00    +0.000 A 
ATOM     19 CL   UNL     1      -0.431  10.721  20.838  0.00  0.00    +0.000 Cl
ATOM     20  C   UNL     1       0.850   9.976  18.590  0.00  0.00    +0.000 A 
ATOM     21  C   UNL     1       1.711   9.155  17.866  0.00  0.00    +0.000 A 
ENDBRANCH  14  15
ENDBRANCH  13  14
ENDBRANCH   2  13
TORSDOF 6
ENDMDL
MODEL 3
REMARK VINA RESULT:      -7.7      3.482      6.504
REMARK  Name = 
REMARK  6 active torsions:
REMARK  status: ('A' for Active; 'I' for Inactive)
REMARK    1  A    between atoms: C_2  and  O_3
REMARK    2  A    between atoms: C_2  and  C_4
REMARK    3  A    between atoms: C_5  and  C_6
REMARK    4  A    between atoms: C_5  and  C_15
REMARK    5  A    between atoms: C_6  and  C_7
REMARK    6  A    between atoms: C_7  and  C_8
REMARK                            x       y       z     vdW  Elec       q    Type
REMARK                         _______ _______ _______ _____ _____    ______ ____
ROOT
ATOM      1  C   UNL     1       2.167   4.354  20.980  0.00  0.00    +0.000 C 
ATOM      2  C   UNL     1       2.113   4.754  19.688  0.00  0.00    +0.000 C 
ENDROOT
BRANCH   2   3
ATOM      3  C   UNL     1       2.045   6.228  19.527  0.00  0.00    +0.000 A 
ATOM      4  C   UNL     1       1.629   7.024  20.604  0.00  0.00    +0.000 A 
ATOM      5  C   UNL     1       1.449   8.399  20.436  0.00  0.00    +0.000 A 
ATOM      6  C   UNL     1       1.681   8.987  19.193  0.00  0.00    +0.000 A 
ATOM      7  C   UNL     1       2.108   8.204  18.120  0.00  0.00    +0.000 A 
ATOM      8  C   UNL     1       2.286   6.826  18.285  0.00  0.00    +0.000 A 
ENDBRANCH   2   3
BRANCH   1  10
ATOM      9  O   UNL     1       1.457   2.418  22.245  0.00  0.00    +0.000 OA
ATOM     10  C   UNL     1       2.299   3.011  21.607  0.00  0.00    +0.000 C 
BRANCH  10  11
ATOM     11  O   UNL     1       3.507   2.464  21.347  0.00  0.00    +0.000 OA
ATOM     12  H   UNL     1       4.268   2.872  21.798  0.00  0.00    +0.000 HD
ENDBRANCH  10  11
ENDBRANCH   1  10
BRANCH   2  13
ATOM     13  C   UNL     1       2.128   4.001  18.357  0.00  0.00    +0.000 C 
BRANCH  13  14
ATOM     14  C   UNL     1       3.494   3.489  17.908  0.00  0.00    +0.000 C 
BRANCH  14  15
ATOM     15  C   UNL     1       4.666   4.419  17.712  0.00  0.00    +0.000 A 
ATOM     16  C   UNL     1       4.884   5.178  16.559  0.00  0.00    +0.000 A 
ATOM     17  C   UNL     1       5.894   6.148  16.542  0.00  0.00    +0.000 A 
ATOM     18  C   UNL     1       6.683   6.365  17.672  0.00  0.00    +0.000 A 
ATOM     19 CL   UNL     1       7.887   7.593  17.661  0.00  0.00    +0.000 Cl
ATOM     20  C   UNL     1       6.480   5.614  18.823  0.00  0.00    +0.000 A 
ATOM     21  C   UNL     1       5.475   4.651  18.841  0.00  0.00    +0.000 A 
ENDBRANCH  14  15
ENDBRANCH  13  14
ENDBRANCH   2  13
TORSDOF 6
ENDMDL
MODEL 4
REMARK VINA RESULT:      -7.7      0.282      1.112
REMARK  Name = 
REMARK  6 active torsions:
REMARK  status: ('A' for Active; 'I' for Inactive)
REMARK    1  A    between atoms: C_2  and  O_3
REMARK    2  A    between atoms: C_2  and  C_4
REMARK    3  A    between atoms: C_5  and  C_6
REMARK    4  A    between atoms: C_5  and  C_15
REMARK    5  A    between atoms: C_6  and  C_7
REMARK    6  A    between atoms: C_7  and  C_8
REMARK                            x       y       z     vdW  Elec       q    Type
REMARK                         _______ _______ _______ _____ _____    ______ ____
ROOT
ATOM      1  C   UNL     1       7.089   4.608  16.826  0.00  0.00    +0.000 C 
ATOM      2  C   UNL     1       6.294   5.184  15.894  0.00  0.00    +0.000 C 
ENDROOT
BRANCH   2   3
ATOM      3  C   UNL     1       6.591   4.743  14.508  0.00  0.00    +0.000 A 
ATOM      4  C   UNL     1       7.604   5.383  13.779  0.00  0.00    +0.000 A 
ATOM      5  C   UNL     1       7.819   5.060  12.438  0.00  0.00    +0.000 A 
ATOM      6  C   UNL     1       7.025   4.096  11.816  0.00  0.00    +0.000 A 
ATOM      7  C   UNL     1       6.025   3.445  12.538  0.00  0.00    +0.000 A 
ATOM      8  C   UNL     1       5.806   3.769  13.881  0.00  0.00    +0.000 A 
ENDBRANCH   2   3
BRANCH   1  10
ATOM      9  O   UNL     1       7.825   5.421  18.983  0.00  0.00    +0.000 OA
ATOM     10  C   UNL     1       7.119   4.701  18.310  0.00  0.00    +0.000 C 
BRANCH  10  11
ATOM     11  O   UNL     1       6.201   3.884  18.872  0.00  0.00    +0.000 OA
ATOM     12  H   UNL     1       5.444   4.320  19.300  0.00  0.00    +0.000 HD
ENDBRANCH  10  11
ENDBRANCH   1  10
BRANCH   2  13
ATOM     13  C   UNL     1       5.138   6.181  15.975  0.00  0.00    +0.000 C 
BRANCH  13  14
ATOM     14  C   UNL     1       4.652   6.510  17.383  0.00  0.00    +0.000 C 
BRANCH  14  15
ATOM     15  C   UNL     1       3.574   5.701  18.061  0.00  0.00    +0.000 A 
ATOM     16  C   UNL     1       2.920   4.615  17.474  0.00  0.00    +0.000 A 
ATOM     17  C   UNL     1       2.068   3.813  18.245  0.00  0.00    +0.000 A 
ATOM     18  C   UNL     1       1.872   4.089  19.598  0.00  0.00    +0.000 A 
ATOM     19 CL   UNL     1       0.865   3.070  20.550  0.00  0.00    +0.000 Cl
ATOM     20  C   UNL     1       2.513   5.169  20.193  0.00  0.00    +0.000 A 
ATOM     21  C   UNL     1       3.361   5.965  19.428  0.00  0.00    +0.000 A 
ENDBRANCH  14  15
ENDBRANCH  13  14
ENDBRANCH   2  13
TORSDOF 6
ENDMDL
MODEL 5
REMARK VINA RESULT:      -7.7      2.644      4.795
REMARK  Name = 
REMARK  6 active torsions:
REMARK  status: ('A' for Active; 'I' for Inactive)
REMARK    1  A    between atoms: C_2  and  O_3
REMARK    2  A    between atoms: C_2  and  C_4
REMARK    3  A    between atoms: C_5  and  C_6
REMARK    4  A    between atoms: C_5  and  C_15
REMARK    5  A    between atoms: C_6  and  C_7
REMARK    6  A    between atoms: C_7  and  C_8
REMARK                            x       y       z     vdW  Elec       q    Type
REMARK                         _______ _______ _______ _____ _____    ______ ____
ROOT
ATOM      1  C   UNL     1       5.561   3.980  15.995  0.00  0.00    +0.000 C 
ATOM      2  C   UNL     1       4.934   4.704  16.951  0.00  0.00    +0.000 C 
ENDROOT
BRANCH   2   3
ATOM      3  C   UNL     1       4.019   3.899  17.799  0.00  0.00    +0.000 A 
ATOM      4  C   UNL     1       2.752   3.548  17.310  0.00  0.00    +0.000 A 
ATOM      5  C   UNL     1       1.836   2.891  18.135  0.00  0.00    +0.000 A 
ATOM      6  C   UNL     1       2.178   2.581  19.451  0.00  0.00    +0.000 A 
ATOM      7  C   UNL     1       3.441   2.914  19.940  0.00  0.00    +0.000 A 
ATOM      8  C   UNL     1       4.359   3.575  19.117  0.00  0.00    +0.000 A 
ENDBRANCH   2   3
BRANCH   1  10
ATOM      9  O   UNL     1       7.444   5.190  15.075  0.00  0.00    +0.000 OA
ATOM     10  C   UNL     1       6.584   4.341  14.977  0.00  0.00    +0.000 C 
BRANCH  10  11
ATOM     11  O   UNL     1       6.485   3.557  13.881  0.00  0.00    +0.000 OA
ATOM     12  H   UNL     1       7.108   3.748  13.159  0.00  0.00    +0.000 HD
ENDBRANCH  10  11
ENDBRANCH   1  10
BRANCH   2  13
ATOM     13  C   UNL     1       4.988   6.178  17.354  0.00  0.00    +0.000 C 
BRANCH  13  14
ATOM     14  C   UNL     1       3.734   6.989  17.045  0.00  0.00    +0.000 C 
BRANCH  14  15
ATOM     15  C   UNL     1       2.927   7.650  18.134  0.00  0.00    +0.000 A 
ATOM     16  C   UNL     1       2.233   8.853  17.980  0.00  0.00    +0.000 A 
ATOM     17  C   UNL     1       1.363   9.293  18.987  0.00  0.00    +0.000 A 
ATOM     18  C   UNL     1       1.182   8.534  20.143  0.00  0.00    +0.000 A 
ATOM     19 CL   UNL     1       0.074   9.053  21.352  0.00  0.00    +0.000 Cl
ATOM     20  C   UNL     1       1.869   7.338  20.311  0.00  0.00    +0.000 A 
ATOM     21  C   UNL     1       2.732   6.900  19.310  0.00  0.00    +0.000 A 
ENDBRANCH  14  15
ENDBRANCH  13  14
ENDBRANCH   2  13
TORSDOF 6
ENDMDL
MODEL 6
REMARK VINA RESULT:      -7.7      2.520      4.177
REMARK  Name = 
REMARK  6 active torsions:
REMARK  status: ('A' for Active; 'I' for Inactive)
REMARK    1  A    between atoms: C_2  and  O_3
REMARK    2  A    between atoms: C_2  and  C_4
REMARK    3  A    between atoms: C_5  and  C_6
REMARK    4  A    between atoms: C_5  and  C_15
REMARK    5  A    between atoms: C_6  and  C_7
REMARK    6  A    between atoms: C_7  and  C_8
REMARK                            x       y       z     vdW  Elec       q    Type
REMARK                         _______ _______ _______ _____ _____    ______ ____
ROOT
ATOM      1  C   UNL     1       6.885   4.636  14.307  0.00  0.00    +0.000 C 
ATOM      2  C   UNL     1       6.308   4.483  15.521  0.00  0.00    +0.000 C 
ENDROOT
BRANCH   2   3
ATOM      3  C   UNL     1       6.967   5.272  16.593  0.00  0.00    +0.000 A 
ATOM      4  C   UNL     1       7.445   4.620  17.738  0.00  0.00    +0.000 A 
ATOM      5  C   UNL     1       7.962   5.359  18.805  0.00  0.00    +0.000 A 
ATOM      6  C   UNL     1       8.005   6.751  18.735  0.00  0.00    +0.000 A 
ATOM      7  C   UNL     1       7.544   7.406  17.592  0.00  0.00    +0.000 A 
ATOM      8  C   UNL     1       7.022   6.669  16.524  0.00  0.00    +0.000 A 
ENDBRANCH   2   3
BRANCH   1  10
ATOM      9  O   UNL     1       5.563   3.449  12.663  0.00  0.00    +0.000 OA
ATOM     10  C   UNL     1       6.541   4.100  12.962  0.00  0.00    +0.000 C 
BRANCH  10  11
ATOM     11  O   UNL     1       7.459   4.463  12.039  0.00  0.00    +0.000 OA
ATOM     12  H   UNL     1       8.374   4.180  12.210  0.00  0.00    +0.000 HD
ENDBRANCH  10  11
ENDBRANCH   1  10
BRANCH   2  13
ATOM     13  C   UNL     1       5.104   3.681  16.016  0.00  0.00    +0.000 C 
BRANCH  13  14
ATOM     14  C   UNL     1       4.121   4.447  16.895  0.00  0.00    +0.000 C 
BRANCH  14  15
ATOM     15  C   UNL     1       3.461   3.809  18.093  0.00  0.00    +0.000 A 
ATOM     16  C   UNL     1       4.154   3.188  19.135  0.00  0.00    +0.000 A 
ATOM     17  C   UNL     1       3.469   2.789  20.290  0.00  0.00    +0.000 A 
ATOM     18  C   UNL     1       2.098   3.013  20.409  0.00  0.00    +0.000 A 
ATOM     19 CL   UNL     1       1.272   2.568  21.851  0.00  0.00    +0.000 Cl
ATOM     20  C   UNL     1       1.395   3.626  19.378  0.00  0.00    +0.000 A 
ATOM     21  C   UNL     1       2.077   4.024  18.231  0.00  0.00    +0.000 A 
ENDBRANCH  14  15
ENDBRANCH  13  14
ENDBRANCH   2  13
TORSDOF 6
ENDMDL
MODEL 7
REMARK VINA RESULT:      -7.6      3.451      6.480
REMARK  Name = 
REMARK  6 active torsions:
REMARK  status: ('A' for Active; 'I' for Inactive)
REMARK    1  A    between atoms: C_2  and  O_3
REMARK    2  A    between atoms: C_2  and  C_4
REMARK    3  A    between atoms: C_5  and  C_6
REMARK    4  A    between atoms: C_5  and  C_15
REMARK    5  A    between atoms: C_6  and  C_7
REMARK    6  A    between atoms: C_7  and  C_8
REMARK                            x       y       z     vdW  Elec       q    Type
REMARK                         _______ _______ _______ _____ _____    ______ ____
ROOT
ATOM      1  C   UNL     1       2.125   4.213  20.965  0.00  0.00    +0.000 C 
ATOM      2  C   UNL     1       2.083   4.580  19.663  0.00  0.00    +0.000 C 
ENDROOT
BRANCH   2   3
ATOM      3  C   UNL     1       1.938   6.044  19.464  0.00  0.00    +0.000 A 
ATOM      4  C   UNL     1       2.243   6.607  18.217  0.00  0.00    +0.000 A 
ATOM      5  C   UNL     1       2.223   7.993  18.045  0.00  0.00    +0.000 A 
ATOM      6  C   UNL     1       1.899   8.824  19.117  0.00  0.00    +0.000 A 
ATOM      7  C   UNL     1       1.581   8.271  20.358  0.00  0.00    +0.000 A 
ATOM      8  C   UNL     1       1.604   6.883  20.533  0.00  0.00    +0.000 A 
ENDBRANCH   2   3
BRANCH   1  10
ATOM      9  O   UNL     1       1.492   2.276  22.270  0.00  0.00    +0.000 OA
ATOM     10  C   UNL     1       2.314   2.895  21.627  0.00  0.00    +0.000 C 
BRANCH  10  11
ATOM     11  O   UNL     1       3.551   2.402  21.398  0.00  0.00    +0.000 OA
ATOM     12  H   UNL     1       3.596   1.585  20.871  0.00  0.00    +0.000 HD
ENDBRANCH  10  11
ENDBRANCH   1  10
BRANCH   2  13
ATOM     13  C   UNL     1       2.176   3.799  18.351  0.00  0.00    +0.000 C 
BRANCH  13  14
ATOM     14  C   UNL     1       3.573   3.320  17.969  0.00  0.00    +0.000 C 
BRANCH  14  15
ATOM     15  C   UNL     1       4.708   4.287  17.736  0.00  0.00    +0.000 A 
ATOM     16  C   UNL     1       4.913   4.986  16.544  0.00  0.00    +0.000 A 
ATOM     17  C   UNL     1       5.881   5.997  16.483  0.00  0.00    +0.000 A 
ATOM     18  C   UNL     1       6.641   6.313  17.610  0.00  0.00    +0.000 A 
ATOM     19 CL   UNL     1       7.792   7.589  17.544  0.00  0.00    +0.000 Cl
ATOM     20  C   UNL     1       6.451   5.622  18.801  0.00  0.00    +0.000 A 
ATOM     21  C   UNL     1       5.487   4.619  18.861  0.00  0.00    +0.000 A 
ENDBRANCH  14  15
ENDBRANCH  13  14
ENDBRANCH   2  13
TORSDOF 6
ENDMDL
MODEL 8
REMARK VINA RESULT:      -7.6      0.224      1.082
REMARK  Name = 
REMARK  6 active torsions:
REMARK  status: ('A' for Active; 'I' for Inactive)
REMARK    1  A    between atoms: C_2  and  O_3
REMARK    2  A    between atoms: C_2  and  C_4
REMARK    3  A    between atoms: C_5  and  C_6
REMARK    4  A    between atoms: C_5  and  C_15
REMARK    5  A    between atoms: C_6  and  C_7
REMARK    6  A    between atoms: C_7  and  C_8
REMARK                            x       y       z     vdW  Elec       q    Type
REMARK                         _______ _______ _______ _____ _____    ______ ____
ROOT
ATOM      1  C   UNL     1       7.137   4.865  16.639  0.00  0.00    +0.000 C 
ATOM      2  C   UNL     1       6.246   5.383  15.763  0.00  0.00    +0.000 C 
ENDROOT
BRANCH   2   3
ATOM      3  C   UNL     1       6.427   4.891  14.374  0.00  0.00    +0.000 A 
ATOM      4  C   UNL     1       5.550   3.925  13.861  0.00  0.00    +0.000 A 
ATOM      5  C   UNL     1       5.774   3.368  12.600  0.00  0.00    +0.000 A 
ATOM      6  C   UNL     1       6.875   3.771  11.844  0.00  0.00    +0.000 A 
ATOM      7  C   UNL     1       7.745   4.742  12.342  0.00  0.00    +0.000 A 
ATOM      8  C   UNL     1       7.524   5.299  13.606  0.00  0.00    +0.000 A 
ENDBRANCH   2   3
BRANCH   1  10
ATOM      9  O   UNL     1       7.952   5.863  18.688  0.00  0.00    +0.000 OA
ATOM     10  C   UNL     1       7.300   5.020  18.110  0.00  0.00    +0.000 C 
BRANCH  10  11
ATOM     11  O   UNL     1       6.575   4.100  18.784  0.00  0.00    +0.000 OA
ATOM     12  H   UNL     1       6.085   3.458  18.242  0.00  0.00    +0.000 HD
ENDBRANCH  10  11
ENDBRANCH   1  10
BRANCH   2  13
ATOM     13  C   UNL     1       5.075   6.355  15.911  0.00  0.00    +0.000 C 
BRANCH  13  14
ATOM     14  C   UNL     1       4.654   6.663  17.344  0.00  0.00    +0.000 C 
BRANCH  14  15
ATOM     15  C   UNL     1       3.774   5.726  18.133  0.00  0.00    +0.000 A 
ATOM     16  C   UNL     1       3.479   5.878  19.490  0.00  0.00    +0.000 A 
ATOM     17  C   UNL     1       2.507   5.066  20.090  0.00  0.00    +0.000 A 
ATOM     18  C   UNL     1       1.829   4.106  19.338  0.00  0.00    +0.000 A 
ATOM     19 CL   UNL     1       0.601   3.148  20.068  0.00  0.00    +0.000 Cl
ATOM     20  C   UNL     1       2.116   3.941  17.989  0.00  0.00    +0.000 A 
ATOM     21  C   UNL     1       3.080   4.749  17.392  0.00  0.00    +0.000 A 
ENDBRANCH  14  15
ENDBRANCH  13  14
ENDBRANCH   2  13
TORSDOF 6
ENDMDL
MODEL 9
REMARK VINA RESULT:      -7.5      2.767      5.039
REMARK  Name = 
REMARK  6 active torsions:
REMARK  status: ('A' for Active; 'I' for Inactive)
REMARK    1  A    between atoms: C_2  and  O_3
REMARK    2  A    between atoms: C_2  and  C_4
REMARK    3  A    between atoms: C_5  and  C_6
REMARK    4  A    between atoms: C_5  and  C_15
REMARK    5  A    between atoms: C_6  and  C_7
REMARK    6  A    between atoms: C_7  and  C_8
REMARK                            x       y       z     vdW  Elec       q    Type
REMARK                         _______ _______ _______ _____ _____    ______ ____
ROOT
ATOM      1  C   UNL     1       5.405   4.331  16.378  0.00  0.00    +0.000 C 
ATOM      2  C   UNL     1       4.699   5.072  17.264  0.00  0.00    +0.000 C 
ENDROOT
BRANCH   2   3
ATOM      3  C   UNL     1       3.730   4.277  18.060  0.00  0.00    +0.000 A 
ATOM      4  C   UNL     1       4.075   3.856  19.352  0.00  0.00    +0.000 A 
ATOM      5  C   UNL     1       3.224   3.012  20.070  0.00  0.00    +0.000 A 
ATOM      6  C   UNL     1       2.025   2.583  19.502  0.00  0.00    +0.000 A 
ATOM      7  C   UNL     1       1.668   3.009  18.222  0.00  0.00    +0.000 A 
ATOM      8  C   UNL     1       2.520   3.851  17.500  0.00  0.00    +0.000 A 
ENDBRANCH   2   3
BRANCH   1  10
ATOM      9  O   UNL     1       7.362   5.517  15.589  0.00  0.00    +0.000 OA
ATOM     10  C   UNL     1       6.499   4.679  15.432  0.00  0.00    +0.000 C 
BRANCH  10  11
ATOM     11  O   UNL     1       6.463   3.897  14.331  0.00  0.00    +0.000 OA
ATOM     12  H   UNL     1       5.589   3.551  14.078  0.00  0.00    +0.000 HD
ENDBRANCH  10  11
ENDBRANCH   1  10
BRANCH   2  13
ATOM     13  C   UNL     1       4.707   6.556  17.631  0.00  0.00    +0.000 C 
BRANCH  13  14
ATOM     14  C   UNL     1       3.436   7.325  17.282  0.00  0.00    +0.000 C 
BRANCH  14  15
ATOM     15  C   UNL     1       2.489   7.820  18.347  0.00  0.00    +0.000 A 
ATOM     16  C   UNL     1       2.313   7.206  19.589  0.00  0.00    +0.000 A 
ATOM     17  C   UNL     1       1.553   7.841  20.581  0.00  0.00    +0.000 A 
ATOM     18  C   UNL     1       0.973   9.086  20.336  0.00  0.00    +0.000 A 
ATOM     19 CL   UNL     1       0.084   9.882  21.574  0.00  0.00    +0.000 Cl
ATOM     20  C   UNL     1       1.136   9.705  19.103  0.00  0.00    +0.000 A 
ATOM     21  C   UNL     1       1.893   9.075  18.118  0.00  0.00    +0.000 A 
ENDBRANCH  14  15
ENDBRANCH  13  14
ENDBRANCH   2  13
TORSDOF 6
ENDMDL
