MODEL 1
REMARK VINA RESULT:      -7.8      0.000      0.000
REMARK  Name = 
REMARK  12 active torsions:
REMARK  status: ('A' for Active; 'I' for Inactive)
REMARK    1  A    between atoms: CD1_1  and  CG_2
REMARK    2  A    between atoms: CG_2  and  CD2_3
REMARK    3  A    between atoms: CG_2  and  CB_4
REMARK    4  A    between atoms: CB_4  and  CA_5
REMARK    5  A    between atoms: CA_5  and  C_6
REMARK    6  A    between atoms: CA_5  and  N_8
REMARK    7  A    between atoms: C_6  and  O_7
REMARK    8  A    between atoms: N_8  and  C_9
REMARK    9  A    between atoms: C_11  and  S_12
REMARK   10  A    between atoms: S_12  and  C_13
REMARK   11  A    between atoms: C_13  and  C_14
REMARK   12  A    between atoms: C_19  and  C_20
REMARK                            x       y       z     vdW  Elec       q    Type
REMARK                         _______ _______ _______ _____ _____    ______ ____
ROOT
ATOM      1  C   UNK A   0       3.012   6.077  19.609  0.00  0.00    +0.000 A 
ATOM      2  N   UNK A   0       2.366   7.195  19.214  0.00  0.00    +0.000 NA
ATOM      3  C   UNK A   0       2.785   7.886  18.136  0.00  0.00    +0.000 A 
ATOM      4  N   UNK A   0       3.814   7.563  17.353  0.00  0.00    +0.000 NA
ATOM      5  C   UNK A   0       4.474   6.450  17.740  0.00  0.00    +0.000 A 
ATOM      6  N   UNK A   0       5.585   6.005  17.047  0.00  0.00    +0.000 NA
ATOM      7  C   UNK A   0       6.064   4.930  17.616  0.00  0.00    +0.000 A 
ATOM      8  N   UNK A   0       7.150   4.283  17.160  0.00  0.00    +0.000 N 
ATOM      9  S   UNK A   0       5.222   4.386  19.009  0.00  0.00    +0.000 S 
ATOM     10  C   UNK A   0       4.116   5.692  18.849  0.00  0.00    +0.000 A 
ATOM     11  H   UNK A   0       7.734   4.786  16.500  0.00  0.00    +0.000 HD
ATOM     12  H   UNK A   0       7.652   3.653  17.774  0.00  0.00    +0.000 HD
ENDROOT
BRANCH   1  13
ATOM     13  N   LEU A   1       2.618   5.395  20.764  0.00  0.00    +0.000 N 
ATOM     14  H   LEU A   1       3.255   5.588  21.539  0.00  0.00    +0.000 HD
BRANCH  13  15
ATOM     15  CA  LEU A   1       2.354   3.955  20.618  0.00  0.00    +0.000 C 
BRANCH  15  16
ATOM     16  CB  LEU A   1       1.002   3.745  19.895  0.00  0.00    +0.000 C 
BRANCH  16  18
ATOM     17  CD1 LEU A   1       1.298   4.087  17.363  0.00  0.00    +0.000 C 
ATOM     18  CG  LEU A   1       1.059   3.092  18.497  0.00  0.00    +0.000 C 
ATOM     19  CD2 LEU A   1       2.172   2.035  18.484  0.00  0.00    +0.000 C 
ENDBRANCH  16  18
ENDBRANCH  15  16
BRANCH  15  20
ATOM     20  C   LEU A   1       2.303   3.324  22.034  0.00  0.00    +0.000 C 
BRANCH  20  21
ATOM     21  O   LEU A   1       1.239   2.369  22.145  0.00  0.00    +0.000 OA
ATOM     22  H   LEU A   1       0.403   2.860  22.213  0.00  0.00    +0.000 HD
ENDBRANCH  20  21
ENDBRANCH  15  20
ENDBRANCH  13  15
ENDBRANCH   1  13
BRANCH   3  23
ATOM     23  S   UNK A   0       1.954   9.442  17.867  0.00  0.00    +0.000 S 
BRANCH  23  24
ATOM     24  C   UNK A   0       0.787   9.472  19.262  0.00  0.00    +0.000 C 
BRANCH  24  25
ATOM     25  C   UNK A   0      -0.485  10.232  18.913  0.00  0.00    +0.000 A 
ATOM     26  C   UNK A   0      -1.164   9.906  17.723  0.00  0.00    +0.000 A 
ATOM     27  C   UNK A   0      -2.349  10.557  17.364  0.00  0.00    +0.000 A 
ATOM     28  C   UNK A   0      -2.877  11.548  18.185  0.00  0.00    +0.000 A 
ATOM     29  C   UNK A   0      -2.212  11.901  19.358  0.00  0.00    +0.000 A 
ATOM     30  C   UNK A   0      -1.015  11.257  19.722  0.00  0.00    +0.000 A 
BRANCH  30  31
ATOM     31  C   UNK A   0      -0.368  11.679  20.931  0.00  0.00    +0.000 C 
ATOM     32  N   UNK A   0       0.139  12.021  21.917  0.00  0.00    +0.000 NA
ENDBRANCH  30  31
ENDBRANCH  24  25
ENDBRANCH  23  24
ENDBRANCH   3  23
TORSDOF 10
ENDMDL
MODEL 2
REMARK VINA RESULT:      -7.7      0.870      1.006
REMARK  Name = 
REMARK  12 active torsions:
REMARK  status: ('A' for Active; 'I' for Inactive)
REMARK    1  A    between atoms: CD1_1  and  CG_2
REMARK    2  A    between atoms: CG_2  and  CD2_3
REMARK    3  A    between atoms: CG_2  and  CB_4
REMARK    4  A    between atoms: CB_4  and  CA_5
REMARK    5  A    between atoms: CA_5  and  C_6
REMARK    6  A    between atoms: CA_5  and  N_8
REMARK    7  A    between atoms: C_6  and  O_7
REMARK    8  A    between atoms: N_8  and  C_9
REMARK    9  A    between atoms: C_11  and  S_12
REMARK   10  A    between atoms: S_12  and  C_13
REMARK   11  A    between atoms: C_13  and  C_14
REMARK   12  A    between atoms: C_19  and  C_20
REMARK                            x       y       z     vdW  Elec       q    Type
REMARK                         _______ _______ _______ _____ _____    ______ ____
ROOT
ATOM      1  C   UNK A   0       3.187   5.793  19.622  0.00  0.00    +0.000 A 
ATOM      2  N   UNK A   0       2.433   6.862  19.287  0.00  0.00    +0.000 NA
ATOM      3  C   UNK A   0       2.769   7.636  18.237  0.00  0.00    +0.000 A 
ATOM      4  N   UNK A   0       3.810   7.446  17.427  0.00  0.00    +0.000 NA
ATOM      5  C   UNK A   0       4.577   6.384  17.754  0.00  0.00    +0.000 A 
ATOM      6  N   UNK A   0       5.713   6.076  17.028  0.00  0.00    +0.000 NA
ATOM      7  C   UNK A   0       6.300   5.027  17.541  0.00  0.00    +0.000 A 
ATOM      8  N   UNK A   0       7.434   4.506  17.043  0.00  0.00    +0.000 N 
ATOM      9  S   UNK A   0       5.535   4.345  18.918  0.00  0.00    +0.000 S 
ATOM     10  C   UNK A   0       4.310   5.547  18.832  0.00  0.00    +0.000 A 
ATOM     11  H   UNK A   0       7.957   5.091  16.399  0.00  0.00    +0.000 HD
ATOM     12  H   UNK A   0       8.002   3.899  17.621  0.00  0.00    +0.000 HD
ENDROOT
BRANCH   1  13
ATOM     13  N   LEU A   1       2.878   5.025  20.750  0.00  0.00    +0.000 N 
ATOM     14  H   LEU A   1       3.595   5.127  21.470  0.00  0.00    +0.000 HD
BRANCH  13  15
ATOM     15  CA  LEU A   1       2.538   3.614  20.510  0.00  0.00    +0.000 C 
BRANCH  15  16
ATOM     16  CB  LEU A   1       1.172   3.523  19.790  0.00  0.00    +0.000 C 
BRANCH  16  18
ATOM     17  CD1 LEU A   1       1.229   4.153  17.297  0.00  0.00    +0.000 C 
ATOM     18  CG  LEU A   1       1.191   3.027  18.328  0.00  0.00    +0.000 C 
ATOM     19  CD2 LEU A   1       2.410   2.117  18.125  0.00  0.00    +0.000 C 
ENDBRANCH  16  18
ENDBRANCH  15  16
BRANCH  15  20
ATOM     20  C   LEU A   1       2.466   2.891  21.881  0.00  0.00    +0.000 C 
BRANCH  20  21
ATOM     21  O   LEU A   1       1.126   2.485  22.189  0.00  0.00    +0.000 OA
ATOM     22  H   LEU A   1       0.897   2.846  23.062  0.00  0.00    +0.000 HD
ENDBRANCH  20  21
ENDBRANCH  15  20
ENDBRANCH  13  15
ENDBRANCH   1  13
BRANCH   3  23
ATOM     23  S   UNK A   0       1.792   9.118  18.050  0.00  0.00    +0.000 S 
BRANCH  23  24
ATOM     24  C   UNK A   0       1.045   9.267  19.702  0.00  0.00    +0.000 C 
BRANCH  24  25
ATOM     25  C   UNK A   0       0.011  10.383  19.752  0.00  0.00    +0.000 A 
ATOM     26  C   UNK A   0      -0.414  10.967  18.544  0.00  0.00    +0.000 A 
ATOM     27  C   UNK A   0      -1.378  11.980  18.530  0.00  0.00    +0.000 A 
ATOM     28  C   UNK A   0      -1.934  12.432  19.723  0.00  0.00    +0.000 A 
ATOM     29  C   UNK A   0      -1.513  11.883  20.932  0.00  0.00    +0.000 A 
ATOM     30  C   UNK A   0      -0.538  10.869  20.957  0.00  0.00    +0.000 A 
BRANCH  30  31
ATOM     31  C   UNK A   0      -0.134  10.357  22.235  0.00  0.00    +0.000 C 
ATOM     32  N   UNK A   0       0.188   9.959  23.275  0.00  0.00    +0.000 NA
ENDBRANCH  30  31
ENDBRANCH  24  25
ENDBRANCH  23  24
ENDBRANCH   3  23
TORSDOF 10
ENDMDL
MODEL 3
REMARK VINA RESULT:      -7.7      2.488      4.269
REMARK  Name = 
REMARK  12 active torsions:
REMARK  status: ('A' for Active; 'I' for Inactive)
REMARK    1  A    between atoms: CD1_1  and  CG_2
REMARK    2  A    between atoms: CG_2  and  CD2_3
REMARK    3  A    between atoms: CG_2  and  CB_4
REMARK    4  A    between atoms: CB_4  and  CA_5
REMARK    5  A    between atoms: CA_5  and  C_6
REMARK    6  A    between atoms: CA_5  and  N_8
REMARK    7  A    between atoms: C_6  and  O_7
REMARK    8  A    between atoms: N_8  and  C_9
REMARK    9  A    between atoms: C_11  and  S_12
REMARK   10  A    between atoms: S_12  and  C_13
REMARK   11  A    between atoms: C_13  and  C_14
REMARK   12  A    between atoms: C_19  and  C_20
REMARK                            x       y       z     vdW  Elec       q    Type
REMARK                         _______ _______ _______ _____ _____    ______ ____
ROOT
ATOM      1  C   UNK A   0       3.555   5.046  17.872  0.00  0.00    +0.000 A 
ATOM      2  N   UNK A   0       3.300   6.345  17.608  0.00  0.00    +0.000 NA
ATOM      3  C   UNK A   0       2.624   7.104  18.491  0.00  0.00    +0.000 A 
ATOM      4  N   UNK A   0       2.167   6.705  19.678  0.00  0.00    +0.000 NA
ATOM      5  C   UNK A   0       2.410   5.405  19.952  0.00  0.00    +0.000 A 
ATOM      6  N   UNK A   0       1.969   4.832  21.132  0.00  0.00    +0.000 NA
ATOM      7  C   UNK A   0       2.300   3.568  21.165  0.00  0.00    +0.000 A 
ATOM      8  N   UNK A   0       1.993   2.759  22.192  0.00  0.00    +0.000 N 
ATOM      9  S   UNK A   0       3.155   2.986  19.796  0.00  0.00    +0.000 S 
ATOM     10  C   UNK A   0       3.084   4.551  19.088  0.00  0.00    +0.000 A 
ATOM     11  H   UNK A   0       1.286   3.094  22.839  0.00  0.00    +0.000 HD
ATOM     12  H   UNK A   0       2.001   1.755  22.059  0.00  0.00    +0.000 HD
ENDROOT
BRANCH   1  13
ATOM     13  N   LEU A   1       4.201   4.239  16.929  0.00  0.00    +0.000 N 
ATOM     14  H   LEU A   1       4.234   3.267  17.241  0.00  0.00    +0.000 HD
BRANCH  13  15
ATOM     15  CA  LEU A   1       5.512   4.706  16.453  0.00  0.00    +0.000 C 
BRANCH  15  16
ATOM     16  CB  LEU A   1       5.986   3.817  15.279  0.00  0.00    +0.000 C 
BRANCH  16  18
ATOM     17  CD1 LEU A   1       7.531   5.102  13.674  0.00  0.00    +0.000 C 
ATOM     18  CG  LEU A   1       6.143   4.507  13.907  0.00  0.00    +0.000 C 
ATOM     19  CD2 LEU A   1       5.838   3.490  12.799  0.00  0.00    +0.000 C 
ENDBRANCH  16  18
ENDBRANCH  15  16
BRANCH  15  20
ATOM     20  C   LEU A   1       6.518   4.614  17.630  0.00  0.00    +0.000 C 
BRANCH  20  21
ATOM     21  O   LEU A   1       7.773   5.220  17.296  0.00  0.00    +0.000 OA
ATOM     22  H   LEU A   1       7.827   5.284  16.328  0.00  0.00    +0.000 HD
ENDBRANCH  20  21
ENDBRANCH  15  20
ENDBRANCH  13  15
ENDBRANCH   1  13
BRANCH   3  23
ATOM     23  S   UNK A   0       2.192   8.736  17.909  0.00  0.00    +0.000 S 
BRANCH  23  24
ATOM     24  C   UNK A   0       1.252   9.386  19.325  0.00  0.00    +0.000 C 
BRANCH  24  25
ATOM     25  C   UNK A   0      -0.041  10.053  18.881  0.00  0.00    +0.000 A 
ATOM     26  C   UNK A   0      -0.606   9.681  17.646  0.00  0.00    +0.000 A 
ATOM     27  C   UNK A   0      -1.805  10.247  17.199  0.00  0.00    +0.000 A 
ATOM     28  C   UNK A   0      -2.461  11.197  17.975  0.00  0.00    +0.000 A 
ATOM     29  C   UNK A   0      -1.910  11.595  19.192  0.00  0.00    +0.000 A 
ATOM     30  C   UNK A   0      -0.701  11.038  19.645  0.00  0.00    +0.000 A 
BRANCH  30  31
ATOM     31  C   UNK A   0      -0.176  11.503  20.897  0.00  0.00    +0.000 C 
ATOM     32  N   UNK A   0       0.247  11.862  21.916  0.00  0.00    +0.000 NA
ENDBRANCH  30  31
ENDBRANCH  24  25
ENDBRANCH  23  24
ENDBRANCH   3  23
TORSDOF 10
ENDMDL
MODEL 4
REMARK VINA RESULT:      -7.6      2.345      4.430
REMARK  Name = 
REMARK  12 active torsions:
REMARK  status: ('A' for Active; 'I' for Inactive)
REMARK    1  A    between atoms: CD1_1  and  CG_2
REMARK    2  A    between atoms: CG_2  and  CD2_3
REMARK    3  A    between atoms: CG_2  and  CB_4
REMARK    4  A    between atoms: CB_4  and  CA_5
REMARK    5  A    between atoms: CA_5  and  C_6
REMARK    6  A    between atoms: CA_5  and  N_8
REMARK    7  A    between atoms: C_6  and  O_7
REMARK    8  A    between atoms: N_8  and  C_9
REMARK    9  A    between atoms: C_11  and  S_12
REMARK   10  A    between atoms: S_12  and  C_13
REMARK   11  A    between atoms: C_13  and  C_14
REMARK   12  A    between atoms: C_19  and  C_20
REMARK                            x       y       z     vdW  Elec       q    Type
REMARK                         _______ _______ _______ _____ _____    ______ ____
ROOT
ATOM      1  C   UNK A   0       3.565   5.561  17.914  0.00  0.00    +0.000 A 
ATOM      2  N   UNK A   0       3.146   6.842  17.830  0.00  0.00    +0.000 NA
ATOM      3  C   UNK A   0       2.409   7.388  18.816  0.00  0.00    +0.000 A 
ATOM      4  N   UNK A   0       2.040   6.782  19.945  0.00  0.00    +0.000 NA
ATOM      5  C   UNK A   0       2.448   5.498  20.039  0.00  0.00    +0.000 A 
ATOM      6  N   UNK A   0       2.115   4.725  21.137  0.00  0.00    +0.000 NA
ATOM      7  C   UNK A   0       2.599   3.519  20.996  0.00  0.00    +0.000 A 
ATOM      8  N   UNK A   0       2.424   2.550  21.909  0.00  0.00    +0.000 N 
ATOM      9  S   UNK A   0       3.477   3.233  19.550  0.00  0.00    +0.000 S 
ATOM     10  C   UNK A   0       3.195   4.856  19.058  0.00  0.00    +0.000 A 
ATOM     11  H   UNK A   0       1.702   2.707  22.605  0.00  0.00    +0.000 HD
ATOM     12  H   UNK A   0       2.551   1.581  21.642  0.00  0.00    +0.000 HD
ENDROOT
BRANCH   1  13
ATOM     13  N   LEU A   1       4.276   4.972  16.863  0.00  0.00    +0.000 N 
ATOM     14  H   LEU A   1       3.924   4.034  16.663  0.00  0.00    +0.000 HD
BRANCH  13  15
ATOM     15  CA  LEU A   1       5.743   4.996  16.968  0.00  0.00    +0.000 C 
BRANCH  15  16
ATOM     16  CB  LEU A   1       6.252   6.448  16.802  0.00  0.00    +0.000 C 
BRANCH  16  18
ATOM     17  CD1 LEU A   1       7.807   8.289  17.701  0.00  0.00    +0.000 C 
ATOM     18  CG  LEU A   1       7.598   6.792  17.477  0.00  0.00    +0.000 C 
ATOM     19  CD2 LEU A   1       7.680   6.065  18.826  0.00  0.00    +0.000 C 
ENDBRANCH  16  18
ENDBRANCH  15  16
BRANCH  15  20
ATOM     20  C   LEU A   1       6.326   4.097  15.846  0.00  0.00    +0.000 C 
BRANCH  20  21
ATOM     21  O   LEU A   1       5.700   4.362  14.584  0.00  0.00    +0.000 OA
ATOM     22  H   LEU A   1       6.179   3.863  13.902  0.00  0.00    +0.000 HD
ENDBRANCH  20  21
ENDBRANCH  15  20
ENDBRANCH  13  15
ENDBRANCH   1  13
BRANCH   3  23
ATOM     23  S   UNK A   0       1.764   9.016  18.464  0.00  0.00    +0.000 S 
BRANCH  23  24
ATOM     24  C   UNK A   0       0.945   9.425  20.036  0.00  0.00    +0.000 C 
BRANCH  24  25
ATOM     25  C   UNK A   0      -0.104  10.513  19.855  0.00  0.00    +0.000 A 
ATOM     26  C   UNK A   0      -0.396  10.963  18.553  0.00  0.00    +0.000 A 
ATOM     27  C   UNK A   0      -1.367  11.945  18.327  0.00  0.00    +0.000 A 
ATOM     28  C   UNK A   0      -2.061  12.499  19.397  0.00  0.00    +0.000 A 
ATOM     29  C   UNK A   0      -1.774  12.085  20.697  0.00  0.00    +0.000 A 
ATOM     30  C   UNK A   0      -0.794  11.104  20.934  0.00  0.00    +0.000 A 
BRANCH  30  31
ATOM     31  C   UNK A   0      -0.532  10.733  22.295  0.00  0.00    +0.000 C 
ATOM     32  N   UNK A   0      -0.336  10.438  23.400  0.00  0.00    +0.000 NA
ENDBRANCH  30  31
ENDBRANCH  24  25
ENDBRANCH  23  24
ENDBRANCH   3  23
TORSDOF 10
ENDMDL
MODEL 5
REMARK VINA RESULT:      -7.6      2.171      4.157
REMARK  Name = 
REMARK  12 active torsions:
REMARK  status: ('A' for Active; 'I' for Inactive)
REMARK    1  A    between atoms: CD1_1  and  CG_2
REMARK    2  A    between atoms: CG_2  and  CD2_3
REMARK    3  A    between atoms: CG_2  and  CB_4
REMARK    4  A    between atoms: CB_4  and  CA_5
REMARK    5  A    between atoms: CA_5  and  C_6
REMARK    6  A    between atoms: CA_5  and  N_8
REMARK    7  A    between atoms: C_6  and  O_7
REMARK    8  A    between atoms: N_8  and  C_9
REMARK    9  A    between atoms: C_11  and  S_12
REMARK   10  A    between atoms: S_12  and  C_13
REMARK   11  A    between atoms: C_13  and  C_14
REMARK   12  A    between atoms: C_19  and  C_20
REMARK                            x       y       z     vdW  Elec       q    Type
REMARK                         _______ _______ _______ _____ _____    ______ ____
ROOT
ATOM      1  C   UNK A   0       4.298   5.159  18.861  0.00  0.00    +0.000 A 
ATOM      2  N   UNK A   0       3.896   6.376  18.436  0.00  0.00    +0.000 NA
ATOM      3  C   UNK A   0       2.729   6.899  18.857  0.00  0.00    +0.000 A 
ATOM      4  N   UNK A   0       1.881   6.330  19.714  0.00  0.00    +0.000 NA
ATOM      5  C   UNK A   0       2.268   5.109  20.143  0.00  0.00    +0.000 A 
ATOM      6  N   UNK A   0       1.477   4.377  21.010  0.00  0.00    +0.000 NA
ATOM      7  C   UNK A   0       2.043   3.226  21.265  0.00  0.00    +0.000 A 
ATOM      8  N   UNK A   0       1.493   2.305  22.074  0.00  0.00    +0.000 N 
ATOM      9  S   UNK A   0       3.547   2.947  20.489  0.00  0.00    +0.000 S 
ATOM     10  C   UNK A   0       3.447   4.492  19.742  0.00  0.00    +0.000 A 
ATOM     11  H   UNK A   0       0.510   2.424  22.296  0.00  0.00    +0.000 HD
ATOM     12  H   UNK A   0       1.800   1.341  22.017  0.00  0.00    +0.000 HD
ENDROOT
BRANCH   1  13
ATOM     13  N   LEU A   1       5.479   4.587  18.376  0.00  0.00    +0.000 N 
ATOM     14  H   LEU A   1       5.940   4.030  19.098  0.00  0.00    +0.000 HD
BRANCH  13  15
ATOM     15  CA  LEU A   1       6.419   5.494  17.700  0.00  0.00    +0.000 C 
BRANCH  15  16
ATOM     16  CB  LEU A   1       7.108   4.752  16.531  0.00  0.00    +0.000 C 
BRANCH  16  18
ATOM     17  CD1 LEU A   1       6.218   3.811  14.309  0.00  0.00    +0.000 C 
ATOM     18  CG  LEU A   1       6.585   5.059  15.111  0.00  0.00    +0.000 C 
ATOM     19  CD2 LEU A   1       5.353   5.968  15.218  0.00  0.00    +0.000 C 
ENDBRANCH  16  18
ENDBRANCH  15  16
BRANCH  15  20
ATOM     20  C   LEU A   1       7.478   5.956  18.736  0.00  0.00    +0.000 C 
BRANCH  20  21
ATOM     21  O   LEU A   1       7.311   5.284  19.991  0.00  0.00    +0.000 OA
ATOM     22  H   LEU A   1       8.116   5.427  20.517  0.00  0.00    +0.000 HD
ENDBRANCH  20  21
ENDBRANCH  15  20
ENDBRANCH  13  15
ENDBRANCH   1  13
BRANCH   3  23
ATOM     23  S   UNK A   0       2.247   8.416  18.050  0.00  0.00    +0.000 S 
BRANCH  23  24
ATOM     24  C   UNK A   0       1.351   9.265  19.387  0.00  0.00    +0.000 C 
BRANCH  24  25
ATOM     25  C   UNK A   0       0.245  10.158  18.843  0.00  0.00    +0.000 A 
ATOM     26  C   UNK A   0      -0.623   9.640  17.862  0.00  0.00    +0.000 A 
ATOM     27  C   UNK A   0      -1.670  10.408  17.343  0.00  0.00    +0.000 A 
ATOM     28  C   UNK A   0      -1.869  11.710  17.791  0.00  0.00    +0.000 A 
ATOM     29  C   UNK A   0      -1.010  12.251  18.746  0.00  0.00    +0.000 A 
ATOM     30  C   UNK A   0       0.051  11.488  19.268  0.00  0.00    +0.000 A 
BRANCH  30  31
ATOM     31  C   UNK A   0       0.911  12.108  20.234  0.00  0.00    +0.000 C 
ATOM     32  N   UNK A   0       1.598  12.624  21.014  0.00  0.00    +0.000 NA
ENDBRANCH  30  31
ENDBRANCH  24  25
ENDBRANCH  23  24
ENDBRANCH   3  23
TORSDOF 10
ENDMDL
MODEL 6
REMARK VINA RESULT:      -7.5      3.003      8.077
REMARK  Name = 
REMARK  12 active torsions:
REMARK  status: ('A' for Active; 'I' for Inactive)
REMARK    1  A    between atoms: CD1_1  and  CG_2
REMARK    2  A    between atoms: CG_2  and  CD2_3
REMARK    3  A    between atoms: CG_2  and  CB_4
REMARK    4  A    between atoms: CB_4  and  CA_5
REMARK    5  A    between atoms: CA_5  and  C_6
REMARK    6  A    between atoms: CA_5  and  N_8
REMARK    7  A    between atoms: C_6  and  O_7
REMARK    8  A    between atoms: N_8  and  C_9
REMARK    9  A    between atoms: C_11  and  S_12
REMARK   10  A    between atoms: S_12  and  C_13
REMARK   11  A    between atoms: C_13  and  C_14
REMARK   12  A    between atoms: C_19  and  C_20
REMARK                            x       y       z     vdW  Elec       q    Type
REMARK                         _______ _______ _______ _____ _____    ______ ____
ROOT
ATOM      1  C   UNK A   0       0.788   9.674  18.667  0.00  0.00    +0.000 A 
ATOM      2  N   UNK A   0       1.642   8.801  18.091  0.00  0.00    +0.000 NA
ATOM      3  C   UNK A   0       2.258   7.856  18.828  0.00  0.00    +0.000 A 
ATOM      4  N   UNK A   0       2.096   7.656  20.135  0.00  0.00    +0.000 NA
ATOM      5  C   UNK A   0       1.249   8.526  20.726  0.00  0.00    +0.000 A 
ATOM      6  N   UNK A   0       1.003   8.469  22.086  0.00  0.00    +0.000 NA
ATOM      7  C   UNK A   0       0.173   9.418  22.429  0.00  0.00    +0.000 A 
ATOM      8  N   UNK A   0      -0.239   9.606  23.695  0.00  0.00    +0.000 N 
ATOM      9  S   UNK A   0      -0.364  10.435  21.156  0.00  0.00    +0.000 S 
ATOM     10  C   UNK A   0       0.589   9.540  20.041  0.00  0.00    +0.000 A 
ATOM     11  H   UNK A   0       0.297   9.141  24.420  0.00  0.00    +0.000 HD
ATOM     12  H   UNK A   0      -0.631  10.500  23.965  0.00  0.00    +0.000 HD
ENDROOT
BRANCH   1  13
ATOM     13  N   LEU A   1       0.197  10.696  17.916  0.00  0.00    +0.000 N 
ATOM     14  H   LEU A   1       0.680  11.584  18.062  0.00  0.00    +0.000 HD
BRANCH  13  15
ATOM     15  CA  LEU A   1      -1.262  10.840  18.038  0.00  0.00    +0.000 C 
BRANCH  15  16
ATOM     16  CB  LEU A   1      -1.959  10.035  16.916  0.00  0.00    +0.000 C 
BRANCH  16  18
ATOM     17  CD1 LEU A   1      -3.049  10.198  14.592  0.00  0.00    +0.000 C 
ATOM     18  CG  LEU A   1      -2.897  10.824  15.977  0.00  0.00    +0.000 C 
ATOM     19  CD2 LEU A   1      -4.280  10.938  16.633  0.00  0.00    +0.000 C 
ENDBRANCH  16  18
ENDBRANCH  15  16
BRANCH  15  20
ATOM     20  C   LEU A   1      -1.614  12.345  17.911  0.00  0.00    +0.000 C 
BRANCH  20  21
ATOM     21  O   LEU A   1      -2.289  12.827  19.081  0.00  0.00    +0.000 OA
ATOM     22  H   LEU A   1      -3.076  12.275  19.221  0.00  0.00    +0.000 HD
ENDBRANCH  20  21
ENDBRANCH  15  20
ENDBRANCH  13  15
ENDBRANCH   1  13
BRANCH   3  23
ATOM     23  S   UNK A   0       3.504   6.916  17.961  0.00  0.00    +0.000 S 
BRANCH  23  24
ATOM     24  C   UNK A   0       3.873   5.609  19.171  0.00  0.00    +0.000 C 
BRANCH  24  25
ATOM     25  C   UNK A   0       2.985   4.390  18.969  0.00  0.00    +0.000 A 
ATOM     26  C   UNK A   0       1.902   4.188  19.845  0.00  0.00    +0.000 A 
ATOM     27  C   UNK A   0       1.040   3.096  19.691  0.00  0.00    +0.000 A 
ATOM     28  C   UNK A   0       1.246   2.184  18.662  0.00  0.00    +0.000 A 
ATOM     29  C   UNK A   0       2.324   2.352  17.794  0.00  0.00    +0.000 A 
ATOM     30  C   UNK A   0       3.200   3.443  17.946  0.00  0.00    +0.000 A 
BRANCH  30  31
ATOM     31  C   UNK A   0       4.301   3.550  17.033  0.00  0.00    +0.000 C 
ATOM     32  N   UNK A   0       5.196   3.653  16.302  0.00  0.00    +0.000 NA
ENDBRANCH  30  31
ENDBRANCH  24  25
ENDBRANCH  23  24
ENDBRANCH   3  23
TORSDOF 10
ENDMDL
MODEL 7
REMARK VINA RESULT:      -7.4      2.459      4.745
REMARK  Name = 
REMARK  12 active torsions:
REMARK  status: ('A' for Active; 'I' for Inactive)
REMARK    1  A    between atoms: CD1_1  and  CG_2
REMARK    2  A    between atoms: CG_2  and  CD2_3
REMARK    3  A    between atoms: CG_2  and  CB_4
REMARK    4  A    between atoms: CB_4  and  CA_5
REMARK    5  A    between atoms: CA_5  and  C_6
REMARK    6  A    between atoms: CA_5  and  N_8
REMARK    7  A    between atoms: C_6  and  O_7
REMARK    8  A    between atoms: N_8  and  C_9
REMARK    9  A    between atoms: C_11  and  S_12
REMARK   10  A    between atoms: S_12  and  C_13
REMARK   11  A    between atoms: C_13  and  C_14
REMARK   12  A    between atoms: C_19  and  C_20
REMARK                            x       y       z     vdW  Elec       q    Type
REMARK                         _______ _______ _______ _____ _____    ______ ____
ROOT
ATOM      1  C   UNK A   0       3.671   5.995  17.922  0.00  0.00    +0.000 A 
ATOM      2  N   UNK A   0       3.308   7.279  17.712  0.00  0.00    +0.000 NA
ATOM      3  C   UNK A   0       2.482   7.907  18.570  0.00  0.00    +0.000 A 
ATOM      4  N   UNK A   0       1.966   7.385  19.682  0.00  0.00    +0.000 NA
ATOM      5  C   UNK A   0       2.315   6.099  19.901  0.00  0.00    +0.000 A 
ATOM      6  N   UNK A   0       1.832   5.408  20.997  0.00  0.00    +0.000 NA
ATOM      7  C   UNK A   0       2.287   4.183  20.988  0.00  0.00    +0.000 A 
ATOM      8  N   UNK A   0       1.974   3.280  21.932  0.00  0.00    +0.000 N 
ATOM      9  S   UNK A   0       3.315   3.780  19.675  0.00  0.00    +0.000 S 
ATOM     10  C   UNK A   0       3.147   5.375  19.056  0.00  0.00    +0.000 A 
ATOM     11  H   UNK A   0       1.183   3.501  22.527  0.00  0.00    +0.000 HD
ATOM     12  H   UNK A   0       2.098   2.292  21.741  0.00  0.00    +0.000 HD
ENDROOT
BRANCH   1  13
ATOM     13  N   LEU A   1       4.478   5.320  16.999  0.00  0.00    +0.000 N 
ATOM     14  H   LEU A   1       4.153   4.361  16.861  0.00  0.00    +0.000 HD
BRANCH  13  15
ATOM     15  CA  LEU A   1       5.930   5.379  17.230  0.00  0.00    +0.000 C 
BRANCH  15  16
ATOM     16  CB  LEU A   1       6.438   6.817  16.974  0.00  0.00    +0.000 C 
BRANCH  16  18
ATOM     17  CD1 LEU A   1       7.967   8.687  17.858  0.00  0.00    +0.000 C 
ATOM     18  CG  LEU A   1       7.801   7.191  17.597  0.00  0.00    +0.000 C 
ATOM     19  CD2 LEU A   1       7.973   6.428  18.917  0.00  0.00    +0.000 C 
ENDBRANCH  16  18
ENDBRANCH  15  16
BRANCH  15  20
ATOM     20  C   LEU A   1       6.617   4.389  16.253  0.00  0.00    +0.000 C 
BRANCH  20  21
ATOM     21  O   LEU A   1       5.764   3.280  15.943  0.00  0.00    +0.000 OA
ATOM     22  H   LEU A   1       6.108   2.499  16.407  0.00  0.00    +0.000 HD
ENDBRANCH  20  21
ENDBRANCH  15  20
ENDBRANCH  13  15
ENDBRANCH   1  13
BRANCH   3  23
ATOM     23  S   UNK A   0       1.939   9.525  18.046  0.00  0.00    +0.000 S 
BRANCH  23  24
ATOM     24  C   UNK A   0       0.172   9.227  17.733  0.00  0.00    +0.000 C 
BRANCH  24  25
ATOM     25  C   UNK A   0      -0.704  10.246  18.447  0.00  0.00    +0.000 A 
ATOM     26  C   UNK A   0      -0.326  10.682  19.732  0.00  0.00    +0.000 A 
ATOM     27  C   UNK A   0      -1.083  11.633  20.425  0.00  0.00    +0.000 A 
ATOM     28  C   UNK A   0      -2.233  12.165  19.850  0.00  0.00    +0.000 A 
ATOM     29  C   UNK A   0      -2.637  11.733  18.588  0.00  0.00    +0.000 A 
ATOM     30  C   UNK A   0      -1.887  10.771  17.887  0.00  0.00    +0.000 A 
BRANCH  30  31
ATOM     31  C   UNK A   0      -2.366  10.353  16.600  0.00  0.00    +0.000 C 
ATOM     32  N   UNK A   0      -2.738  10.006  15.558  0.00  0.00    +0.000 NA
ENDBRANCH  30  31
ENDBRANCH  24  25
ENDBRANCH  23  24
ENDBRANCH   3  23
TORSDOF 10
ENDMDL
MODEL 8
REMARK VINA RESULT:      -7.4      2.321      3.932
REMARK  Name = 
REMARK  12 active torsions:
REMARK  status: ('A' for Active; 'I' for Inactive)
REMARK    1  A    between atoms: CD1_1  and  CG_2
REMARK    2  A    between atoms: CG_2  and  CD2_3
REMARK    3  A    between atoms: CG_2  and  CB_4
REMARK    4  A    between atoms: CB_4  and  CA_5
REMARK    5  A    between atoms: CA_5  and  C_6
REMARK    6  A    between atoms: CA_5  and  N_8
REMARK    7  A    between atoms: C_6  and  O_7
REMARK    8  A    between atoms: N_8  and  C_9
REMARK    9  A    between atoms: C_11  and  S_12
REMARK   10  A    between atoms: S_12  and  C_13
REMARK   11  A    between atoms: C_13  and  C_14
REMARK   12  A    between atoms: C_19  and  C_20
REMARK                            x       y       z     vdW  Elec       q    Type
REMARK                         _______ _______ _______ _____ _____    ______ ____
ROOT
ATOM      1  C   UNK A   0       4.447   5.388  18.942  0.00  0.00    +0.000 A 
ATOM      2  N   UNK A   0       4.039   6.646  18.670  0.00  0.00    +0.000 NA
ATOM      3  C   UNK A   0       2.755   6.897  18.350  0.00  0.00    +0.000 A 
ATOM      4  N   UNK A   0       1.775   5.996  18.286  0.00  0.00    +0.000 NA
ATOM      5  C   UNK A   0       2.170   4.732  18.550  0.00  0.00    +0.000 A 
ATOM      6  N   UNK A   0       1.274   3.680  18.491  0.00  0.00    +0.000 NA
ATOM      7  C   UNK A   0       1.886   2.557  18.761  0.00  0.00    +0.000 A 
ATOM      8  N   UNK A   0       1.262   1.368  18.769  0.00  0.00    +0.000 N 
ATOM      9  S   UNK A   0       3.564   2.686  19.100  0.00  0.00    +0.000 S 
ATOM     10  C   UNK A   0       3.478   4.387  18.870  0.00  0.00    +0.000 A 
ATOM     11  H   UNK A   0       0.350   1.330  18.326  0.00  0.00    +0.000 HD
ATOM     12  H   UNK A   0       1.806   0.516  18.691  0.00  0.00    +0.000 HD
ENDROOT
BRANCH   1  13
ATOM     13  N   LEU A   1       5.792   5.116  19.211  0.00  0.00    +0.000 N 
ATOM     14  H   LEU A   1       6.014   5.301  20.191  0.00  0.00    +0.000 HD
BRANCH  13  15
ATOM     15  CA  LEU A   1       6.779   5.719  18.302  0.00  0.00    +0.000 C 
BRANCH  15  16
ATOM     16  CB  LEU A   1       7.253   4.663  17.275  0.00  0.00    +0.000 C 
BRANCH  16  18
ATOM     17  CD1 LEU A   1       5.484   3.570  15.763  0.00  0.00    +0.000 C 
ATOM     18  CG  LEU A   1       6.543   4.662  15.905  0.00  0.00    +0.000 C 
ATOM     19  CD2 LEU A   1       5.888   6.031  15.680  0.00  0.00    +0.000 C 
ENDBRANCH  16  18
ENDBRANCH  15  16
BRANCH  15  20
ATOM     20  C   LEU A   1       7.981   6.215  19.149  0.00  0.00    +0.000 C 
BRANCH  20  21
ATOM     21  O   LEU A   1       8.073   5.507  20.393  0.00  0.00    +0.000 OA
ATOM     22  H   LEU A   1       7.564   4.684  20.307  0.00  0.00    +0.000 HD
ENDBRANCH  20  21
ENDBRANCH  15  20
ENDBRANCH  13  15
ENDBRANCH   1  13
BRANCH   3  23
ATOM     23  S   UNK A   0       2.421   8.570  17.823  0.00  0.00    +0.000 S 
BRANCH  23  24
ATOM     24  C   UNK A   0       1.458   9.204  19.230  0.00  0.00    +0.000 C 
BRANCH  24  25
ATOM     25  C   UNK A   0       0.291  10.065  18.768  0.00  0.00    +0.000 A 
ATOM     26  C   UNK A   0      -0.561   9.568  17.763  0.00  0.00    +0.000 A 
ATOM     27  C   UNK A   0      -1.661  10.308  17.316  0.00  0.00    +0.000 A 
ATOM     28  C   UNK A   0      -1.930  11.559  17.862  0.00  0.00    +0.000 A 
ATOM     29  C   UNK A   0      -1.088  12.079  18.844  0.00  0.00    +0.000 A 
ATOM     30  C   UNK A   0       0.025  11.346  19.293  0.00  0.00    +0.000 A 
BRANCH  30  31
ATOM     31  C   UNK A   0       0.863  11.944  20.292  0.00  0.00    +0.000 C 
ATOM     32  N   UNK A   0       1.552  12.414  21.099  0.00  0.00    +0.000 NA
ENDBRANCH  30  31
ENDBRANCH  24  25
ENDBRANCH  23  24
ENDBRANCH   3  23
TORSDOF 10
ENDMDL
MODEL 9
REMARK VINA RESULT:      -7.3      2.675      4.683
REMARK  Name = 
REMARK  12 active torsions:
REMARK  status: ('A' for Active; 'I' for Inactive)
REMARK    1  A    between atoms: CD1_1  and  CG_2
REMARK    2  A    between atoms: CG_2  and  CD2_3
REMARK    3  A    between atoms: CG_2  and  CB_4
REMARK    4  A    between atoms: CB_4  and  CA_5
REMARK    5  A    between atoms: CA_5  and  C_6
REMARK    6  A    between atoms: CA_5  and  N_8
REMARK    7  A    between atoms: C_6  and  O_7
REMARK    8  A    between atoms: N_8  and  C_9
REMARK    9  A    between atoms: C_11  and  S_12
REMARK   10  A    between atoms: S_12  and  C_13
REMARK   11  A    between atoms: C_13  and  C_14
REMARK   12  A    between atoms: C_19  and  C_20
REMARK                            x       y       z     vdW  Elec       q    Type
REMARK                         _______ _______ _______ _____ _____    ______ ____
ROOT
ATOM      1  C   UNK A   0       4.032   5.219  17.952  0.00  0.00    +0.000 A 
ATOM      2  N   UNK A   0       3.771   6.509  17.651  0.00  0.00    +0.000 NA
ATOM      3  C   UNK A   0       2.959   7.245  18.433  0.00  0.00    +0.000 A 
ATOM      4  N   UNK A   0       2.363   6.831  19.550  0.00  0.00    +0.000 NA
ATOM      5  C   UNK A   0       2.610   5.540  19.861  0.00  0.00    +0.000 A 
ATOM      6  N   UNK A   0       2.035   4.953  20.973  0.00  0.00    +0.000 NA
ATOM      7  C   UNK A   0       2.400   3.701  21.056  0.00  0.00    +0.000 A 
ATOM      8  N   UNK A   0       1.986   2.882  22.037  0.00  0.00    +0.000 N 
ATOM      9  S   UNK A   0       3.448   3.147  19.815  0.00  0.00    +0.000 S 
ATOM     10  C   UNK A   0       3.420   4.708  19.097  0.00  0.00    +0.000 A 
ATOM     11  H   UNK A   0       1.189   3.194  22.583  0.00  0.00    +0.000 HD
ATOM     12  H   UNK A   0       2.045   1.879  21.910  0.00  0.00    +0.000 HD
ENDROOT
BRANCH   1  13
ATOM     13  N   LEU A   1       4.823   4.433  17.107  0.00  0.00    +0.000 N 
ATOM     14  H   LEU A   1       5.032   3.530  17.536  0.00  0.00    +0.000 HD
BRANCH  13  15
ATOM     15  CA  LEU A   1       6.029   5.072  16.557  0.00  0.00    +0.000 C 
BRANCH  15  16
ATOM     16  CB  LEU A   1       6.615   4.190  15.428  0.00  0.00    +0.000 C 
BRANCH  16  18
ATOM     17  CD1 LEU A   1       7.760   5.206  13.362  0.00  0.00    +0.000 C 
ATOM     18  CG  LEU A   1       6.455   4.716  13.985  0.00  0.00    +0.000 C 
ATOM     19  CD2 LEU A   1       5.866   3.601  13.110  0.00  0.00    +0.000 C 
ENDBRANCH  16  18
ENDBRANCH  15  16
BRANCH  15  20
ATOM     20  C   LEU A   1       7.064   5.224  17.703  0.00  0.00    +0.000 C 
BRANCH  20  21
ATOM     21  O   LEU A   1       7.885   4.056  17.828  0.00  0.00    +0.000 OA
ATOM     22  H   LEU A   1       7.671   3.628  18.674  0.00  0.00    +0.000 HD
ENDBRANCH  20  21
ENDBRANCH  15  20
ENDBRANCH  13  15
ENDBRANCH   1  13
BRANCH   3  23
ATOM     23  S   UNK A   0       2.556   8.862  17.792  0.00  0.00    +0.000 S 
BRANCH  23  24
ATOM     24  C   UNK A   0       0.737   8.819  17.828  0.00  0.00    +0.000 C 
BRANCH  24  25
ATOM     25  C   UNK A   0       0.165   9.969  18.644  0.00  0.00    +0.000 A 
ATOM     26  C   UNK A   0       0.888  10.434  19.759  0.00  0.00    +0.000 A 
ATOM     27  C   UNK A   0       0.420  11.502  20.531  0.00  0.00    +0.000 A 
ATOM     28  C   UNK A   0      -0.782  12.124  20.207  0.00  0.00    +0.000 A 
ATOM     29  C   UNK A   0      -1.525  11.667  19.120  0.00  0.00    +0.000 A 
ATOM     30  C   UNK A   0      -1.065  10.589  18.343  0.00  0.00    +0.000 A 
BRANCH  30  31
ATOM     31  C   UNK A   0      -1.885  10.153  17.248  0.00  0.00    +0.000 C 
ATOM     32  N   UNK A   0      -2.560   9.814  16.368  0.00  0.00    +0.000 NA
ENDBRANCH  30  31
ENDBRANCH  24  25
ENDBRANCH  23  24
ENDBRANCH   3  23
TORSDOF 10
ENDMDL
