MODEL 1
REMARK VINA RESULT:      -7.7      0.000      0.000
REMARK  Name = 
REMARK  7 active torsions:
REMARK  status: ('A' for Active; 'I' for Inactive)
REMARK    1  A    between atoms: C_1  and  C_2
REMARK    2  A    between atoms: C_2  and  N_3
REMARK    3  A    between atoms: C_9  and  N_10
REMARK    4  A    between atoms: N_13  and  C_14
REMARK    5  A    between atoms: C_14  and  C_15
REMARK    6  A    between atoms: C_14  and  C_17
REMARK    7  A    between atoms: C_15  and  C_16
REMARK                            x       y       z     vdW  Elec       q    Type
REMARK                         _______ _______ _______ _____ _____    ______ ____
ROOT
ATOM      1  N   UNL     1       1.789   5.950  20.995  0.00  0.00    +0.000 N 
ATOM      2  C   UNL     1       2.633   5.010  20.458  0.00  0.00    +0.000 C 
ATOM      3  O   UNL     1       2.702   3.885  20.949  0.00  0.00    +0.000 OA
ATOM      4  N   UNL     1       3.327   5.391  19.357  0.00  0.00    +0.000 N 
ATOM      5  H   UNL     1       1.276   5.621  21.798  0.00  0.00    +0.000 HD
ATOM      6  H   UNL     1       3.331   6.394  19.177  0.00  0.00    +0.000 HD
ENDROOT
BRANCH   1  13
ATOM      7  N   UNL     1       1.307  11.869  18.307  0.00  0.00    +0.000 N 
ATOM      8  C   UNL     1       1.016  11.193  19.444  0.00  0.00    +0.000 A 
ATOM      9  N   UNL     1       0.478  11.703  20.553  0.00  0.00    +0.000 NA
ATOM     10  N   UNL     1       0.388  10.654  21.389  0.00  0.00    +0.000 N 
ATOM     11  C   UNL     1       0.882   9.484  20.883  0.00  0.00    +0.000 A 
ATOM     12  C   UNL     1       1.014   8.195  21.414  0.00  0.00    +0.000 A 
ATOM     13  C   UNL     1       1.591   7.267  20.552  0.00  0.00    +0.000 A 
ATOM     14  N   UNL     1       1.985   7.573  19.295  0.00  0.00    +0.000 NA
ATOM     15  C   UNL     1       1.842   8.820  18.802  0.00  0.00    +0.000 A 
ATOM     16  C   UNL     1       1.287   9.812  19.595  0.00  0.00    +0.000 A 
ATOM     17  H   UNL     1       1.866  11.400  17.602  0.00  0.00    +0.000 HD
ATOM     18  H   UNL     1      -0.014  10.812  22.306  0.00  0.00    +0.000 HD
BRANCH   7  20
ATOM     19  C   UNL     1       3.009  13.599  18.155  0.00  0.00    +0.000 C 
ATOM     20  C   UNL     1       1.533  13.303  18.370  0.00  0.00    +0.000 C 
ENDBRANCH   7  20
ENDBRANCH   1  13
BRANCH   4  21
ATOM     21  C   UNL     1       4.311   4.630  18.620  0.00  0.00    +0.000 C 
BRANCH  21  22
ATOM     22  C   UNL     1       5.618   5.406  18.466  0.00  0.00    +0.000 A 
ATOM     23  C   UNL     1       5.709   6.401  17.493  0.00  0.00    +0.000 A 
ATOM     24  C   UNL     1       6.879   7.149  17.398  0.00  0.00    +0.000 A 
ATOM     25  C   UNL     1       7.928   6.889  18.269  0.00  0.00    +0.000 A 
ATOM     26  C   UNL     1       7.763   5.885  19.207  0.00  0.00    +0.000 A 
ATOM     27  N   UNL     1       6.638   5.149  19.332  0.00  0.00    +0.000 NA
ENDBRANCH  21  22
BRANCH  21  28
ATOM     28  C   UNL     1       3.738   4.216  17.247  0.00  0.00    +0.000 C 
ATOM     29  C   UNL     1       2.669   3.123  17.282  0.00  0.00    +0.000 C 
ENDBRANCH  21  28
ENDBRANCH   4  21
TORSDOF 5
ENDMDL
MODEL 2
REMARK VINA RESULT:      -7.6      3.992      8.384
REMARK  Name = 
REMARK  7 active torsions:
REMARK  status: ('A' for Active; 'I' for Inactive)
REMARK    1  A    between atoms: C_1  and  C_2
REMARK    2  A    between atoms: C_2  and  N_3
REMARK    3  A    between atoms: C_9  and  N_10
REMARK    4  A    between atoms: N_13  and  C_14
REMARK    5  A    between atoms: C_14  and  C_15
REMARK    6  A    between atoms: C_14  and  C_17
REMARK    7  A    between atoms: C_15  and  C_16
REMARK                            x       y       z     vdW  Elec       q    Type
REMARK                         _______ _______ _______ _____ _____    ______ ____
ROOT
ATOM      1  N   UNL     1       6.649   5.020  18.098  0.00  0.00    +0.000 N 
ATOM      2  C   UNL     1       5.664   5.502  18.923  0.00  0.00    +0.000 C 
ATOM      3  O   UNL     1       5.921   5.802  20.087  0.00  0.00    +0.000 OA
ATOM      4  N   UNL     1       4.438   5.657  18.362  0.00  0.00    +0.000 N 
ATOM      5  H   UNL     1       7.548   4.940  18.545  0.00  0.00    +0.000 HD
ATOM      6  H   UNL     1       4.313   5.190  17.466  0.00  0.00    +0.000 HD
ENDROOT
BRANCH   1  13
ATOM      7  N   UNL     1       5.617   2.652  12.112  0.00  0.00    +0.000 N 
ATOM      8  C   UNL     1       6.331   3.596  12.771  0.00  0.00    +0.000 A 
ATOM      9  N   UNL     1       7.228   4.426  12.239  0.00  0.00    +0.000 NA
ATOM     10  N   UNL     1       7.659   5.160  13.280  0.00  0.00    +0.000 N 
ATOM     11  C   UNL     1       7.105   4.815  14.482  0.00  0.00    +0.000 A 
ATOM     12  C   UNL     1       7.292   5.282  15.788  0.00  0.00    +0.000 A 
ATOM     13  C   UNL     1       6.520   4.640  16.752  0.00  0.00    +0.000 A 
ATOM     14  N   UNL     1       5.645   3.652  16.458  0.00  0.00    +0.000 NA
ATOM     15  C   UNL     1       5.476   3.222  15.192  0.00  0.00    +0.000 A 
ATOM     16  C   UNL     1       6.213   3.796  14.168  0.00  0.00    +0.000 A 
ATOM     17  H   UNL     1       5.094   1.979  12.661  0.00  0.00    +0.000 HD
ATOM     18  H   UNL     1       8.351   5.878  13.100  0.00  0.00    +0.000 HD
BRANCH   7  20
ATOM     19  C   UNL     1       6.332   0.612  10.999  0.00  0.00    +0.000 C 
ATOM     20  C   UNL     1       6.132   2.114  10.865  0.00  0.00    +0.000 C 
ENDBRANCH   7  20
ENDBRANCH   1  13
BRANCH   4  21
ATOM     21  C   UNL     1       3.218   6.097  19.001  0.00  0.00    +0.000 C 
BRANCH  21  22
ATOM     22  C   UNL     1       2.463   4.927  19.630  0.00  0.00    +0.000 A 
ATOM     23  C   UNL     1       1.655   4.126  18.824  0.00  0.00    +0.000 A 
ATOM     24  C   UNL     1       1.019   3.022  19.386  0.00  0.00    +0.000 A 
ATOM     25  C   UNL     1       1.200   2.744  20.734  0.00  0.00    +0.000 A 
ATOM     26  C   UNL     1       2.017   3.585  21.470  0.00  0.00    +0.000 A 
ATOM     27  N   UNL     1       2.655   4.656  20.952  0.00  0.00    +0.000 NA
ENDBRANCH  21  22
BRANCH  21  28
ATOM     28  C   UNL     1       2.335   6.856  17.989  0.00  0.00    +0.000 C 
ATOM     29  C   UNL     1       2.470   8.379  18.009  0.00  0.00    +0.000 C 
ENDBRANCH  21  28
ENDBRANCH   4  21
TORSDOF 5
ENDMDL
MODEL 3
REMARK VINA RESULT:      -7.5      4.044      8.105
REMARK  Name = 
REMARK  7 active torsions:
REMARK  status: ('A' for Active; 'I' for Inactive)
REMARK    1  A    between atoms: C_1  and  C_2
REMARK    2  A    between atoms: C_2  and  N_3
REMARK    3  A    between atoms: C_9  and  N_10
REMARK    4  A    between atoms: N_13  and  C_14
REMARK    5  A    between atoms: C_14  and  C_15
REMARK    6  A    between atoms: C_14  and  C_17
REMARK    7  A    between atoms: C_15  and  C_16
REMARK                            x       y       z     vdW  Elec       q    Type
REMARK                         _______ _______ _______ _____ _____    ______ ____
ROOT
ATOM      1  N   UNL     1       7.030   4.876  17.875  0.00  0.00    +0.000 N 
ATOM      2  C   UNL     1       6.266   5.204  18.966  0.00  0.00    +0.000 C 
ATOM      3  O   UNL     1       6.792   5.384  20.063  0.00  0.00    +0.000 OA
ATOM      4  N   UNL     1       4.936   5.353  18.741  0.00  0.00    +0.000 N 
ATOM      5  H   UNL     1       8.014   4.797  18.080  0.00  0.00    +0.000 HD
ATOM      6  H   UNL     1       4.608   4.984  17.850  0.00  0.00    +0.000 HD
ENDROOT
BRANCH   1  13
ATOM      7  N   UNL     1       4.312   3.501  12.111  0.00  0.00    +0.000 N 
ATOM      8  C   UNL     1       5.472   3.933  12.662  0.00  0.00    +0.000 A 
ATOM      9  N   UNL     1       6.606   4.200  12.012  0.00  0.00    +0.000 NA
ATOM     10  N   UNL     1       7.458   4.586  12.978  0.00  0.00    +0.000 N 
ATOM     11  C   UNL     1       6.935   4.547  14.241  0.00  0.00    +0.000 A 
ATOM     12  C   UNL     1       7.471   4.823  15.505  0.00  0.00    +0.000 A 
ATOM     13  C   UNL     1       6.585   4.646  16.563  0.00  0.00    +0.000 A 
ATOM     14  N   UNL     1       5.304   4.249  16.395  0.00  0.00    +0.000 NA
ATOM     15  C   UNL     1       4.807   3.994  15.168  0.00  0.00    +0.000 A 
ATOM     16  C   UNL     1       5.621   4.134  14.055  0.00  0.00    +0.000 A 
ATOM     17  H   UNL     1       3.580   3.177  12.733  0.00  0.00    +0.000 HD
ATOM     18  H   UNL     1       8.395   4.855  12.703  0.00  0.00    +0.000 HD
BRANCH   7  20
ATOM     19  C   UNL     1       3.265   3.355   9.922  0.00  0.00    +0.000 C 
ATOM     20  C   UNL     1       4.346   2.803  10.838  0.00  0.00    +0.000 C 
ENDBRANCH   7  20
ENDBRANCH   1  13
BRANCH   4  21
ATOM     21  C   UNL     1       3.899   5.647  19.704  0.00  0.00    +0.000 C 
BRANCH  21  22
ATOM     22  C   UNL     1       3.049   4.414  20.005  0.00  0.00    +0.000 A 
ATOM     23  C   UNL     1       2.215   4.417  21.123  0.00  0.00    +0.000 A 
ATOM     24  C   UNL     1       1.393   3.318  21.358  0.00  0.00    +0.000 A 
ATOM     25  C   UNL     1       1.423   2.244  20.479  0.00  0.00    +0.000 A 
ATOM     26  C   UNL     1       2.277   2.313  19.393  0.00  0.00    +0.000 A 
ATOM     27  N   UNL     1       3.078   3.368  19.131  0.00  0.00    +0.000 NA
ENDBRANCH  21  22
BRANCH  21  28
ATOM     28  C   UNL     1       3.030   6.820  19.203  0.00  0.00    +0.000 C 
ATOM     29  C   UNL     1       3.365   7.337  17.804  0.00  0.00    +0.000 C 
ENDBRANCH  21  28
ENDBRANCH   4  21
TORSDOF 5
ENDMDL
MODEL 4
REMARK VINA RESULT:      -7.4      1.556      1.842
REMARK  Name = 
REMARK  7 active torsions:
REMARK  status: ('A' for Active; 'I' for Inactive)
REMARK    1  A    between atoms: C_1  and  C_2
REMARK    2  A    between atoms: C_2  and  N_3
REMARK    3  A    between atoms: C_9  and  N_10
REMARK    4  A    between atoms: N_13  and  C_14
REMARK    5  A    between atoms: C_14  and  C_15
REMARK    6  A    between atoms: C_14  and  C_17
REMARK    7  A    between atoms: C_15  and  C_16
REMARK                            x       y       z     vdW  Elec       q    Type
REMARK                         _______ _______ _______ _____ _____    ______ ____
ROOT
ATOM      1  N   UNL     1       1.672   6.230  21.375  0.00  0.00    +0.000 N 
ATOM      2  C   UNL     1       2.133   5.106  20.737  0.00  0.00    +0.000 C 
ATOM      3  O   UNL     1       2.319   4.067  21.368  0.00  0.00    +0.000 OA
ATOM      4  N   UNL     1       2.320   5.212  19.398  0.00  0.00    +0.000 N 
ATOM      5  H   UNL     1       1.525   6.103  22.363  0.00  0.00    +0.000 HD
ATOM      6  H   UNL     1       2.323   6.166  19.039  0.00  0.00    +0.000 HD
ENDROOT
BRANCH   1  13
ATOM      7  N   UNL     1       1.029  11.896  18.215  0.00  0.00    +0.000 N 
ATOM      8  C   UNL     1       0.570  11.228  19.300  0.00  0.00    +0.000 A 
ATOM      9  N   UNL     1      -0.286  11.692  20.211  0.00  0.00    +0.000 NA
ATOM     10  N   UNL     1      -0.428  10.675  21.079  0.00  0.00    +0.000 N 
ATOM     11  C   UNL     1       0.333   9.575  20.791  0.00  0.00    +0.000 A 
ATOM     12  C   UNL     1       0.512   8.344  21.432  0.00  0.00    +0.000 A 
ATOM     13  C   UNL     1       1.405   7.483  20.800  0.00  0.00    +0.000 A 
ATOM     14  N   UNL     1       2.044   7.797  19.651  0.00  0.00    +0.000 NA
ATOM     15  C   UNL     1       1.850   8.986  19.047  0.00  0.00    +0.000 A 
ATOM     16  C   UNL     1       0.987   9.912  19.612  0.00  0.00    +0.000 A 
ATOM     17  H   UNL     1       1.801  11.492  17.697  0.00  0.00    +0.000 HD
ATOM     18  H   UNL     1      -1.057  10.805  21.863  0.00  0.00    +0.000 HD
BRANCH   7  20
ATOM     19  C   UNL     1       2.462  13.860  18.184  0.00  0.00    +0.000 C 
ATOM     20  C   UNL     1       1.030  13.348  18.222  0.00  0.00    +0.000 C 
ENDBRANCH   7  20
ENDBRANCH   1  13
BRANCH   4  21
ATOM     21  C   UNL     1       2.836   4.212  18.490  0.00  0.00    +0.000 C 
BRANCH  21  22
ATOM     22  C   UNL     1       3.819   4.818  17.490  0.00  0.00    +0.000 A 
ATOM     23  C   UNL     1       4.454   3.986  16.569  0.00  0.00    +0.000 A 
ATOM     24  C   UNL     1       5.300   4.549  15.618  0.00  0.00    +0.000 A 
ATOM     25  C   UNL     1       5.495   5.924  15.607  0.00  0.00    +0.000 A 
ATOM     26  C   UNL     1       4.831   6.684  16.553  0.00  0.00    +0.000 A 
ATOM     27  N   UNL     1       3.996   6.170  17.482  0.00  0.00    +0.000 NA
ENDBRANCH  21  22
BRANCH  21  28
ATOM     28  C   UNL     1       1.670   3.500  17.772  0.00  0.00    +0.000 C 
ATOM     29  C   UNL     1       0.996   2.378  18.561  0.00  0.00    +0.000 C 
ENDBRANCH  21  28
ENDBRANCH   4  21
TORSDOF 5
ENDMDL
MODEL 5
REMARK VINA RESULT:      -7.2      2.158      3.109
REMARK  Name = 
REMARK  7 active torsions:
REMARK  status: ('A' for Active; 'I' for Inactive)
REMARK    1  A    between atoms: C_1  and  C_2
REMARK    2  A    between atoms: C_2  and  N_3
REMARK    3  A    between atoms: C_9  and  N_10
REMARK    4  A    between atoms: N_13  and  C_14
REMARK    5  A    between atoms: C_14  and  C_15
REMARK    6  A    between atoms: C_14  and  C_17
REMARK    7  A    between atoms: C_15  and  C_16
REMARK                            x       y       z     vdW  Elec       q    Type
REMARK                         _______ _______ _______ _____ _____    ______ ____
ROOT
ATOM      1  N   UNL     1       3.381   5.239  19.105  0.00  0.00    +0.000 N 
ATOM      2  C   UNL     1       4.601   4.907  18.574  0.00  0.00    +0.000 C 
ATOM      3  O   UNL     1       5.030   3.758  18.672  0.00  0.00    +0.000 OA
ATOM      4  N   UNL     1       5.256   5.897  17.916  0.00  0.00    +0.000 N 
ATOM      5  H   UNL     1       2.918   4.471  19.565  0.00  0.00    +0.000 HD
ATOM      6  H   UNL     1       4.892   6.834  18.080  0.00  0.00    +0.000 HD
ENDROOT
BRANCH   1  13
ATOM      7  N   UNL     1       0.770  11.148  18.230  0.00  0.00    +0.000 N 
ATOM      8  C   UNL     1       0.946  10.195  19.176  0.00  0.00    +0.000 A 
ATOM      9  N   UNL     1       0.582  10.274  20.457  0.00  0.00    +0.000 NA
ATOM     10  N   UNL     1       0.967   9.099  20.984  0.00  0.00    +0.000 N 
ATOM     11  C   UNL     1       1.605   8.267  20.104  0.00  0.00    +0.000 A 
ATOM     12  C   UNL     1       2.186   7.001  20.239  0.00  0.00    +0.000 A 
ATOM     13  C   UNL     1       2.753   6.494  19.073  0.00  0.00    +0.000 A 
ATOM     14  N   UNL     1       2.738   7.159  17.896  0.00  0.00    +0.000 NA
ATOM     15  C   UNL     1       2.167   8.376  17.788  0.00  0.00    +0.000 A 
ATOM     16  C   UNL     1       1.588   8.964  18.901  0.00  0.00    +0.000 A 
ATOM     17  H   UNL     1       1.241  11.029  17.340  0.00  0.00    +0.000 HD
ATOM     18  H   UNL     1       0.774   8.932  21.964  0.00  0.00    +0.000 HD
BRANCH   7  20
ATOM     19  C   UNL     1       1.985  13.227  18.567  0.00  0.00    +0.000 C 
ATOM     20  C   UNL     1       0.632  12.536  18.635  0.00  0.00    +0.000 C 
ENDBRANCH   7  20
ENDBRANCH   1  13
BRANCH   4  21
ATOM     21  C   UNL     1       6.565   5.842  17.305  0.00  0.00    +0.000 C 
BRANCH  21  22
ATOM     22  C   UNL     1       6.504   5.227  15.908  0.00  0.00    +0.000 A 
ATOM     23  C   UNL     1       5.332   4.598  15.490  0.00  0.00    +0.000 A 
ATOM     24  C   UNL     1       5.258   4.095  14.194  0.00  0.00    +0.000 A 
ATOM     25  C   UNL     1       6.350   4.228  13.347  0.00  0.00    +0.000 A 
ATOM     26  C   UNL     1       7.479   4.864  13.834  0.00  0.00    +0.000 A 
ATOM     27  N   UNL     1       7.578   5.372  15.081  0.00  0.00    +0.000 NA
ENDBRANCH  21  22
BRANCH  21  28
ATOM     28  C   UNL     1       7.542   5.071  18.217  0.00  0.00    +0.000 C 
ATOM     29  C   UNL     1       8.027   5.828  19.453  0.00  0.00    +0.000 C 
ENDBRANCH  21  28
ENDBRANCH   4  21
TORSDOF 5
ENDMDL
MODEL 6
REMARK VINA RESULT:      -7.2      2.662      7.617
REMARK  Name = 
REMARK  7 active torsions:
REMARK  status: ('A' for Active; 'I' for Inactive)
REMARK    1  A    between atoms: C_1  and  C_2
REMARK    2  A    between atoms: C_2  and  N_3
REMARK    3  A    between atoms: C_9  and  N_10
REMARK    4  A    between atoms: N_13  and  C_14
REMARK    5  A    between atoms: C_14  and  C_15
REMARK    6  A    between atoms: C_14  and  C_17
REMARK    7  A    between atoms: C_15  and  C_16
REMARK                            x       y       z     vdW  Elec       q    Type
REMARK                         _______ _______ _______ _____ _____    ______ ____
ROOT
ATOM      1  N   UNL     1       1.382   7.558  20.894  0.00  0.00    +0.000 N 
ATOM      2  C   UNL     1       0.769   8.786  20.909  0.00  0.00    +0.000 C 
ATOM      3  O   UNL     1       0.039   9.104  21.845  0.00  0.00    +0.000 OA
ATOM      4  N   UNL     1       1.056   9.609  19.869  0.00  0.00    +0.000 N 
ATOM      5  H   UNL     1       1.160   6.986  21.693  0.00  0.00    +0.000 HD
ATOM      6  H   UNL     1       1.505   9.157  19.074  0.00  0.00    +0.000 HD
ENDROOT
BRANCH   1  13
ATOM      7  N   UNL     1       5.144   5.803  15.868  0.00  0.00    +0.000 N 
ATOM      8  C   UNL     1       4.725   5.371  17.081  0.00  0.00    +0.000 A 
ATOM      9  N   UNL     1       5.013   4.198  17.647  0.00  0.00    +0.000 NA
ATOM     10  N   UNL     1       4.372   4.235  18.828  0.00  0.00    +0.000 N 
ATOM     11  C   UNL     1       3.644   5.373  19.041  0.00  0.00    +0.000 A 
ATOM     12  C   UNL     1       2.820   5.797  20.091  0.00  0.00    +0.000 A 
ATOM     13  C   UNL     1       2.243   7.050  19.908  0.00  0.00    +0.000 A 
ATOM     14  N   UNL     1       2.464   7.811  18.813  0.00  0.00    +0.000 NA
ATOM     15  C   UNL     1       3.267   7.386  17.817  0.00  0.00    +0.000 A 
ATOM     16  C   UNL     1       3.875   6.144  17.908  0.00  0.00    +0.000 A 
ATOM     17  H   UNL     1       4.719   6.641  15.486  0.00  0.00    +0.000 HD
ATOM     18  H   UNL     1       4.465   3.435  19.443  0.00  0.00    +0.000 HD
BRANCH   7  20
ATOM     19  C   UNL     1       7.036   4.816  14.702  0.00  0.00    +0.000 C 
ATOM     20  C   UNL     1       5.523   4.830  14.858  0.00  0.00    +0.000 C 
ENDBRANCH   7  20
ENDBRANCH   1  13
BRANCH   4  21
ATOM     21  C   UNL     1       0.522  10.927  19.606  0.00  0.00    +0.000 C 
BRANCH  21  22
ATOM     22  C   UNL     1      -0.781  10.855  18.812  0.00  0.00    +0.000 A 
ATOM     23  C   UNL     1      -0.867   9.992  17.721  0.00  0.00    +0.000 A 
ATOM     24  C   UNL     1      -2.076   9.881  17.039  0.00  0.00    +0.000 A 
ATOM     25  C   UNL     1      -3.167  10.631  17.458  0.00  0.00    +0.000 A 
ATOM     26  C   UNL     1      -3.004  11.466  18.550  0.00  0.00    +0.000 A 
ATOM     27  N   UNL     1      -1.849  11.588  19.238  0.00  0.00    +0.000 NA
ENDBRANCH  21  22
BRANCH  21  28
ATOM     28  C   UNL     1       1.577  11.787  18.878  0.00  0.00    +0.000 C 
ATOM     29  C   UNL     1       1.120  13.190  18.477  0.00  0.00    +0.000 C 
ENDBRANCH  21  28
ENDBRANCH   4  21
TORSDOF 5
ENDMDL
MODEL 7
REMARK VINA RESULT:      -7.2      0.742      1.140
REMARK  Name = 
REMARK  7 active torsions:
REMARK  status: ('A' for Active; 'I' for Inactive)
REMARK    1  A    between atoms: C_1  and  C_2
REMARK    2  A    between atoms: C_2  and  N_3
REMARK    3  A    between atoms: C_9  and  N_10
REMARK    4  A    between atoms: N_13  and  C_14
REMARK    5  A    between atoms: C_14  and  C_15
REMARK    6  A    between atoms: C_14  and  C_17
REMARK    7  A    between atoms: C_15  and  C_16
REMARK                            x       y       z     vdW  Elec       q    Type
REMARK                         _______ _______ _______ _____ _____    ______ ____
ROOT
ATOM      1  N   UNL     1       1.835   5.996  20.768  0.00  0.00    +0.000 N 
ATOM      2  C   UNL     1       2.755   5.127  20.236  0.00  0.00    +0.000 C 
ATOM      3  O   UNL     1       2.854   3.983  20.676  0.00  0.00    +0.000 OA
ATOM      4  N   UNL     1       3.490   5.598  19.197  0.00  0.00    +0.000 N 
ATOM      5  H   UNL     1       1.295   5.602  21.521  0.00  0.00    +0.000 HD
ATOM      6  H   UNL     1       3.453   6.607  19.067  0.00  0.00    +0.000 HD
ENDROOT
BRANCH   1  13
ATOM      7  N   UNL     1       1.119  11.985  18.295  0.00  0.00    +0.000 N 
ATOM      8  C   UNL     1       0.909  11.273  19.428  0.00  0.00    +0.000 A 
ATOM      9  N   UNL     1       0.438  11.743  20.583  0.00  0.00    +0.000 NA
ATOM     10  N   UNL     1       0.413  10.670  21.392  0.00  0.00    +0.000 N 
ATOM     11  C   UNL     1       0.886   9.520  20.820  0.00  0.00    +0.000 A 
ATOM     12  C   UNL     1       1.066   8.218  21.302  0.00  0.00    +0.000 A 
ATOM     13  C   UNL     1       1.596   7.324  20.377  0.00  0.00    +0.000 A 
ATOM     14  N   UNL     1       1.904   7.671  19.108  0.00  0.00    +0.000 NA
ATOM     15  C   UNL     1       1.716   8.929  18.663  0.00  0.00    +0.000 A 
ATOM     16  C   UNL     1       1.204   9.891  19.519  0.00  0.00    +0.000 A 
ATOM     17  H   UNL     1       1.635  11.544  17.542  0.00  0.00    +0.000 HD
ATOM     18  H   UNL     1       0.071  10.796  22.337  0.00  0.00    +0.000 HD
BRANCH   7  20
ATOM     19  C   UNL     1       2.820  13.722  18.284  0.00  0.00    +0.000 C 
ATOM     20  C   UNL     1       1.333  13.419  18.386  0.00  0.00    +0.000 C 
ENDBRANCH   7  20
ENDBRANCH   1  13
BRANCH   4  21
ATOM     21  C   UNL     1       4.552   4.924  18.484  0.00  0.00    +0.000 C 
BRANCH  21  22
ATOM     22  C   UNL     1       5.802   5.796  18.387  0.00  0.00    +0.000 A 
ATOM     23  C   UNL     1       6.901   5.503  19.194  0.00  0.00    +0.000 A 
ATOM     24  C   UNL     1       8.062   6.259  19.058  0.00  0.00    +0.000 A 
ATOM     25  C   UNL     1       8.101   7.287  18.126  0.00  0.00    +0.000 A 
ATOM     26  C   UNL     1       6.971   7.518  17.362  0.00  0.00    +0.000 A 
ATOM     27  N   UNL     1       5.834   6.796  17.462  0.00  0.00    +0.000 NA
ENDBRANCH  21  22
BRANCH  21  28
ATOM     28  C   UNL     1       4.058   4.493  17.086  0.00  0.00    +0.000 C 
ATOM     29  C   UNL     1       5.086   3.768  16.218  0.00  0.00    +0.000 C 
ENDBRANCH  21  28
ENDBRANCH   4  21
TORSDOF 5
ENDMDL
MODEL 8
REMARK VINA RESULT:      -7.2      0.765      1.018
REMARK  Name = 
REMARK  7 active torsions:
REMARK  status: ('A' for Active; 'I' for Inactive)
REMARK    1  A    between atoms: C_1  and  C_2
REMARK    2  A    between atoms: C_2  and  N_3
REMARK    3  A    between atoms: C_9  and  N_10
REMARK    4  A    between atoms: N_13  and  C_14
REMARK    5  A    between atoms: C_14  and  C_15
REMARK    6  A    between atoms: C_14  and  C_17
REMARK    7  A    between atoms: C_15  and  C_16
REMARK                            x       y       z     vdW  Elec       q    Type
REMARK                         _______ _______ _______ _____ _____    ______ ____
ROOT
ATOM      1  N   UNL     1       2.082   5.610  20.604  0.00  0.00    +0.000 N 
ATOM      2  C   UNL     1       3.034   4.807  20.028  0.00  0.00    +0.000 C 
ATOM      3  O   UNL     1       3.190   3.651  20.417  0.00  0.00    +0.000 OA
ATOM      4  N   UNL     1       3.736   5.354  19.003  0.00  0.00    +0.000 N 
ATOM      5  H   UNL     1       1.569   5.160  21.345  0.00  0.00    +0.000 HD
ATOM      6  H   UNL     1       3.651   6.365  18.916  0.00  0.00    +0.000 HD
ENDROOT
BRANCH   1  13
ATOM      7  N   UNL     1       1.078  11.663  18.400  0.00  0.00    +0.000 N 
ATOM      8  C   UNL     1       0.899  10.889  19.498  0.00  0.00    +0.000 A 
ATOM      9  N   UNL     1       0.399  11.283  20.671  0.00  0.00    +0.000 NA
ATOM     10  N   UNL     1       0.424  10.173  21.429  0.00  0.00    +0.000 N 
ATOM     11  C   UNL     1       0.956   9.076  20.809  0.00  0.00    +0.000 A 
ATOM     12  C   UNL     1       1.199   7.764  21.233  0.00  0.00    +0.000 A 
ATOM     13  C   UNL     1       1.778   6.940  20.272  0.00  0.00    +0.000 A 
ATOM     14  N   UNL     1       2.075   7.360  19.022  0.00  0.00    +0.000 NA
ATOM     15  C   UNL     1       1.827   8.627  18.633  0.00  0.00    +0.000 A 
ATOM     16  C   UNL     1       1.262   9.522  19.528  0.00  0.00    +0.000 A 
ATOM     17  H   UNL     1       1.620  11.283  17.632  0.00  0.00    +0.000 HD
ATOM     18  H   UNL     1       0.070  10.238  22.377  0.00  0.00    +0.000 HD
BRANCH   7  20
ATOM     19  C   UNL     1      -0.126  13.774  18.346  0.00  0.00    +0.000 C 
ATOM     20  C   UNL     1       1.220  13.100  18.559  0.00  0.00    +0.000 C 
ENDBRANCH   7  20
ENDBRANCH   1  13
BRANCH   4  21
ATOM     21  C   UNL     1       4.819   4.760  18.252  0.00  0.00    +0.000 C 
BRANCH  21  22
ATOM     22  C   UNL     1       6.066   5.642  18.276  0.00  0.00    +0.000 A 
ATOM     23  C   UNL     1       6.139   6.742  17.421  0.00  0.00    +0.000 A 
ATOM     24  C   UNL     1       7.248   7.581  17.491  0.00  0.00    +0.000 A 
ATOM     25  C   UNL     1       8.256   7.305  18.405  0.00  0.00    +0.000 A 
ATOM     26  C   UNL     1       8.112   6.195  19.219  0.00  0.00    +0.000 A 
ATOM     27  N   UNL     1       7.045   5.369  19.184  0.00  0.00    +0.000 NA
ENDBRANCH  21  22
BRANCH  21  28
ATOM     28  C   UNL     1       4.362   4.471  16.806  0.00  0.00    +0.000 C 
ATOM     29  C   UNL     1       5.409   3.820  15.902  0.00  0.00    +0.000 C 
ENDBRANCH  21  28
ENDBRANCH   4  21
TORSDOF 5
ENDMDL
MODEL 9
REMARK VINA RESULT:      -7.1      4.485      8.702
REMARK  Name = 
REMARK  7 active torsions:
REMARK  status: ('A' for Active; 'I' for Inactive)
REMARK    1  A    between atoms: C_1  and  C_2
REMARK    2  A    between atoms: C_2  and  N_3
REMARK    3  A    between atoms: C_9  and  N_10
REMARK    4  A    between atoms: N_13  and  C_14
REMARK    5  A    between atoms: C_14  and  C_15
REMARK    6  A    between atoms: C_14  and  C_17
REMARK    7  A    between atoms: C_15  and  C_16
REMARK                            x       y       z     vdW  Elec       q    Type
REMARK                         _______ _______ _______ _____ _____    ______ ____
ROOT
ATOM      1  N   UNL     1      -0.249  11.323  19.274  0.00  0.00    +0.000 N 
ATOM      2  C   UNL     1      -1.289  11.711  18.467  0.00  0.00    +0.000 C 
ATOM      3  O   UNL     1      -1.885  12.764  18.685  0.00  0.00    +0.000 OA
ATOM      4  N   UNL     1      -1.570  10.893  17.421  0.00  0.00    +0.000 N 
ATOM      5  H   UNL     1      -0.058  11.968  20.025  0.00  0.00    +0.000 HD
ATOM      6  H   UNL     1      -1.143   9.970  17.471  0.00  0.00    +0.000 HD
ENDROOT
BRANCH   1  13
ATOM      7  N   UNL     1       3.387   6.076  17.954  0.00  0.00    +0.000 N 
ATOM      8  C   UNL     1       2.710   6.671  18.965  0.00  0.00    +0.000 A 
ATOM      9  N   UNL     1       2.556   6.196  20.202  0.00  0.00    +0.000 NA
ATOM     10  N   UNL     1       1.817   7.130  20.825  0.00  0.00    +0.000 N 
ATOM     11  C   UNL     1       1.450   8.182  20.031  0.00  0.00    +0.000 A 
ATOM     12  C   UNL     1       0.672   9.324  20.260  0.00  0.00    +0.000 A 
ATOM     13  C   UNL     1       0.531  10.161  19.157  0.00  0.00    +0.000 A 
ATOM     14  N   UNL     1       1.105   9.908  17.960  0.00  0.00    +0.000 NA
ATOM     15  C   UNL     1       1.856   8.806  17.764  0.00  0.00    +0.000 A 
ATOM     16  C   UNL     1       2.042   7.908  18.804  0.00  0.00    +0.000 A 
ATOM     17  H   UNL     1       3.287   6.461  17.021  0.00  0.00    +0.000 HD
ATOM     18  H   UNL     1       1.585   6.979  21.800  0.00  0.00    +0.000 HD
BRANCH   7  20
ATOM     19  C   UNL     1       2.293   3.948  17.522  0.00  0.00    +0.000 C 
ATOM     20  C   UNL     1       3.572   4.636  17.973  0.00  0.00    +0.000 C 
ENDBRANCH   7  20
ENDBRANCH   1  13
BRANCH   4  21
ATOM     21  C   UNL     1      -2.630  11.030  16.448  0.00  0.00    +0.000 C 
BRANCH  21  22
ATOM     22  C   UNL     1      -4.002  11.075  17.117  0.00  0.00    +0.000 A 
ATOM     23  C   UNL     1      -4.330  10.107  18.066  0.00  0.00    +0.000 A 
ATOM     24  C   UNL     1      -5.556  10.188  18.720  0.00  0.00    +0.000 A 
ATOM     25  C   UNL     1      -6.425  11.227  18.415  0.00  0.00    +0.000 A 
ATOM     26  C   UNL     1      -6.030  12.149  17.462  0.00  0.00    +0.000 A 
ATOM     27  N   UNL     1      -4.844  12.104  16.817  0.00  0.00    +0.000 NA
ENDBRANCH  21  22
BRANCH  21  28
ATOM     28  C   UNL     1      -2.546   9.887  15.413  0.00  0.00    +0.000 C 
ATOM     29  C   UNL     1      -3.390  10.076  14.153  0.00  0.00    +0.000 C 
ENDBRANCH  21  28
ENDBRANCH   4  21
TORSDOF 5
ENDMDL
