MODEL 1
REMARK VINA RESULT:      -7.1      0.000      0.000
REMARK  Name = 
REMARK  8 active torsions:
REMARK  status: ('A' for Active; 'I' for Inactive)
REMARK    1  A    between atoms: C_1  and  O_2
REMARK    2  A    between atoms: O_2  and  C_3
REMARK    3  A    between atoms: C_5  and  C_6
REMARK    4  A    between atoms: N_7  and  N_8
REMARK    5  A    between atoms: C_19  and  O_20
REMARK    6  A    between atoms: O_20  and  C_21
REMARK    7  A    between atoms: C_22  and  O_23
REMARK    8  A    between atoms: O_23  and  C_24
REMARK                            x       y       z     vdW  Elec       q    Type
REMARK                         _______ _______ _______ _____ _____    ______ ____
ROOT
ATOM      1  C   UNL     1       2.325   7.241  19.358  0.00  0.00    +0.000 C 
ATOM      2  N   UNL     1       1.885   8.432  19.096  0.00  0.00    +0.000 NA
ENDROOT
BRANCH   2   3
ATOM      3  N   UNL     1       1.106   9.063  20.060  0.00  0.00    +0.000 N 
ATOM      4  C   UNL     1       1.252   8.576  21.367  0.00  0.00    +0.000 A 
ATOM      5  N   UNL     1       0.663   9.041  22.433  0.00  0.00    +0.000 NA
ATOM      6  C   UNL     1      -0.133  10.095  22.159  0.00  0.00    +0.000 A 
ATOM      7  N   UNL     1      -0.896  10.786  23.052  0.00  0.00    +0.000 N 
ATOM      8  N   UNL     1      -1.584  11.806  22.490  0.00  0.00    +0.000 NA
ATOM      9  C   UNL     1      -1.228  11.753  21.198  0.00  0.00    +0.000 A 
ATOM     10  C   UNL     1      -0.335  10.707  20.949  0.00  0.00    +0.000 A 
ATOM     11  C   UNL     1       0.346  10.224  19.783  0.00  0.00    +0.000 A 
ATOM     12  O   UNL     1       0.268  10.812  18.708  0.00  0.00    +0.000 OA
ATOM     13  H   UNL     1      -0.988  10.620  24.048  0.00  0.00    +0.000 HD
ENDBRANCH   2   3
BRANCH   1  16
ATOM     14  C   UNL     1       5.066   6.298  16.946  0.00  0.00    +0.000 A 
ATOM     15  C   UNL     1       4.201   7.071  17.733  0.00  0.00    +0.000 A 
ATOM     16  C   UNL     1       3.118   6.481  18.368  0.00  0.00    +0.000 A 
ATOM     17  C   UNL     1       2.812   5.147  18.129  0.00  0.00    +0.000 A 
ATOM     18  C   UNL     1       3.617   4.374  17.276  0.00  0.00    +0.000 A 
ATOM     19  C   UNL     1       4.769   4.940  16.681  0.00  0.00    +0.000 A 
BRANCH  14  21
ATOM     20  C   UNL     1       7.268   7.070  17.347  0.00  0.00    +0.000 C 
ATOM     21  O   UNL     1       6.198   6.870  16.419  0.00  0.00    +0.000 OA
ENDBRANCH  14  21
BRANCH  18  22
ATOM     22  O   UNL     1       3.140   3.089  17.178  0.00  0.00    +0.000 OA
ATOM     23  C   UNL     1       3.487   2.132  18.167  0.00  0.00    +0.000 C 
ENDBRANCH  18  22
BRANCH  19  24
ATOM     24  O   UNL     1       5.498   4.109  15.876  0.00  0.00    +0.000 OA
ATOM     25  C   UNL     1       5.555   4.317  14.475  0.00  0.00    +0.000 C 
ENDBRANCH  19  24
ENDBRANCH   1  16
TORSDOF 5
ENDMDL
MODEL 2
REMARK VINA RESULT:      -7.1      6.338      9.428
REMARK  Name = 
REMARK  8 active torsions:
REMARK  status: ('A' for Active; 'I' for Inactive)
REMARK    1  A    between atoms: C_1  and  O_2
REMARK    2  A    between atoms: O_2  and  C_3
REMARK    3  A    between atoms: C_5  and  C_6
REMARK    4  A    between atoms: N_7  and  N_8
REMARK    5  A    between atoms: C_19  and  O_20
REMARK    6  A    between atoms: O_20  and  C_21
REMARK    7  A    between atoms: C_22  and  O_23
REMARK    8  A    between atoms: O_23  and  C_24
REMARK                            x       y       z     vdW  Elec       q    Type
REMARK                         _______ _______ _______ _____ _____    ______ ____
ROOT
ATOM      1  C   UNL     1       8.339   9.270  18.347  0.00  0.00    +0.000 C 
ATOM      2  N   UNL     1       8.528   8.010  18.587  0.00  0.00    +0.000 NA
ENDROOT
BRANCH   2   3
ATOM      3  N   UNL     1       7.552   7.115  18.166  0.00  0.00    +0.000 N 
ATOM      4  C   UNL     1       7.085   7.302  16.857  0.00  0.00    +0.000 A 
ATOM      5  N   UNL     1       6.211   6.561  16.237  0.00  0.00    +0.000 NA
ATOM      6  C   UNL     1       5.779   5.533  16.997  0.00  0.00    +0.000 A 
ATOM      7  N   UNL     1       4.856   4.596  16.642  0.00  0.00    +0.000 N 
ATOM      8  N   UNL     1       4.630   3.677  17.608  0.00  0.00    +0.000 NA
ATOM      9  C   UNL     1       5.452   4.051  18.599  0.00  0.00    +0.000 A 
ATOM     10  C   UNL     1       6.179   5.198  18.264  0.00  0.00    +0.000 A 
ATOM     11  C   UNL     1       7.172   5.987  18.932  0.00  0.00    +0.000 A 
ATOM     12  O   UNL     1       7.626   5.654  20.023  0.00  0.00    +0.000 OA
ATOM     13  H   UNL     1       4.351   4.524  15.766  0.00  0.00    +0.000 HD
ENDBRANCH   2   3
BRANCH   1  16
ATOM     14  C   UNL     1      11.013  11.929  18.302  0.00  0.00    +0.000 A 
ATOM     15  C   UNL     1      10.232  10.827  17.924  0.00  0.00    +0.000 A 
ATOM     16  C   UNL     1       9.303  10.292  18.805  0.00  0.00    +0.000 A 
ATOM     17  C   UNL     1       9.228  10.765  20.109  0.00  0.00    +0.000 A 
ATOM     18  C   UNL     1      10.060  11.813  20.536  0.00  0.00    +0.000 A 
ATOM     19  C   UNL     1      10.960  12.420  19.628  0.00  0.00    +0.000 A 
BRANCH  14  21
ATOM     20  C   UNL     1      11.256  13.583  16.626  0.00  0.00    +0.000 C 
ATOM     21  O   UNL     1      11.842  12.519  17.381  0.00  0.00    +0.000 OA
ENDBRANCH  14  21
BRANCH  18  22
ATOM     22  O   UNL     1       9.826  12.125  21.853  0.00  0.00    +0.000 OA
ATOM     23  C   UNL     1       8.627  12.792  22.216  0.00  0.00    +0.000 C 
ENDBRANCH  18  22
BRANCH  19  24
ATOM     24  O   UNL     1      11.720  13.441  20.129  0.00  0.00    +0.000 OA
ATOM     25  C   UNL     1      11.235  14.772  20.141  0.00  0.00    +0.000 C 
ENDBRANCH  19  24
ENDBRANCH   1  16
TORSDOF 5
ENDMDL
MODEL 3
REMARK VINA RESULT:      -7.1      6.054      9.146
REMARK  Name = 
REMARK  8 active torsions:
REMARK  status: ('A' for Active; 'I' for Inactive)
REMARK    1  A    between atoms: C_1  and  O_2
REMARK    2  A    between atoms: O_2  and  C_3
REMARK    3  A    between atoms: C_5  and  C_6
REMARK    4  A    between atoms: N_7  and  N_8
REMARK    5  A    between atoms: C_19  and  O_20
REMARK    6  A    between atoms: O_20  and  C_21
REMARK    7  A    between atoms: C_22  and  O_23
REMARK    8  A    between atoms: O_23  and  C_24
REMARK                            x       y       z     vdW  Elec       q    Type
REMARK                         _______ _______ _______ _____ _____    ______ ____
ROOT
ATOM      1  C   UNL     1       7.912   9.100  18.164  0.00  0.00    +0.000 C 
ATOM      2  N   UNL     1       7.880   8.205  17.227  0.00  0.00    +0.000 NA
ENDROOT
BRANCH   2   3
ATOM      3  N   UNL     1       7.289   6.980  17.519  0.00  0.00    +0.000 N 
ATOM      4  C   UNL     1       7.781   6.329  18.659  0.00  0.00    +0.000 A 
ATOM      5  N   UNL     1       7.349   5.201  19.148  0.00  0.00    +0.000 NA
ATOM      6  C   UNL     1       6.324   4.691  18.434  0.00  0.00    +0.000 A 
ATOM      7  N   UNL     1       5.671   3.521  18.678  0.00  0.00    +0.000 N 
ATOM      8  N   UNL     1       4.673   3.272  17.799  0.00  0.00    +0.000 NA
ATOM      9  C   UNL     1       4.701   4.335  16.982  0.00  0.00    +0.000 A 
ATOM     10  C   UNL     1       5.710   5.236  17.337  0.00  0.00    +0.000 A 
ATOM     11  C   UNL     1       6.155   6.498  16.822  0.00  0.00    +0.000 A 
ATOM     12  O   UNL     1       5.560   7.061  15.907  0.00  0.00    +0.000 OA
ATOM     13  H   UNL     1       5.849   2.855  19.422  0.00  0.00    +0.000 HD
ENDBRANCH   2   3
BRANCH   1  16
ATOM     14  C   UNL     1       8.399  12.790  17.560  0.00  0.00    +0.000 A 
ATOM     15  C   UNL     1       7.819  11.514  17.572  0.00  0.00    +0.000 A 
ATOM     16  C   UNL     1       8.566  10.409  17.953  0.00  0.00    +0.000 A 
ATOM     17  C   UNL     1       9.925  10.541  18.206  0.00  0.00    +0.000 A 
ATOM     18  C   UNL     1      10.547  11.797  18.118  0.00  0.00    +0.000 A 
ATOM     19  C   UNL     1       9.784  12.947  17.805  0.00  0.00    +0.000 A 
BRANCH  14  21
ATOM     20  C   UNL     1       7.139  14.589  18.445  0.00  0.00    +0.000 C 
ATOM     21  O   UNL     1       7.618  13.888  17.294  0.00  0.00    +0.000 OA
ENDBRANCH  14  21
BRANCH  18  22
ATOM     22  O   UNL     1      11.887  11.706  18.406  0.00  0.00    +0.000 OA
ATOM     23  C   UNL     1      12.333  11.871  19.743  0.00  0.00    +0.000 C 
ENDBRANCH  18  22
BRANCH  19  24
ATOM     24  O   UNL     1      10.472  14.128  17.755  0.00  0.00    +0.000 OA
ATOM     25  C   UNL     1      10.653  14.914  18.920  0.00  0.00    +0.000 C 
ENDBRANCH  19  24
ENDBRANCH   1  16
TORSDOF 5
ENDMDL
MODEL 4
REMARK VINA RESULT:      -7.0      1.254      3.007
REMARK  Name = 
REMARK  8 active torsions:
REMARK  status: ('A' for Active; 'I' for Inactive)
REMARK    1  A    between atoms: C_1  and  O_2
REMARK    2  A    between atoms: O_2  and  C_3
REMARK    3  A    between atoms: C_5  and  C_6
REMARK    4  A    between atoms: N_7  and  N_8
REMARK    5  A    between atoms: C_19  and  O_20
REMARK    6  A    between atoms: O_20  and  C_21
REMARK    7  A    between atoms: C_22  and  O_23
REMARK    8  A    between atoms: O_23  and  C_24
REMARK                            x       y       z     vdW  Elec       q    Type
REMARK                         _______ _______ _______ _____ _____    ______ ____
ROOT
ATOM      1  C   UNL     1       2.351   7.846  18.321  0.00  0.00    +0.000 C 
ATOM      2  N   UNL     1       2.042   8.005  19.569  0.00  0.00    +0.000 NA
ENDROOT
BRANCH   2   3
ATOM      3  N   UNL     1       1.184   9.049  19.898  0.00  0.00    +0.000 N 
ATOM      4  C   UNL     1       0.590   9.707  18.811  0.00  0.00    +0.000 A 
ATOM      5  N   UNL     1      -0.278  10.677  18.878  0.00  0.00    +0.000 NA
ATOM      6  C   UNL     1      -0.582  11.005  20.152  0.00  0.00    +0.000 A 
ATOM      7  N   UNL     1      -1.437  11.988  20.552  0.00  0.00    +0.000 N 
ATOM      8  N   UNL     1      -1.553  12.079  21.896  0.00  0.00    +0.000 NA
ATOM      9  C   UNL     1      -0.746  11.109  22.350  0.00  0.00    +0.000 A 
ATOM     10  C   UNL     1      -0.122  10.423  21.304  0.00  0.00    +0.000 A 
ATOM     11  C   UNL     1       0.799   9.327  21.231  0.00  0.00    +0.000 A 
ATOM     12  O   UNL     1       1.149   8.717  22.239  0.00  0.00    +0.000 OA
ATOM     13  H   UNL     1      -1.971  12.620  19.967  0.00  0.00    +0.000 HD
ENDBRANCH   2   3
BRANCH   1  16
ATOM     14  C   UNL     1       3.727   4.486  17.303  0.00  0.00    +0.000 A 
ATOM     15  C   UNL     1       2.907   5.460  17.889  0.00  0.00    +0.000 A 
ATOM     16  C   UNL     1       3.295   6.792  17.892  0.00  0.00    +0.000 A 
ATOM     17  C   UNL     1       4.553   7.152  17.425  0.00  0.00    +0.000 A 
ATOM     18  C   UNL     1       5.426   6.180  16.910  0.00  0.00    +0.000 A 
ATOM     19  C   UNL     1       5.016   4.828  16.830  0.00  0.00    +0.000 A 
BRANCH  14  21
ATOM     20  C   UNL     1       3.486   2.384  18.366  0.00  0.00    +0.000 C 
ATOM     21  O   UNL     1       3.278   3.192  17.204  0.00  0.00    +0.000 OA
ENDBRANCH  14  21
BRANCH  18  22
ATOM     22  O   UNL     1       6.611   6.745  16.506  0.00  0.00    +0.000 OA
ATOM     23  C   UNL     1       7.501   7.282  17.472  0.00  0.00    +0.000 C 
ENDBRANCH  18  22
BRANCH  19  24
ATOM     24  O   UNL     1       5.928   3.954  16.303  0.00  0.00    +0.000 OA
ATOM     25  C   UNL     1       6.086   3.827  14.901  0.00  0.00    +0.000 C 
ENDBRANCH  19  24
ENDBRANCH   1  16
TORSDOF 5
ENDMDL
MODEL 5
REMARK VINA RESULT:      -7.0      1.716      2.341
REMARK  Name = 
REMARK  8 active torsions:
REMARK  status: ('A' for Active; 'I' for Inactive)
REMARK    1  A    between atoms: C_1  and  O_2
REMARK    2  A    between atoms: O_2  and  C_3
REMARK    3  A    between atoms: C_5  and  C_6
REMARK    4  A    between atoms: N_7  and  N_8
REMARK    5  A    between atoms: C_19  and  O_20
REMARK    6  A    between atoms: O_20  and  C_21
REMARK    7  A    between atoms: C_22  and  O_23
REMARK    8  A    between atoms: O_23  and  C_24
REMARK                            x       y       z     vdW  Elec       q    Type
REMARK                         _______ _______ _______ _____ _____    ______ ____
ROOT
ATOM      1  C   UNL     1       1.353   7.478  20.812  0.00  0.00    +0.000 C 
ATOM      2  N   UNL     1       1.246   8.633  20.234  0.00  0.00    +0.000 NA
ENDROOT
BRANCH   2   3
ATOM      3  N   UNL     1       0.555   9.634  20.907  0.00  0.00    +0.000 N 
ATOM      4  C   UNL     1       0.446   9.464  22.295  0.00  0.00    +0.000 A 
ATOM      5  N   UNL     1      -0.113  10.292  23.131  0.00  0.00    +0.000 NA
ATOM      6  C   UNL     1      -0.595  11.393  22.517  0.00  0.00    +0.000 A 
ATOM      7  N   UNL     1      -1.249  12.430  23.112  0.00  0.00    +0.000 N 
ATOM      8  N   UNL     1      -1.606  13.404  22.243  0.00  0.00    +0.000 NA
ATOM      9  C   UNL     1      -1.147  12.960  21.065  0.00  0.00    +0.000 A 
ATOM     10  C   UNL     1      -0.519  11.717  21.188  0.00  0.00    +0.000 A 
ATOM     11  C   UNL     1       0.135  10.828  20.273  0.00  0.00    +0.000 A 
ATOM     12  O   UNL     1       0.311  11.136  19.097  0.00  0.00    +0.000 OA
ATOM     13  H   UNL     1      -1.477  12.538  24.094  0.00  0.00    +0.000 HD
ENDBRANCH   2   3
BRANCH   1  16
ATOM     14  C   UNL     1       3.440   5.505  18.367  0.00  0.00    +0.000 A 
ATOM     15  C   UNL     1       2.637   6.519  18.909  0.00  0.00    +0.000 A 
ATOM     16  C   UNL     1       2.029   6.345  20.144  0.00  0.00    +0.000 A 
ATOM     17  C   UNL     1       2.110   5.120  20.793  0.00  0.00    +0.000 A 
ATOM     18  C   UNL     1       2.840   4.061  20.229  0.00  0.00    +0.000 A 
ATOM     19  C   UNL     1       3.529   4.246  19.007  0.00  0.00    +0.000 A 
BRANCH  14  21
ATOM     20  C   UNL     1       5.285   6.567  17.331  0.00  0.00    +0.000 C 
ATOM     21  O   UNL     1       4.129   5.736  17.202  0.00  0.00    +0.000 OA
ENDBRANCH  14  21
BRANCH  18  22
ATOM     22  O   UNL     1       2.792   2.946  21.029  0.00  0.00    +0.000 OA
ATOM     23  C   UNL     1       1.572   2.581  21.656  0.00  0.00    +0.000 C 
ENDBRANCH  18  22
BRANCH  19  24
ATOM     24  O   UNL     1       4.224   3.164  18.540  0.00  0.00    +0.000 OA
ATOM     25  C   UNL     1       3.563   2.120  17.846  0.00  0.00    +0.000 C 
ENDBRANCH  19  24
ENDBRANCH   1  16
TORSDOF 5
ENDMDL
MODEL 6
REMARK VINA RESULT:      -7.0      2.096      3.665
REMARK  Name = 
REMARK  8 active torsions:
REMARK  status: ('A' for Active; 'I' for Inactive)
REMARK    1  A    between atoms: C_1  and  O_2
REMARK    2  A    between atoms: O_2  and  C_3
REMARK    3  A    between atoms: C_5  and  C_6
REMARK    4  A    between atoms: N_7  and  N_8
REMARK    5  A    between atoms: C_19  and  O_20
REMARK    6  A    between atoms: O_20  and  C_21
REMARK    7  A    between atoms: C_22  and  O_23
REMARK    8  A    between atoms: O_23  and  C_24
REMARK                            x       y       z     vdW  Elec       q    Type
REMARK                         _______ _______ _______ _____ _____    ______ ____
ROOT
ATOM      1  C   UNL     1       1.512   8.035  19.917  0.00  0.00    +0.000 C 
ATOM      2  N   UNL     1       0.948   8.351  21.041  0.00  0.00    +0.000 NA
ENDROOT
BRANCH   2   3
ATOM      3  N   UNL     1       0.285   9.571  21.113  0.00  0.00    +0.000 N 
ATOM      4  C   UNL     1      -0.239  10.046  19.902  0.00  0.00    +0.000 A 
ATOM      5  N   UNL     1      -0.935  11.135  19.739  0.00  0.00    +0.000 NA
ATOM      6  C   UNL     1      -1.130  11.798  20.898  0.00  0.00    +0.000 A 
ATOM      7  N   UNL     1      -1.798  12.976  21.054  0.00  0.00    +0.000 N 
ATOM      8  N   UNL     1      -1.842  13.397  22.339  0.00  0.00    +0.000 NA
ATOM      9  C   UNL     1      -1.184  12.440  23.008  0.00  0.00    +0.000 A 
ATOM     10  C   UNL     1      -0.723  11.434  22.155  0.00  0.00    +0.000 A 
ATOM     11  C   UNL     1       0.005  10.213  22.343  0.00  0.00    +0.000 A 
ATOM     12  O   UNL     1       0.293   9.807  23.466  0.00  0.00    +0.000 OA
ATOM     13  H   UNL     1      -2.246  13.534  20.337  0.00  0.00    +0.000 HD
ENDBRANCH   2   3
BRANCH   1  16
ATOM     14  C   UNL     1       2.715   4.502  20.460  0.00  0.00    +0.000 A 
ATOM     15  C   UNL     1       2.142   5.759  20.700  0.00  0.00    +0.000 A 
ATOM     16  C   UNL     1       2.280   6.779  19.771  0.00  0.00    +0.000 A 
ATOM     17  C   UNL     1       3.090   6.601  18.656  0.00  0.00    +0.000 A 
ATOM     18  C   UNL     1       3.742   5.377  18.438  0.00  0.00    +0.000 A 
ATOM     19  C   UNL     1       3.551   4.301  19.337  0.00  0.00    +0.000 A 
BRANCH  14  21
ATOM     20  C   UNL     1       1.196   2.840  21.193  0.00  0.00    +0.000 C 
ATOM     21  O   UNL     1       2.473   3.469  21.332  0.00  0.00    +0.000 OA
ENDBRANCH  14  21
BRANCH  18  22
ATOM     22  O   UNL     1       4.488   5.413  17.285  0.00  0.00    +0.000 OA
ATOM     23  C   UNL     1       4.789   6.661  16.680  0.00  0.00    +0.000 C 
ENDBRANCH  18  22
BRANCH  19  24
ATOM     24  O   UNL     1       4.217   3.144  19.037  0.00  0.00    +0.000 OA
ATOM     25  C   UNL     1       3.574   2.097  18.331  0.00  0.00    +0.000 C 
ENDBRANCH  19  24
ENDBRANCH   1  16
TORSDOF 5
ENDMDL
MODEL 7
REMARK VINA RESULT:      -6.9      2.202      3.043
REMARK  Name = 
REMARK  8 active torsions:
REMARK  status: ('A' for Active; 'I' for Inactive)
REMARK    1  A    between atoms: C_1  and  O_2
REMARK    2  A    between atoms: O_2  and  C_3
REMARK    3  A    between atoms: C_5  and  C_6
REMARK    4  A    between atoms: N_7  and  N_8
REMARK    5  A    between atoms: C_19  and  O_20
REMARK    6  A    between atoms: O_20  and  C_21
REMARK    7  A    between atoms: C_22  and  O_23
REMARK    8  A    between atoms: O_23  and  C_24
REMARK                            x       y       z     vdW  Elec       q    Type
REMARK                         _______ _______ _______ _____ _____    ______ ____
ROOT
ATOM      1  C   UNL     1       1.451   8.112  19.943  0.00  0.00    +0.000 C 
ATOM      2  N   UNL     1       0.865   8.419  21.058  0.00  0.00    +0.000 NA
ENDROOT
BRANCH   2   3
ATOM      3  N   UNL     1       0.232   9.654  21.140  0.00  0.00    +0.000 N 
ATOM      4  C   UNL     1      -0.257  10.163  19.928  0.00  0.00    +0.000 A 
ATOM      5  N   UNL     1      -0.922  11.273  19.771  0.00  0.00    +0.000 NA
ATOM      6  C   UNL     1      -1.123  11.920  20.938  0.00  0.00    +0.000 A 
ATOM      7  N   UNL     1      -1.764  13.110  21.104  0.00  0.00    +0.000 N 
ATOM      8  N   UNL     1      -1.823  13.510  22.394  0.00  0.00    +0.000 NA
ATOM      9  C   UNL     1      -1.203  12.525  23.059  0.00  0.00    +0.000 A 
ATOM     10  C   UNL     1      -0.750  11.523  22.196  0.00  0.00    +0.000 A 
ATOM     11  C   UNL     1      -0.056  10.281  22.376  0.00  0.00    +0.000 A 
ATOM     12  O   UNL     1       0.199   9.847  23.496  0.00  0.00    +0.000 OA
ATOM     13  H   UNL     1      -2.184  13.693  20.388  0.00  0.00    +0.000 HD
ENDBRANCH   2   3
BRANCH   1  16
ATOM     14  C   UNL     1       4.011   5.586  18.806  0.00  0.00    +0.000 A 
ATOM     15  C   UNL     1       3.181   6.717  18.825  0.00  0.00    +0.000 A 
ATOM     16  C   UNL     1       2.190   6.841  19.789  0.00  0.00    +0.000 A 
ATOM     17  C   UNL     1       1.933   5.791  20.662  0.00  0.00    +0.000 A 
ATOM     18  C   UNL     1       2.696   4.614  20.605  0.00  0.00    +0.000 A 
ATOM     19  C   UNL     1       3.760   4.502  19.679  0.00  0.00    +0.000 A 
BRANCH  14  21
ATOM     20  C   UNL     1       4.733   5.043  16.617  0.00  0.00    +0.000 C 
ATOM     21  O   UNL     1       5.060   5.531  17.922  0.00  0.00    +0.000 OA
ENDBRANCH  14  21
BRANCH  18  22
ATOM     22  O   UNL     1       2.279   3.709  21.551  0.00  0.00    +0.000 OA
ATOM     23  C   UNL     1       1.227   2.807  21.246  0.00  0.00    +0.000 C 
ENDBRANCH  18  22
BRANCH  19  24
ATOM     24  O   UNL     1       4.457   3.325  19.705  0.00  0.00    +0.000 OA
ATOM     25  C   UNL     1       3.988   2.187  19.002  0.00  0.00    +0.000 C 
ENDBRANCH  19  24
ENDBRANCH   1  16
TORSDOF 5
ENDMDL
MODEL 8
REMARK VINA RESULT:      -6.9      0.335      2.573
REMARK  Name = 
REMARK  8 active torsions:
REMARK  status: ('A' for Active; 'I' for Inactive)
REMARK    1  A    between atoms: C_1  and  O_2
REMARK    2  A    between atoms: O_2  and  C_3
REMARK    3  A    between atoms: C_5  and  C_6
REMARK    4  A    between atoms: N_7  and  N_8
REMARK    5  A    between atoms: C_19  and  O_20
REMARK    6  A    between atoms: O_20  and  C_21
REMARK    7  A    between atoms: C_22  and  O_23
REMARK    8  A    between atoms: O_23  and  C_24
REMARK                            x       y       z     vdW  Elec       q    Type
REMARK                         _______ _______ _______ _____ _____    ______ ____
ROOT
ATOM      1  C   UNL     1       2.469   6.975  19.460  0.00  0.00    +0.000 C 
ATOM      2  N   UNL     1       2.075   8.156  19.098  0.00  0.00    +0.000 NA
ENDROOT
BRANCH   2   3
ATOM      3  N   UNL     1       1.239   8.854  19.963  0.00  0.00    +0.000 N 
ATOM      4  C   UNL     1       1.281   8.447  21.304  0.00  0.00    +0.000 A 
ATOM      5  N   UNL     1       0.624   8.983  22.293  0.00  0.00    +0.000 NA
ATOM      6  C   UNL     1      -0.131  10.030  21.899  0.00  0.00    +0.000 A 
ATOM      7  N   UNL     1      -0.944  10.784  22.691  0.00  0.00    +0.000 N 
ATOM      8  N   UNL     1      -1.571  11.777  22.019  0.00  0.00    +0.000 NA
ATOM      9  C   UNL     1      -1.122  11.641  20.763  0.00  0.00    +0.000 A 
ATOM     10  C   UNL     1      -0.233  10.569  20.644  0.00  0.00    +0.000 A 
ATOM     11  C   UNL     1       0.522  10.007  19.562  0.00  0.00    +0.000 A 
ATOM     12  O   UNL     1       0.534  10.530  18.451  0.00  0.00    +0.000 OA
ATOM     13  H   UNL     1      -1.111  10.681  23.685  0.00  0.00    +0.000 HD
ENDBRANCH   2   3
BRANCH   1  16
ATOM     14  C   UNL     1       3.681   4.089  17.358  0.00  0.00    +0.000 A 
ATOM     15  C   UNL     1       2.995   4.818  18.339  0.00  0.00    +0.000 A 
ATOM     16  C   UNL     1       3.318   6.145  18.579  0.00  0.00    +0.000 A 
ATOM     17  C   UNL     1       4.405   6.724  17.936  0.00  0.00    +0.000 A 
ATOM     18  C   UNL     1       5.160   5.987  17.010  0.00  0.00    +0.000 A 
ATOM     19  C   UNL     1       4.797   4.655  16.698  0.00  0.00    +0.000 A 
BRANCH  14  21
ATOM     20  C   UNL     1       3.069   1.952  18.175  0.00  0.00    +0.000 C 
ATOM     21  O   UNL     1       3.274   2.814  17.051  0.00  0.00    +0.000 OA
ENDBRANCH  14  21
BRANCH  18  22
ATOM     22  O   UNL     1       6.184   6.743  16.493  0.00  0.00    +0.000 OA
ATOM     23  C   UNL     1       7.246   7.161  17.337  0.00  0.00    +0.000 C 
ENDBRANCH  18  22
BRANCH  19  24
ATOM     24  O   UNL     1       5.583   4.019  15.776  0.00  0.00    +0.000 OA
ATOM     25  C   UNL     1       5.439   4.284  14.392  0.00  0.00    +0.000 C 
ENDBRANCH  19  24
ENDBRANCH   1  16
TORSDOF 5
ENDMDL
MODEL 9
REMARK VINA RESULT:      -6.8      2.257      3.751
REMARK  Name = 
REMARK  8 active torsions:
REMARK  status: ('A' for Active; 'I' for Inactive)
REMARK    1  A    between atoms: C_1  and  O_2
REMARK    2  A    between atoms: O_2  and  C_3
REMARK    3  A    between atoms: C_5  and  C_6
REMARK    4  A    between atoms: N_7  and  N_8
REMARK    5  A    between atoms: C_19  and  O_20
REMARK    6  A    between atoms: O_20  and  C_21
REMARK    7  A    between atoms: C_22  and  O_23
REMARK    8  A    between atoms: O_23  and  C_24
REMARK                            x       y       z     vdW  Elec       q    Type
REMARK                         _______ _______ _______ _____ _____    ______ ____
ROOT
ATOM      1  C   UNL     1       1.698   7.809  20.041  0.00  0.00    +0.000 C 
ATOM      2  N   UNL     1       1.187   8.221  21.159  0.00  0.00    +0.000 NA
ENDROOT
BRANCH   2   3
ATOM      3  N   UNL     1       0.693   9.520  21.207  0.00  0.00    +0.000 N 
ATOM      4  C   UNL     1       0.784  10.246  20.011  0.00  0.00    +0.000 A 
ATOM      5  N   UNL     1       0.347  11.456  19.808  0.00  0.00    +0.000 NA
ATOM      6  C   UNL     1      -0.245  11.977  20.903  0.00  0.00    +0.000 A 
ATOM      7  N   UNL     1      -0.784  13.223  21.017  0.00  0.00    +0.000 N 
ATOM      8  N   UNL     1      -1.320  13.465  22.235  0.00  0.00    +0.000 NA
ATOM      9  C   UNL     1      -1.116  12.320  22.902  0.00  0.00    +0.000 A 
ATOM     10  C   UNL     1      -0.450  11.374  22.117  0.00  0.00    +0.000 A 
ATOM     11  C   UNL     1      -0.008  10.026  22.328  0.00  0.00    +0.000 A 
ATOM     12  O   UNL     1      -0.268   9.423  23.365  0.00  0.00    +0.000 OA
ATOM     13  H   UNL     1      -0.823  13.948  20.309  0.00  0.00    +0.000 HD
ENDBRANCH   2   3
BRANCH   1  16
ATOM     14  C   UNL     1       2.077   4.058  20.113  0.00  0.00    +0.000 A 
ATOM     15  C   UNL     1       1.612   5.349  20.399  0.00  0.00    +0.000 A 
ATOM     16  C   UNL     1       2.289   6.460  19.919  0.00  0.00    +0.000 A 
ATOM     17  C   UNL     1       3.501   6.303  19.256  0.00  0.00    +0.000 A 
ATOM     18  C   UNL     1       4.029   5.022  19.031  0.00  0.00    +0.000 A 
ATOM     19  C   UNL     1       3.313   3.875  19.448  0.00  0.00    +0.000 A 
BRANCH  14  21
ATOM     20  C   UNL     1       1.551   2.523  21.837  0.00  0.00    +0.000 C 
ATOM     21  O   UNL     1       1.334   2.968  20.495  0.00  0.00    +0.000 OA
ENDBRANCH  14  21
BRANCH  18  22
ATOM     22  O   UNL     1       5.228   5.092  18.363  0.00  0.00    +0.000 OA
ATOM     23  C   UNL     1       6.423   5.345  19.086  0.00  0.00    +0.000 C 
ENDBRANCH  18  22
BRANCH  19  24
ATOM     24  O   UNL     1       3.899   2.670  19.175  0.00  0.00    +0.000 OA
ATOM     25  C   UNL     1       3.480   1.892  18.067  0.00  0.00    +0.000 C 
ENDBRANCH  19  24
ENDBRANCH   1  16
TORSDOF 5
ENDMDL
