MODEL 1
REMARK VINA RESULT:      -7.1      0.000      0.000
REMARK  Name = 
REMARK  11 active torsions:
REMARK  status: ('A' for Active; 'I' for Inactive)
REMARK    1  A    between atoms: C_1  and  O_2
REMARK    2  A    between atoms: O_2  and  C_3
REMARK    3  A    between atoms: C_5  and  C_6
REMARK    4  A    between atoms: C_6  and  C_8
REMARK    5  A    between atoms: C_8  and  O_9
REMARK    6  A    between atoms: O_9  and  C_10
REMARK    7  A    between atoms: C_10  and  C_12
REMARK    8  A    between atoms: C_19  and  O_20
REMARK    9  A    between atoms: O_20  and  C_21
REMARK   10  A    between atoms: C_22  and  O_23
REMARK   11  A    between atoms: O_23  and  C_24
REMARK                            x       y       z     vdW  Elec       q    Type
REMARK                         _______ _______ _______ _____ _____    ______ ____
ROOT
ATOM      1  C   UNL     1       6.154   5.148  16.299  0.00  0.00    +0.000 A 
ATOM      2  C   UNL     1       5.305   4.065  16.579  0.00  0.00    +0.000 A 
ATOM      3  C   UNL     1       4.060   4.275  17.163  0.00  0.00    +0.000 A 
ATOM      4  C   UNL     1       3.723   5.547  17.610  0.00  0.00    +0.000 A 
ATOM      5  C   UNL     1       4.605   6.626  17.439  0.00  0.00    +0.000 A 
ATOM      6  C   UNL     1       5.840   6.441  16.774  0.00  0.00    +0.000 A 
ENDROOT
BRANCH   1   8
ATOM      7  C   UNL     1       7.063   4.694  14.162  0.00  0.00    +0.000 C 
ATOM      8  O   UNL     1       7.289   4.939  15.555  0.00  0.00    +0.000 OA
ENDBRANCH   1   8
BRANCH   3   9
ATOM      9  C   UNL     1       3.092   3.145  17.189  0.00  0.00    +0.000 C 
ATOM     10  O   UNL     1       1.956   3.310  16.747  0.00  0.00    +0.000 OA
BRANCH   9  11
ATOM     11  C   UNL     1       3.548   1.840  17.837  0.00  0.00    +0.000 C 
BRANCH  11  12
ATOM     12  O   UNL     1       3.019   1.658  19.155  0.00  0.00    +0.000 OA
BRANCH  12  13
ATOM     13  C   UNL     1       3.665   2.373  20.126  0.00  0.00    +0.000 C 
ATOM     14  O   UNL     1       4.856   2.636  20.112  0.00  0.00    +0.000 OA
BRANCH  13  15
ATOM     15  C   UNL     1       2.687   2.721  21.248  0.00  0.00    +0.000 C 
ATOM     16  C   UNL     1       2.792   4.190  21.684  0.00  0.00    +0.000 C 
ATOM     17  C   UNL     1       2.194   5.165  20.671  0.00  0.00    +0.000 C 
ATOM     18  C   UNL     1       0.779   4.778  20.255  0.00  0.00    +0.000 C 
ATOM     19  C   UNL     1       0.687   3.322  19.810  0.00  0.00    +0.000 C 
ATOM     20  C   UNL     1       1.241   2.376  20.872  0.00  0.00    +0.000 C 
ENDBRANCH  13  15
ENDBRANCH  12  13
ENDBRANCH  11  12
ENDBRANCH   9  11
ENDBRANCH   3   9
BRANCH   5  21
ATOM     21  O   UNL     1       4.067   7.782  17.949  0.00  0.00    +0.000 OA
ATOM     22  C   UNL     1       2.667   8.008  17.865  0.00  0.00    +0.000 C 
ENDBRANCH   5  21
BRANCH   6  23
ATOM     23  O   UNL     1       6.620   7.557  16.663  0.00  0.00    +0.000 OA
ATOM     24  C   UNL     1       7.647   7.851  17.591  0.00  0.00    +0.000 C 
ENDBRANCH   6  23
TORSDOF 8
ENDMDL
MODEL 2
REMARK VINA RESULT:      -6.5      1.324      2.404
REMARK  Name = 
REMARK  11 active torsions:
REMARK  status: ('A' for Active; 'I' for Inactive)
REMARK    1  A    between atoms: C_1  and  O_2
REMARK    2  A    between atoms: O_2  and  C_3
REMARK    3  A    between atoms: C_5  and  C_6
REMARK    4  A    between atoms: C_6  and  C_8
REMARK    5  A    between atoms: C_8  and  O_9
REMARK    6  A    between atoms: O_9  and  C_10
REMARK    7  A    between atoms: C_10  and  C_12
REMARK    8  A    between atoms: C_19  and  O_20
REMARK    9  A    between atoms: O_20  and  C_21
REMARK   10  A    between atoms: C_22  and  O_23
REMARK   11  A    between atoms: O_23  and  C_24
REMARK                            x       y       z     vdW  Elec       q    Type
REMARK                         _______ _______ _______ _____ _____    ______ ____
ROOT
ATOM      1  C   UNL     1       6.055   5.502  18.256  0.00  0.00    +0.000 A 
ATOM      2  C   UNL     1       4.889   4.720  18.302  0.00  0.00    +0.000 A 
ATOM      3  C   UNL     1       4.352   4.182  17.136  0.00  0.00    +0.000 A 
ATOM      4  C   UNL     1       4.888   4.549  15.907  0.00  0.00    +0.000 A 
ATOM      5  C   UNL     1       5.988   5.419  15.834  0.00  0.00    +0.000 A 
ATOM      6  C   UNL     1       6.592   5.909  17.015  0.00  0.00    +0.000 A 
ENDROOT
BRANCH   1   8
ATOM      7  C   UNL     1       7.971   5.300  19.628  0.00  0.00    +0.000 C 
ATOM      8  O   UNL     1       6.670   5.863  19.430  0.00  0.00    +0.000 OA
ENDBRANCH   1   8
BRANCH   3   9
ATOM      9  C   UNL     1       3.290   3.147  17.260  0.00  0.00    +0.000 C 
ATOM     10  O   UNL     1       2.166   3.376  16.816  0.00  0.00    +0.000 OA
BRANCH   9  11
ATOM     11  C   UNL     1       3.641   1.863  18.007  0.00  0.00    +0.000 C 
BRANCH  11  12
ATOM     12  O   UNL     1       2.965   1.747  19.264  0.00  0.00    +0.000 OA
BRANCH  12  13
ATOM     13  C   UNL     1       3.669   2.240  20.330  0.00  0.00    +0.000 C 
ATOM     14  O   UNL     1       4.884   2.217  20.424  0.00  0.00    +0.000 OA
BRANCH  13  15
ATOM     15  C   UNL     1       2.700   2.746  21.398  0.00  0.00    +0.000 C 
ATOM     16  C   UNL     1       2.826   4.258  21.636  0.00  0.00    +0.000 C 
ATOM     17  C   UNL     1       2.237   5.099  20.504  0.00  0.00    +0.000 C 
ATOM     18  C   UNL     1       0.816   4.680  20.145  0.00  0.00    +0.000 C 
ATOM     19  C   UNL     1       0.702   3.179  19.897  0.00  0.00    +0.000 C 
ATOM     20  C   UNL     1       1.248   2.375  21.074  0.00  0.00    +0.000 C 
ENDBRANCH  13  15
ENDBRANCH  12  13
ENDBRANCH  11  12
ENDBRANCH   9  11
ENDBRANCH   3   9
BRANCH   5  21
ATOM     21  O   UNL     1       6.349   5.638  14.526  0.00  0.00    +0.000 OA
ATOM     22  C   UNL     1       7.308   4.794  13.906  0.00  0.00    +0.000 C 
ENDBRANCH   5  21
BRANCH   6  23
ATOM     23  O   UNL     1       7.654   6.747  16.827  0.00  0.00    +0.000 OA
ATOM     24  C   UNL     1       7.645   8.086  17.287  0.00  0.00    +0.000 C 
ENDBRANCH   6  23
TORSDOF 8
ENDMDL
MODEL 3
REMARK VINA RESULT:      -6.2      1.428      3.046
REMARK  Name = 
REMARK  11 active torsions:
REMARK  status: ('A' for Active; 'I' for Inactive)
REMARK    1  A    between atoms: C_1  and  O_2
REMARK    2  A    between atoms: O_2  and  C_3
REMARK    3  A    between atoms: C_5  and  C_6
REMARK    4  A    between atoms: C_6  and  C_8
REMARK    5  A    between atoms: C_8  and  O_9
REMARK    6  A    between atoms: O_9  and  C_10
REMARK    7  A    between atoms: C_10  and  C_12
REMARK    8  A    between atoms: C_19  and  O_20
REMARK    9  A    between atoms: O_20  and  C_21
REMARK   10  A    between atoms: C_22  and  O_23
REMARK   11  A    between atoms: O_23  and  C_24
REMARK                            x       y       z     vdW  Elec       q    Type
REMARK                         _______ _______ _______ _____ _____    ______ ____
ROOT
ATOM      1  C   UNL     1       6.849   5.649  16.061  0.00  0.00    +0.000 A 
ATOM      2  C   UNL     1       5.644   5.331  16.710  0.00  0.00    +0.000 A 
ATOM      3  C   UNL     1       4.843   4.293  16.244  0.00  0.00    +0.000 A 
ATOM      4  C   UNL     1       5.163   3.672  15.043  0.00  0.00    +0.000 A 
ATOM      5  C   UNL     1       6.306   4.051  14.320  0.00  0.00    +0.000 A 
ATOM      6  C   UNL     1       7.172   5.050  14.824  0.00  0.00    +0.000 A 
ENDROOT
BRANCH   1   8
ATOM      7  C   UNL     1       7.082   7.580  17.409  0.00  0.00    +0.000 C 
ATOM      8  O   UNL     1       7.711   6.545  16.644  0.00  0.00    +0.000 OA
ENDBRANCH   1   8
BRANCH   3   9
ATOM      9  C   UNL     1       3.731   3.816  17.111  0.00  0.00    +0.000 C 
ATOM     10  O   UNL     1       2.805   4.579  17.382  0.00  0.00    +0.000 OA
BRANCH   9  11
ATOM     11  C   UNL     1       3.837   2.405  17.681  0.00  0.00    +0.000 C 
BRANCH  11  12
ATOM     12  O   UNL     1       3.047   2.219  18.860  0.00  0.00    +0.000 OA
BRANCH  12  13
ATOM     13  C   UNL     1       3.708   2.480  20.029  0.00  0.00    +0.000 C 
ATOM     14  O   UNL     1       4.921   2.471  20.153  0.00  0.00    +0.000 OA
BRANCH  13  15
ATOM     15  C   UNL     1       2.698   2.707  21.154  0.00  0.00    +0.000 C 
ATOM     16  C   UNL     1       2.721   4.150  21.681  0.00  0.00    +0.000 C 
ATOM     17  C   UNL     1       2.087   5.155  20.719  0.00  0.00    +0.000 C 
ATOM     18  C   UNL     1       0.700   4.723  20.255  0.00  0.00    +0.000 C 
ATOM     19  C   UNL     1       0.690   3.294  19.721  0.00  0.00    +0.000 C 
ATOM     20  C   UNL     1       1.277   2.314  20.733  0.00  0.00    +0.000 C 
ENDBRANCH  13  15
ENDBRANCH  12  13
ENDBRANCH  11  12
ENDBRANCH   9  11
ENDBRANCH   3   9
BRANCH   5  21
ATOM     21  O   UNL     1       6.427   3.305  13.173  0.00  0.00    +0.000 OA
ATOM     22  C   UNL     1       5.397   3.340  12.195  0.00  0.00    +0.000 C 
ENDBRANCH   5  21
BRANCH   6  23
ATOM     23  O   UNL     1       8.253   5.339  14.041  0.00  0.00    +0.000 OA
ATOM     24  C   UNL     1       8.113   5.813  12.714  0.00  0.00    +0.000 C 
ENDBRANCH   6  23
TORSDOF 8
ENDMDL
MODEL 4
REMARK VINA RESULT:      -6.1      3.949      6.695
REMARK  Name = 
REMARK  11 active torsions:
REMARK  status: ('A' for Active; 'I' for Inactive)
REMARK    1  A    between atoms: C_1  and  O_2
REMARK    2  A    between atoms: O_2  and  C_3
REMARK    3  A    between atoms: C_5  and  C_6
REMARK    4  A    between atoms: C_6  and  C_8
REMARK    5  A    between atoms: C_8  and  O_9
REMARK    6  A    between atoms: O_9  and  C_10
REMARK    7  A    between atoms: C_10  and  C_12
REMARK    8  A    between atoms: C_19  and  O_20
REMARK    9  A    between atoms: O_20  and  C_21
REMARK   10  A    between atoms: C_22  and  O_23
REMARK   11  A    between atoms: O_23  and  C_24
REMARK                            x       y       z     vdW  Elec       q    Type
REMARK                         _______ _______ _______ _____ _____    ______ ____
ROOT
ATOM      1  C   UNL     1       0.214  10.378  20.807  0.00  0.00    +0.000 A 
ATOM      2  C   UNL     1       1.040   9.398  20.231  0.00  0.00    +0.000 A 
ATOM      3  C   UNL     1       1.072   9.221  18.851  0.00  0.00    +0.000 A 
ATOM      4  C   UNL     1       0.167   9.914  18.055  0.00  0.00    +0.000 A 
ATOM      5  C   UNL     1      -0.744  10.819  18.623  0.00  0.00    +0.000 A 
ATOM      6  C   UNL     1      -0.731  11.067  20.016  0.00  0.00    +0.000 A 
ENDROOT
BRANCH   1   8
ATOM      7  C   UNL     1       0.516   9.521  22.991  0.00  0.00    +0.000 C 
ATOM      8  O   UNL     1       0.339  10.662  22.145  0.00  0.00    +0.000 OA
ENDBRANCH   1   8
BRANCH   3   9
ATOM      9  C   UNL     1       2.149   8.373  18.273  0.00  0.00    +0.000 C 
ATOM     10  O   UNL     1       2.668   8.699  17.205  0.00  0.00    +0.000 OA
BRANCH   9  11
ATOM     11  C   UNL     1       2.509   7.088  19.012  0.00  0.00    +0.000 C 
BRANCH  11  12
ATOM     12  O   UNL     1       1.970   5.917  18.390  0.00  0.00    +0.000 OA
BRANCH  12  13
ATOM     13  C   UNL     1       2.844   4.867  18.312  0.00  0.00    +0.000 C 
ATOM     14  O   UNL     1       4.027   4.972  18.037  0.00  0.00    +0.000 OA
BRANCH  13  15
ATOM     15  C   UNL     1       2.096   3.554  18.549  0.00  0.00    +0.000 C 
ATOM     16  C   UNL     1       3.043   2.388  18.866  0.00  0.00    +0.000 C 
ATOM     17  C   UNL     1       3.643   2.461  20.270  0.00  0.00    +0.000 C 
ATOM     18  C   UNL     1       2.584   2.664  21.347  0.00  0.00    +0.000 C 
ATOM     19  C   UNL     1       1.656   3.833  21.031  0.00  0.00    +0.000 C 
ATOM     20  C   UNL     1       1.033   3.694  19.645  0.00  0.00    +0.000 C 
ENDBRANCH  13  15
ENDBRANCH  12  13
ENDBRANCH  11  12
ENDBRANCH   9  11
ENDBRANCH   3   9
BRANCH   5  21
ATOM     21  O   UNL     1      -1.533  11.389  17.654  0.00  0.00    +0.000 OA
ATOM     22  C   UNL     1      -2.309  10.563  16.798  0.00  0.00    +0.000 C 
ENDBRANCH   5  21
BRANCH   6  23
ATOM     23  O   UNL     1      -1.660  11.965  20.461  0.00  0.00    +0.000 OA
ATOM     24  C   UNL     1      -1.375  13.348  20.567  0.00  0.00    +0.000 C 
ENDBRANCH   6  23
TORSDOF 8
ENDMDL
MODEL 5
REMARK VINA RESULT:      -6.1      3.839      7.235
REMARK  Name = 
REMARK  11 active torsions:
REMARK  status: ('A' for Active; 'I' for Inactive)
REMARK    1  A    between atoms: C_1  and  O_2
REMARK    2  A    between atoms: O_2  and  C_3
REMARK    3  A    between atoms: C_5  and  C_6
REMARK    4  A    between atoms: C_6  and  C_8
REMARK    5  A    between atoms: C_8  and  O_9
REMARK    6  A    between atoms: O_9  and  C_10
REMARK    7  A    between atoms: C_10  and  C_12
REMARK    8  A    between atoms: C_19  and  O_20
REMARK    9  A    between atoms: O_20  and  C_21
REMARK   10  A    between atoms: C_22  and  O_23
REMARK   11  A    between atoms: O_23  and  C_24
REMARK                            x       y       z     vdW  Elec       q    Type
REMARK                         _______ _______ _______ _____ _____    ______ ____
ROOT
ATOM      1  C   UNL     1       0.947  10.006  21.387  0.00  0.00    +0.000 A 
ATOM      2  C   UNL     1       1.379   8.983  20.526  0.00  0.00    +0.000 A 
ATOM      3  C   UNL     1       1.514   9.217  19.161  0.00  0.00    +0.000 A 
ATOM      4  C   UNL     1       1.073  10.424  18.631  0.00  0.00    +0.000 A 
ATOM      5  C   UNL     1       0.535  11.420  19.461  0.00  0.00    +0.000 A 
ATOM      6  C   UNL     1       0.466  11.224  20.860  0.00  0.00    +0.000 A 
ENDROOT
BRANCH   1   8
ATOM      7  C   UNL     1      -0.230   9.393  23.346  0.00  0.00    +0.000 C 
ATOM      8  O   UNL     1       1.002   9.810  22.745  0.00  0.00    +0.000 OA
ENDBRANCH   1   8
BRANCH   3   9
ATOM      9  C   UNL     1       2.227   8.203  18.338  0.00  0.00    +0.000 C 
ATOM     10  O   UNL     1       2.485   8.452  17.161  0.00  0.00    +0.000 OA
BRANCH   9  11
ATOM     11  C   UNL     1       2.543   6.860  18.991  0.00  0.00    +0.000 C 
BRANCH  11  12
ATOM     12  O   UNL     1       3.221   5.958  18.110  0.00  0.00    +0.000 OA
BRANCH  12  13
ATOM     13  C   UNL     1       4.524   5.712  18.449  0.00  0.00    +0.000 C 
ATOM     14  O   UNL     1       4.874   5.028  19.395  0.00  0.00    +0.000 OA
BRANCH  13  15
ATOM     15  C   UNL     1       5.455   6.482  17.511  0.00  0.00    +0.000 C 
ATOM     16  C   UNL     1       6.935   6.160  17.760  0.00  0.00    +0.000 C 
ATOM     17  C   UNL     1       7.345   4.776  17.257  0.00  0.00    +0.000 C 
ATOM     18  C   UNL     1       6.928   4.533  15.811  0.00  0.00    +0.000 C 
ATOM     19  C   UNL     1       5.453   4.843  15.576  0.00  0.00    +0.000 C 
ATOM     20  C   UNL     1       5.096   6.253  16.038  0.00  0.00    +0.000 C 
ENDBRANCH  13  15
ENDBRANCH  12  13
ENDBRANCH  11  12
ENDBRANCH   9  11
ENDBRANCH   3   9
BRANCH   5  21
ATOM     21  O   UNL     1       0.171  12.523  18.726  0.00  0.00    +0.000 OA
ATOM     22  C   UNL     1       1.107  13.568  18.509  0.00  0.00    +0.000 C 
ENDBRANCH   5  21
BRANCH   6  23
ATOM     23  O   UNL     1      -0.074  12.258  21.572  0.00  0.00    +0.000 OA
ATOM     24  C   UNL     1      -1.470  12.389  21.763  0.00  0.00    +0.000 C 
ENDBRANCH   6  23
TORSDOF 8
ENDMDL
MODEL 6
REMARK VINA RESULT:      -6.1      4.661      7.632
REMARK  Name = 
REMARK  11 active torsions:
REMARK  status: ('A' for Active; 'I' for Inactive)
REMARK    1  A    between atoms: C_1  and  O_2
REMARK    2  A    between atoms: O_2  and  C_3
REMARK    3  A    between atoms: C_5  and  C_6
REMARK    4  A    between atoms: C_6  and  C_8
REMARK    5  A    between atoms: C_8  and  O_9
REMARK    6  A    between atoms: O_9  and  C_10
REMARK    7  A    between atoms: C_10  and  C_12
REMARK    8  A    between atoms: C_19  and  O_20
REMARK    9  A    between atoms: O_20  and  C_21
REMARK   10  A    between atoms: C_22  and  O_23
REMARK   11  A    between atoms: O_23  and  C_24
REMARK                            x       y       z     vdW  Elec       q    Type
REMARK                         _______ _______ _______ _____ _____    ______ ____
ROOT
ATOM      1  C   UNL     1      -0.048  11.724  20.738  0.00  0.00    +0.000 A 
ATOM      2  C   UNL     1       0.920  10.957  20.069  0.00  0.00    +0.000 A 
ATOM      3  C   UNL     1       0.625  10.350  18.852  0.00  0.00    +0.000 A 
ATOM      4  C   UNL     1      -0.680  10.380  18.375  0.00  0.00    +0.000 A 
ATOM      5  C   UNL     1      -1.690  11.050  19.086  0.00  0.00    +0.000 A 
ATOM      6  C   UNL     1      -1.385  11.738  20.283  0.00  0.00    +0.000 A 
ENDROOT
BRANCH   1   8
ATOM      7  C   UNL     1       0.814  13.776  21.540  0.00  0.00    +0.000 C 
ATOM      8  O   UNL     1       0.320  12.465  21.835  0.00  0.00    +0.000 OA
ENDBRANCH   1   8
BRANCH   3   9
ATOM      9  C   UNL     1       1.747   9.784  18.054  0.00  0.00    +0.000 C 
ATOM     10  O   UNL     1       2.569  10.543  17.543  0.00  0.00    +0.000 OA
BRANCH   9  11
ATOM     11  C   UNL     1       1.775   8.272  17.852  0.00  0.00    +0.000 C 
BRANCH  11  12
ATOM     12  O   UNL     1       2.819   7.630  18.591  0.00  0.00    +0.000 OA
BRANCH  12  13
ATOM     13  C   UNL     1       2.385   6.912  19.672  0.00  0.00    +0.000 C 
ATOM     14  O   UNL     1       1.609   7.332  20.513  0.00  0.00    +0.000 OA
BRANCH  13  15
ATOM     15  C   UNL     1       3.074   5.547  19.696  0.00  0.00    +0.000 C 
ATOM     16  C   UNL     1       2.431   4.582  20.703  0.00  0.00    +0.000 C 
ATOM     17  C   UNL     1       1.075   4.045  20.245  0.00  0.00    +0.000 C 
ATOM     18  C   UNL     1       1.122   3.472  18.834  0.00  0.00    +0.000 C 
ATOM     19  C   UNL     1       1.749   4.442  17.838  0.00  0.00    +0.000 C 
ATOM     20  C   UNL     1       3.125   4.910  18.302  0.00  0.00    +0.000 C 
ENDBRANCH  13  15
ENDBRANCH  12  13
ENDBRANCH  11  12
ENDBRANCH   9  11
ENDBRANCH   3   9
BRANCH   5  21
ATOM     21  O   UNL     1      -2.893  10.953  18.430  0.00  0.00    +0.000 OA
ATOM     22  C   UNL     1      -3.112   9.898  17.504  0.00  0.00    +0.000 C 
ENDBRANCH   5  21
BRANCH   6  23
ATOM     23  O   UNL     1      -2.442  12.355  20.891  0.00  0.00    +0.000 OA
ATOM     24  C   UNL     1      -2.763  13.710  20.642  0.00  0.00    +0.000 C 
ENDBRANCH   6  23
TORSDOF 8
ENDMDL
MODEL 7
REMARK VINA RESULT:      -6.1      3.808      7.240
REMARK  Name = 
REMARK  11 active torsions:
REMARK  status: ('A' for Active; 'I' for Inactive)
REMARK    1  A    between atoms: C_1  and  O_2
REMARK    2  A    between atoms: O_2  and  C_3
REMARK    3  A    between atoms: C_5  and  C_6
REMARK    4  A    between atoms: C_6  and  C_8
REMARK    5  A    between atoms: C_8  and  O_9
REMARK    6  A    between atoms: O_9  and  C_10
REMARK    7  A    between atoms: C_10  and  C_12
REMARK    8  A    between atoms: C_19  and  O_20
REMARK    9  A    between atoms: O_20  and  C_21
REMARK   10  A    between atoms: C_22  and  O_23
REMARK   11  A    between atoms: O_23  and  C_24
REMARK                            x       y       z     vdW  Elec       q    Type
REMARK                         _______ _______ _______ _____ _____    ______ ____
ROOT
ATOM      1  C   UNL     1       0.727  10.161  21.573  0.00  0.00    +0.000 A 
ATOM      2  C   UNL     1       1.053   8.884  21.086  0.00  0.00    +0.000 A 
ATOM      3  C   UNL     1       1.529   8.721  19.789  0.00  0.00    +0.000 A 
ATOM      4  C   UNL     1       1.537   9.810  18.925  0.00  0.00    +0.000 A 
ATOM      5  C   UNL     1       1.110  11.076  19.359  0.00  0.00    +0.000 A 
ATOM      6  C   UNL     1       0.699  11.270  20.699  0.00  0.00    +0.000 A 
ENDROOT
BRANCH   1   8
ATOM      7  C   UNL     1      -0.943  10.188  23.248  0.00  0.00    +0.000 C 
ATOM      8  O   UNL     1       0.441  10.321  22.906  0.00  0.00    +0.000 OA
ENDBRANCH   1   8
BRANCH   3   9
ATOM      9  C   UNL     1       2.115   7.407  19.411  0.00  0.00    +0.000 C 
ATOM     10  O   UNL     1       1.987   6.447  20.170  0.00  0.00    +0.000 OA
BRANCH   9  11
ATOM     11  C   UNL     1       2.916   7.338  18.114  0.00  0.00    +0.000 C 
BRANCH  11  12
ATOM     12  O   UNL     1       3.408   6.024  17.831  0.00  0.00    +0.000 OA
BRANCH  12  13
ATOM     13  C   UNL     1       4.704   5.813  18.216  0.00  0.00    +0.000 C 
ATOM     14  O   UNL     1       5.035   5.232  19.235  0.00  0.00    +0.000 OA
BRANCH  13  15
ATOM     15  C   UNL     1       5.654   6.476  17.217  0.00  0.00    +0.000 C 
ATOM     16  C   UNL     1       7.119   6.075  17.445  0.00  0.00    +0.000 C 
ATOM     17  C   UNL     1       7.429   4.645  17.004  0.00  0.00    +0.000 C 
ATOM     18  C   UNL     1       6.958   4.358  15.582  0.00  0.00    +0.000 C 
ATOM     19  C   UNL     1       5.498   4.747  15.369  0.00  0.00    +0.000 C 
ATOM     20  C   UNL     1       5.241   6.197  15.767  0.00  0.00    +0.000 C 
ENDBRANCH  13  15
ENDBRANCH  12  13
ENDBRANCH  11  12
ENDBRANCH   9  11
ENDBRANCH   3   9
BRANCH   5  21
ATOM     21  O   UNL     1       1.206  11.997  18.345  0.00  0.00    +0.000 OA
ATOM     22  C   UNL     1       2.389  12.770  18.201  0.00  0.00    +0.000 C 
ENDBRANCH   5  21
BRANCH   6  23
ATOM     23  O   UNL     1       0.306  12.540  21.014  0.00  0.00    +0.000 OA
ATOM     24  C   UNL     1      -1.035  12.969  20.865  0.00  0.00    +0.000 C 
ENDBRANCH   6  23
TORSDOF 8
ENDMDL
MODEL 8
REMARK VINA RESULT:      -6.0      3.062      5.959
REMARK  Name = 
REMARK  11 active torsions:
REMARK  status: ('A' for Active; 'I' for Inactive)
REMARK    1  A    between atoms: C_1  and  O_2
REMARK    2  A    between atoms: O_2  and  C_3
REMARK    3  A    between atoms: C_5  and  C_6
REMARK    4  A    between atoms: C_6  and  C_8
REMARK    5  A    between atoms: C_8  and  O_9
REMARK    6  A    between atoms: O_9  and  C_10
REMARK    7  A    between atoms: C_10  and  C_12
REMARK    8  A    between atoms: C_19  and  O_20
REMARK    9  A    between atoms: O_20  and  C_21
REMARK   10  A    between atoms: C_22  and  O_23
REMARK   11  A    between atoms: O_23  and  C_24
REMARK                            x       y       z     vdW  Elec       q    Type
REMARK                         _______ _______ _______ _____ _____    ______ ____
ROOT
ATOM      1  C   UNL     1       5.280   6.042  16.972  0.00  0.00    +0.000 A 
ATOM      2  C   UNL     1       4.255   6.650  17.715  0.00  0.00    +0.000 A 
ATOM      3  C   UNL     1       3.310   5.878  18.383  0.00  0.00    +0.000 A 
ATOM      4  C   UNL     1       3.293   4.502  18.185  0.00  0.00    +0.000 A 
ATOM      5  C   UNL     1       4.243   3.883  17.357  0.00  0.00    +0.000 A 
ATOM      6  C   UNL     1       5.258   4.649  16.737  0.00  0.00    +0.000 A 
ENDROOT
BRANCH   1   8
ATOM      7  C   UNL     1       7.347   7.100  17.420  0.00  0.00    +0.000 C 
ATOM      8  O   UNL     1       6.305   6.812  16.482  0.00  0.00    +0.000 OA
ENDBRANCH   1   8
BRANCH   3   9
ATOM      9  C   UNL     1       2.419   6.547  19.369  0.00  0.00    +0.000 C 
ATOM     10  O   UNL     1       1.970   5.901  20.315  0.00  0.00    +0.000 OA
BRANCH   9  11
ATOM     11  C   UNL     1       2.050   8.005  19.110  0.00  0.00    +0.000 C 
BRANCH  11  12
ATOM     12  O   UNL     1       1.588   8.680  20.285  0.00  0.00    +0.000 OA
BRANCH  12  13
ATOM     13  C   UNL     1       0.505   9.492  20.079  0.00  0.00    +0.000 C 
ATOM     14  O   UNL     1      -0.403   9.645  20.878  0.00  0.00    +0.000 OA
BRANCH  13  15
ATOM     15  C   UNL     1       0.579  10.107  18.682  0.00  0.00    +0.000 C 
ATOM     16  C   UNL     1      -0.799  10.203  18.009  0.00  0.00    +0.000 C 
ATOM     17  C   UNL     1      -1.684  11.301  18.599  0.00  0.00    +0.000 C 
ATOM     18  C   UNL     1      -0.973  12.647  18.670  0.00  0.00    +0.000 C 
ATOM     19  C   UNL     1       0.388  12.546  19.351  0.00  0.00    +0.000 C 
ATOM     20  C   UNL     1       1.263  11.479  18.698  0.00  0.00    +0.000 C 
ENDBRANCH  13  15
ENDBRANCH  12  13
ENDBRANCH  11  12
ENDBRANCH   9  11
ENDBRANCH   3   9
BRANCH   5  21
ATOM     21  O   UNL     1       4.040   2.525  17.311  0.00  0.00    +0.000 OA
ATOM     22  C   UNL     1       3.421   1.866  18.406  0.00  0.00    +0.000 C 
ENDBRANCH   5  21
BRANCH   6  23
ATOM     23  O   UNL     1       6.129   3.946  15.953  0.00  0.00    +0.000 OA
ATOM     24  C   UNL     1       6.044   3.957  14.541  0.00  0.00    +0.000 C 
ENDBRANCH   6  23
TORSDOF 8
ENDMDL
MODEL 9
REMARK VINA RESULT:      -6.0      3.468      6.351
REMARK  Name = 
REMARK  11 active torsions:
REMARK  status: ('A' for Active; 'I' for Inactive)
REMARK    1  A    between atoms: C_1  and  O_2
REMARK    2  A    between atoms: O_2  and  C_3
REMARK    3  A    between atoms: C_5  and  C_6
REMARK    4  A    between atoms: C_6  and  C_8
REMARK    5  A    between atoms: C_8  and  O_9
REMARK    6  A    between atoms: O_9  and  C_10
REMARK    7  A    between atoms: C_10  and  C_12
REMARK    8  A    between atoms: C_19  and  O_20
REMARK    9  A    between atoms: O_20  and  C_21
REMARK   10  A    between atoms: C_22  and  O_23
REMARK   11  A    between atoms: O_23  and  C_24
REMARK                            x       y       z     vdW  Elec       q    Type
REMARK                         _______ _______ _______ _____ _____    ______ ____
ROOT
ATOM      1  C   UNL     1       5.290   6.279  16.833  0.00  0.00    +0.000 A 
ATOM      2  C   UNL     1       4.337   7.122  17.428  0.00  0.00    +0.000 A 
ATOM      3  C   UNL     1       3.200   6.592  18.030  0.00  0.00    +0.000 A 
ATOM      4  C   UNL     1       2.935   5.233  17.904  0.00  0.00    +0.000 A 
ATOM      5  C   UNL     1       3.822   4.388  17.217  0.00  0.00    +0.000 A 
ATOM      6  C   UNL     1       5.020   4.903  16.670  0.00  0.00    +0.000 A 
ENDROOT
BRANCH   1   8
ATOM      7  C   UNL     1       7.448   7.023  17.455  0.00  0.00    +0.000 C 
ATOM      8  O   UNL     1       6.487   6.806  16.415  0.00  0.00    +0.000 OA
ENDBRANCH   1   8
BRANCH   3   9
ATOM      9  C   UNL     1       2.367   7.486  18.878  0.00  0.00    +0.000 C 
ATOM     10  O   UNL     1       2.114   7.159  20.037  0.00  0.00    +0.000 OA
BRANCH   9  11
ATOM     11  C   UNL     1       1.803   8.748  18.230  0.00  0.00    +0.000 C 
BRANCH  11  12
ATOM     12  O   UNL     1       0.942   9.486  19.104  0.00  0.00    +0.000 OA
BRANCH  12  13
ATOM     13  C   UNL     1       0.013  10.257  18.460  0.00  0.00    +0.000 C 
ATOM     14  O   UNL     1      -0.795   9.832  17.652  0.00  0.00    +0.000 OA
BRANCH  13  15
ATOM     15  C   UNL     1       0.195  11.723  18.854  0.00  0.00    +0.000 C 
ATOM     16  C   UNL     1      -1.045  12.573  18.544  0.00  0.00    +0.000 C 
ATOM     17  C   UNL     1      -2.209  12.316  19.501  0.00  0.00    +0.000 C 
ATOM     18  C   UNL     1      -1.790  12.403  20.965  0.00  0.00    +0.000 C 
ATOM     19  C   UNL     1      -0.566  11.545  21.266  0.00  0.00    +0.000 C 
ATOM     20  C   UNL     1       0.592  11.872  20.328  0.00  0.00    +0.000 C 
ENDBRANCH  13  15
ENDBRANCH  12  13
ENDBRANCH  11  12
ENDBRANCH   9  11
ENDBRANCH   3   9
BRANCH   5  21
ATOM     21  O   UNL     1       3.363   3.093  17.222  0.00  0.00    +0.000 OA
ATOM     22  C   UNL     1       3.560   2.277  18.367  0.00  0.00    +0.000 C 
ENDBRANCH   5  21
BRANCH   6  23
ATOM     23  O   UNL     1       5.809   3.993  16.023  0.00  0.00    +0.000 OA
ATOM     24  C   UNL     1       5.942   3.983  14.614  0.00  0.00    +0.000 C 
ENDBRANCH   6  23
TORSDOF 8
ENDMDL
