MODEL 1
REMARK VINA RESULT:      -6.2      0.000      0.000
REMARK  Name = 
REMARK  6 active torsions:
REMARK  status: ('A' for Active; 'I' for Inactive)
REMARK    1  A    between atoms: C_4  and  C_5
REMARK    2  A    between atoms: C_12  and  N_13
REMARK    3  A    between atoms: C_16  and  C_17
REMARK    4  A    between atoms: C_20  and  O_21
REMARK    5  A    between atoms: N_24  and  C_25
REMARK    6  A    between atoms: C_25  and  C_26
REMARK                            x       y       z     vdW  Elec       q    Type
REMARK                         _______ _______ _______ _____ _____    ______ ____
ROOT
ATOM      1  O   UNL     1      -3.636  11.556  17.691  0.00  0.00    +0.000 OA
ATOM      2  C   UNL     1      -2.846  11.421  18.628  0.00  0.00    +0.000 C 
ATOM      3  C   UNL     1      -1.795  10.339  18.532  0.00  0.00    +0.000 C 
ATOM      4  C   UNL     1      -0.759  10.274  19.654  0.00  0.00    +0.000 C 
ATOM      5  C   UNL     1      -0.444  11.678  20.159  0.00  0.00    +0.000 C 
ATOM      6  C   UNL     1      -1.710  12.412  20.643  0.00  0.00    +0.000 C 
ATOM      7  N   UNL     1      -2.893  12.215  19.757  0.00  0.00    +0.000 N 
ENDROOT
BRANCH   4   8
ATOM      8  C   UNL     1       0.481   9.522  19.166  0.00  0.00    +0.000 A 
ATOM      9  C   UNL     1       1.237   9.984  18.072  0.00  0.00    +0.000 A 
ATOM     10  C   UNL     1       2.349   9.272  17.618  0.00  0.00    +0.000 A 
ATOM     11  C   UNL     1       2.735   8.097  18.257  0.00  0.00    +0.000 A 
ATOM     12  C   UNL     1       2.009   7.643  19.355  0.00  0.00    +0.000 A 
ATOM     13 BR   UNL     1       2.541   6.053  20.230  0.00  0.00    +0.000 Br
ATOM     14  C   UNL     1       0.890   8.345  19.811  0.00  0.00    +0.000 A 
ENDBRANCH   4   8
BRANCH   6  15
ATOM     15  C   UNL     1      -1.353  13.896  20.821  0.00  0.00    +0.000 A 
ATOM     16  C   UNL     1      -1.607  14.578  22.026  0.00  0.00    +0.000 A 
ATOM     17  C   UNL     1      -1.287  15.929  22.166  0.00  0.00    +0.000 A 
ATOM     18  C   UNL     1      -0.756  16.621  21.082  0.00  0.00    +0.000 A 
ATOM     19  C   UNL     1      -0.516  15.976  19.876  0.00  0.00    +0.000 A 
ATOM     20  C   UNL     1      -0.799  14.614  19.747  0.00  0.00    +0.000 A 
BRANCH  18  21
ATOM     21  O   UNL     1      -0.459  17.946  21.165  0.00  0.00    +0.000 OA
ATOM     22  H   UNL     1       0.096  18.096  21.945  0.00  0.00    +0.000 HD
ENDBRANCH  18  21
ENDBRANCH   6  15
BRANCH   5  23
ATOM     23  N   UNL     1       0.509  11.570  21.328  0.00  0.00    +0.000 N 
ATOM     24  O   UNL     1       0.151  10.886  22.296  0.00  0.00    +0.000 OA
ATOM     25  O   UNL     1       1.577  12.185  21.240  0.00  0.00    +0.000 OA
ENDBRANCH   5  23
BRANCH   7  26
ATOM     26  C   UNL     1      -4.039  13.129  19.898  0.00  0.00    +0.000 C 
BRANCH  26  27
ATOM     27  C   UNL     1      -5.170  12.650  20.776  0.00  0.00    +0.000 A 
ATOM     28  C   UNL     1      -6.270  11.969  20.240  0.00  0.00    +0.000 A 
ATOM     29  C   UNL     1      -7.377  11.674  21.030  0.00  0.00    +0.000 A 
ATOM     30  C   UNL     1      -7.384  12.066  22.365  0.00  0.00    +0.000 A 
ATOM     31  N   UNL     1      -6.301  12.716  22.929  0.00  0.00    +0.000 N 
ATOM     32  O   UNL     1      -6.323  13.078  24.146  0.00  0.00    +0.000 OA
ATOM     33  C   UNL     1      -5.201  12.989  22.132  0.00  0.00    +0.000 A 
ENDBRANCH  26  27
ENDBRANCH   7  26
TORSDOF 6
ENDMDL
MODEL 2
REMARK VINA RESULT:      -6.2      0.220      1.039
REMARK  Name = 
REMARK  6 active torsions:
REMARK  status: ('A' for Active; 'I' for Inactive)
REMARK    1  A    between atoms: C_4  and  C_5
REMARK    2  A    between atoms: C_12  and  N_13
REMARK    3  A    between atoms: C_16  and  C_17
REMARK    4  A    between atoms: C_20  and  O_21
REMARK    5  A    between atoms: N_24  and  C_25
REMARK    6  A    between atoms: C_25  and  C_26
REMARK                            x       y       z     vdW  Elec       q    Type
REMARK                         _______ _______ _______ _____ _____    ______ ____
ROOT
ATOM      1  O   UNL     1      -3.598  11.462  17.748  0.00  0.00    +0.000 OA
ATOM      2  C   UNL     1      -2.773  11.375  18.662  0.00  0.00    +0.000 C 
ATOM      3  C   UNL     1      -1.733  10.281  18.590  0.00  0.00    +0.000 C 
ATOM      4  C   UNL     1      -0.656  10.274  19.675  0.00  0.00    +0.000 C 
ATOM      5  C   UNL     1      -0.313  11.703  20.084  0.00  0.00    +0.000 C 
ATOM      6  C   UNL     1      -1.556  12.474  20.571  0.00  0.00    +0.000 C 
ATOM      7  N   UNL     1      -2.773  12.235  19.743  0.00  0.00    +0.000 N 
ENDROOT
BRANCH   4   8
ATOM      8  C   UNL     1       0.560   9.484  19.186  0.00  0.00    +0.000 A 
ATOM      9  C   UNL     1       1.328   9.921  18.090  0.00  0.00    +0.000 A 
ATOM     10  C   UNL     1       2.418   9.176  17.635  0.00  0.00    +0.000 A 
ATOM     11  C   UNL     1       2.770   7.991  18.276  0.00  0.00    +0.000 A 
ATOM     12  C   UNL     1       2.033   7.561  19.376  0.00  0.00    +0.000 A 
ATOM     13 BR   UNL     1       2.519   5.958  20.254  0.00  0.00    +0.000 Br
ATOM     14  C   UNL     1       0.936   8.297  19.833  0.00  0.00    +0.000 A 
ENDBRANCH   4   8
BRANCH   6  15
ATOM     15  C   UNL     1      -1.184  13.963  20.647  0.00  0.00    +0.000 A 
ATOM     16  C   UNL     1      -0.655  14.650  19.537  0.00  0.00    +0.000 A 
ATOM     17  C   UNL     1      -0.311  16.000  19.629  0.00  0.00    +0.000 A 
ATOM     18  C   UNL     1      -0.448  16.659  20.846  0.00  0.00    +0.000 A 
ATOM     19  C   UNL     1      -0.947  15.997  21.960  0.00  0.00    +0.000 A 
ATOM     20  C   UNL     1      -1.329  14.658  21.860  0.00  0.00    +0.000 A 
BRANCH  18  21
ATOM     21  O   UNL     1      -0.096  17.966  20.987  0.00  0.00    +0.000 OA
ATOM     22  H   UNL     1       0.864  18.022  21.111  0.00  0.00    +0.000 HD
ENDBRANCH  18  21
ENDBRANCH   6  15
BRANCH   5  23
ATOM     23  N   UNL     1       0.682  11.655  21.221  0.00  0.00    +0.000 N 
ATOM     24  O   UNL     1       1.746  12.273  21.076  0.00  0.00    +0.000 OA
ATOM     25  O   UNL     1       0.368  10.990  22.214  0.00  0.00    +0.000 OA
ENDBRANCH   5  23
BRANCH   7  26
ATOM     26  C   UNL     1      -3.907  13.165  19.872  0.00  0.00    +0.000 C 
BRANCH  26  27
ATOM     27  C   UNL     1      -5.027  12.727  20.785  0.00  0.00    +0.000 A 
ATOM     28  C   UNL     1      -6.160  12.074  20.287  0.00  0.00    +0.000 A 
ATOM     29  C   UNL     1      -7.254  11.819  21.109  0.00  0.00    +0.000 A 
ATOM     30  C   UNL     1      -7.213  12.223  22.440  0.00  0.00    +0.000 A 
ATOM     31  N   UNL     1      -6.097  12.848  22.968  0.00  0.00    +0.000 N 
ATOM     32  O   UNL     1      -6.075  13.222  24.180  0.00  0.00    +0.000 OA
ATOM     33  C   UNL     1      -5.011  13.080  22.138  0.00  0.00    +0.000 A 
ENDBRANCH  26  27
ENDBRANCH   7  26
TORSDOF 6
ENDMDL
MODEL 3
REMARK VINA RESULT:      -6.2      4.577     10.217
REMARK  Name = 
REMARK  6 active torsions:
REMARK  status: ('A' for Active; 'I' for Inactive)
REMARK    1  A    between atoms: C_4  and  C_5
REMARK    2  A    between atoms: C_12  and  N_13
REMARK    3  A    between atoms: C_16  and  C_17
REMARK    4  A    between atoms: C_20  and  O_21
REMARK    5  A    between atoms: N_24  and  C_25
REMARK    6  A    between atoms: C_25  and  C_26
REMARK                            x       y       z     vdW  Elec       q    Type
REMARK                         _______ _______ _______ _____ _____    ______ ____
ROOT
ATOM      1  O   UNL     1       3.331   8.112  16.237  0.00  0.00    +0.000 OA
ATOM      2  C   UNL     1       2.942   8.139  17.408  0.00  0.00    +0.000 C 
ATOM      3  C   UNL     1       2.091   9.304  17.857  0.00  0.00    +0.000 C 
ATOM      4  C   UNL     1       1.528   9.248  19.277  0.00  0.00    +0.000 C 
ATOM      5  C   UNL     1       1.208   7.806  19.658  0.00  0.00    +0.000 C 
ATOM      6  C   UNL     1       2.444   6.892  19.537  0.00  0.00    +0.000 C 
ATOM      7  N   UNL     1       3.262   7.149  18.318  0.00  0.00    +0.000 N 
ENDROOT
BRANCH   4   8
ATOM      8  C   UNL     1       0.319  10.178  19.387  0.00  0.00    +0.000 A 
ATOM      9  C   UNL     1       0.221  11.138  20.412  0.00  0.00    +0.000 A 
ATOM     10  C   UNL     1      -0.902  11.961  20.519  0.00  0.00    +0.000 A 
ATOM     11  C   UNL     1      -1.939  11.851  19.597  0.00  0.00    +0.000 A 
ATOM     12  C   UNL     1      -1.843  10.921  18.565  0.00  0.00    +0.000 A 
ATOM     13 BR   UNL     1      -3.247  10.780  17.305  0.00  0.00    +0.000 Br
ATOM     14  C   UNL     1      -0.726  10.088  18.455  0.00  0.00    +0.000 A 
ENDBRANCH   4   8
BRANCH   6  15
ATOM     15  C   UNL     1       1.961   5.436  19.621  0.00  0.00    +0.000 A 
ATOM     16  C   UNL     1       1.971   4.724  20.835  0.00  0.00    +0.000 A 
ATOM     17  C   UNL     1       1.539   3.397  20.890  0.00  0.00    +0.000 A 
ATOM     18  C   UNL     1       1.141   2.759  19.720  0.00  0.00    +0.000 A 
ATOM     19  C   UNL     1       1.143   3.434  18.507  0.00  0.00    +0.000 A 
ATOM     20  C   UNL     1       1.536   4.773  18.457  0.00  0.00    +0.000 A 
BRANCH  18  21
ATOM     21  O   UNL     1       0.743   1.458  19.724  0.00  0.00    +0.000 OA
ATOM     22  H   UNL     1       0.023   1.347  19.085  0.00  0.00    +0.000 HD
ENDBRANCH  18  21
ENDBRANCH   6  15
BRANCH   5  23
ATOM     23  N   UNL     1       0.746   7.777  21.097  0.00  0.00    +0.000 N 
ATOM     24  O   UNL     1      -0.411   7.396  21.319  0.00  0.00    +0.000 OA
ATOM     25  O   UNL     1       1.555   8.151  21.954  0.00  0.00    +0.000 OA
ENDBRANCH   5  23
BRANCH   7  26
ATOM     26  C   UNL     1       4.242   6.132  17.899  0.00  0.00    +0.000 C 
BRANCH  26  27
ATOM     27  C   UNL     1       5.680   6.397  18.275  0.00  0.00    +0.000 A 
ATOM     28  C   UNL     1       6.497   7.224  17.494  0.00  0.00    +0.000 A 
ATOM     29  C   UNL     1       7.859   7.333  17.759  0.00  0.00    +0.000 A 
ATOM     30  C   UNL     1       8.407   6.607  18.812  0.00  0.00    +0.000 A 
ATOM     31  N   UNL     1       7.620   5.803  19.617  0.00  0.00    +0.000 N 
ATOM     32  O   UNL     1       8.133   5.138  20.569  0.00  0.00    +0.000 OA
ATOM     33  C   UNL     1       6.264   5.718  19.348  0.00  0.00    +0.000 A 
ENDBRANCH  26  27
ENDBRANCH   7  26
TORSDOF 6
ENDMDL
MODEL 4
REMARK VINA RESULT:      -6.1      1.336      1.805
REMARK  Name = 
REMARK  6 active torsions:
REMARK  status: ('A' for Active; 'I' for Inactive)
REMARK    1  A    between atoms: C_4  and  C_5
REMARK    2  A    between atoms: C_12  and  N_13
REMARK    3  A    between atoms: C_16  and  C_17
REMARK    4  A    between atoms: C_20  and  O_21
REMARK    5  A    between atoms: N_24  and  C_25
REMARK    6  A    between atoms: C_25  and  C_26
REMARK                            x       y       z     vdW  Elec       q    Type
REMARK                         _______ _______ _______ _____ _____    ______ ____
ROOT
ATOM      1  O   UNL     1      -3.498  11.480  17.961  0.00  0.00    +0.000 OA
ATOM      2  C   UNL     1      -2.599  11.437  18.805  0.00  0.00    +0.000 C 
ATOM      3  C   UNL     1      -1.618  10.288  18.750  0.00  0.00    +0.000 C 
ATOM      4  C   UNL     1      -0.449  10.326  19.735  0.00  0.00    +0.000 C 
ATOM      5  C   UNL     1      -0.010  11.767  19.973  0.00  0.00    +0.000 C 
ATOM      6  C   UNL     1      -1.170  12.643  20.488  0.00  0.00    +0.000 C 
ATOM      7  N   UNL     1      -2.465  12.391  19.794  0.00  0.00    +0.000 N 
ENDROOT
BRANCH   4   8
ATOM      8  C   UNL     1       0.683   9.434  19.222  0.00  0.00    +0.000 A 
ATOM      9  C   UNL     1       1.415   9.765  18.066  0.00  0.00    +0.000 A 
ATOM     10  C   UNL     1       2.426   8.927  17.592  0.00  0.00    +0.000 A 
ATOM     11  C   UNL     1       2.735   7.753  18.272  0.00  0.00    +0.000 A 
ATOM     12  C   UNL     1       2.035   7.426  19.430  0.00  0.00    +0.000 A 
ATOM     13 BR   UNL     1       2.463   5.836  20.360  0.00  0.00    +0.000 Br
ATOM     14  C   UNL     1       1.016   8.255  19.907  0.00  0.00    +0.000 A 
ENDBRANCH   4   8
BRANCH   6  15
ATOM     15  C   UNL     1      -0.728  14.112  20.388  0.00  0.00    +0.000 A 
ATOM     16  C   UNL     1      -0.404  14.703  19.152  0.00  0.00    +0.000 A 
ATOM     17  C   UNL     1       0.006  16.036  19.082  0.00  0.00    +0.000 A 
ATOM     18  C   UNL     1       0.143  16.771  20.255  0.00  0.00    +0.000 A 
ATOM     19  C   UNL     1      -0.150  16.203  21.487  0.00  0.00    +0.000 A 
ATOM     20  C   UNL     1      -0.599  14.883  21.556  0.00  0.00    +0.000 A 
BRANCH  18  21
ATOM     21  O   UNL     1       0.570  18.063  20.235  0.00  0.00    +0.000 OA
ATOM     22  H   UNL     1      -0.142  18.635  20.559  0.00  0.00    +0.000 HD
ENDBRANCH  18  21
ENDBRANCH   6  15
BRANCH   5  23
ATOM     23  N   UNL     1       1.081  11.774  21.020  0.00  0.00    +0.000 N 
ATOM     24  O   UNL     1       0.905  11.085  22.034  0.00  0.00    +0.000 OA
ATOM     25  O   UNL     1       2.070  12.481  20.795  0.00  0.00    +0.000 OA
ENDBRANCH   5  23
BRANCH   7  26
ATOM     26  C   UNL     1      -3.542  13.386  19.929  0.00  0.00    +0.000 C 
BRANCH  26  27
ATOM     27  C   UNL     1      -4.011  13.674  21.336  0.00  0.00    +0.000 A 
ATOM     28  C   UNL     1      -4.200  14.986  21.787  0.00  0.00    +0.000 A 
ATOM     29  C   UNL     1      -4.476  15.244  23.126  0.00  0.00    +0.000 A 
ATOM     30  C   UNL     1      -4.562  14.181  24.020  0.00  0.00    +0.000 A 
ATOM     31  N   UNL     1      -4.407  12.873  23.599  0.00  0.00    +0.000 N 
ATOM     32  O   UNL     1      -4.477  11.912  24.425  0.00  0.00    +0.000 OA
ATOM     33  C   UNL     1      -4.147  12.633  22.259  0.00  0.00    +0.000 A 
ENDBRANCH  26  27
ENDBRANCH   7  26
TORSDOF 6
ENDMDL
MODEL 5
REMARK VINA RESULT:      -6.0      0.905      1.176
REMARK  Name = 
REMARK  6 active torsions:
REMARK  status: ('A' for Active; 'I' for Inactive)
REMARK    1  A    between atoms: C_4  and  C_5
REMARK    2  A    between atoms: C_12  and  N_13
REMARK    3  A    between atoms: C_16  and  C_17
REMARK    4  A    between atoms: C_20  and  O_21
REMARK    5  A    between atoms: N_24  and  C_25
REMARK    6  A    between atoms: C_25  and  C_26
REMARK                            x       y       z     vdW  Elec       q    Type
REMARK                         _______ _______ _______ _____ _____    ______ ____
ROOT
ATOM      1  O   UNL     1      -3.594  11.623  17.699  0.00  0.00    +0.000 OA
ATOM      2  C   UNL     1      -2.785  11.528  18.626  0.00  0.00    +0.000 C 
ATOM      3  C   UNL     1      -1.788  10.393  18.595  0.00  0.00    +0.000 C 
ATOM      4  C   UNL     1      -0.726  10.371  19.694  0.00  0.00    +0.000 C 
ATOM      5  C   UNL     1      -0.333  11.795  20.072  0.00  0.00    +0.000 C 
ATOM      6  C   UNL     1      -1.551  12.626  20.523  0.00  0.00    +0.000 C 
ATOM      7  N   UNL     1      -2.765  12.413  19.685  0.00  0.00    +0.000 N 
ENDROOT
BRANCH   4   8
ATOM      8  C   UNL     1       0.464   9.523  19.241  0.00  0.00    +0.000 A 
ATOM      9  C   UNL     1       1.227   9.871  18.110  0.00  0.00    +0.000 A 
ATOM     10  C   UNL     1       2.292   9.073  17.690  0.00  0.00    +0.000 A 
ATOM     11  C   UNL     1       2.626   7.923  18.400  0.00  0.00    +0.000 A 
ATOM     12  C   UNL     1       1.894   7.581  19.534  0.00  0.00    +0.000 A 
ATOM     13 BR   UNL     1       2.355   6.025  20.506  0.00  0.00    +0.000 Br
ATOM     14  C   UNL     1       0.821   8.370  19.957  0.00  0.00    +0.000 A 
ENDBRANCH   4   8
BRANCH   6  15
ATOM     15  C   UNL     1      -1.122  14.101  20.568  0.00  0.00    +0.000 A 
ATOM     16  C   UNL     1      -1.320  14.893  21.715  0.00  0.00    +0.000 A 
ATOM     17  C   UNL     1      -0.934  16.235  21.734  0.00  0.00    +0.000 A 
ATOM     18  C   UNL     1      -0.393  16.806  20.587  0.00  0.00    +0.000 A 
ATOM     19  C   UNL     1      -0.208  16.051  19.437  0.00  0.00    +0.000 A 
ATOM     20  C   UNL     1      -0.556  14.699  19.429  0.00  0.00    +0.000 A 
BRANCH  18  21
ATOM     21  O   UNL     1      -0.033  18.118  20.552  0.00  0.00    +0.000 OA
ATOM     22  H   UNL     1      -0.048  18.473  21.454  0.00  0.00    +0.000 HD
ENDBRANCH  18  21
ENDBRANCH   6  15
BRANCH   5  23
ATOM     23  N   UNL     1       0.645  11.738  21.224  0.00  0.00    +0.000 N 
ATOM     24  O   UNL     1       0.274  11.175  22.262  0.00  0.00    +0.000 OA
ATOM     25  O   UNL     1       1.747  12.270  21.051  0.00  0.00    +0.000 OA
ENDBRANCH   5  23
BRANCH   7  26
ATOM     26  C   UNL     1      -3.864  13.390  19.776  0.00  0.00    +0.000 C 
BRANCH  26  27
ATOM     27  C   UNL     1      -4.931  13.099  20.805  0.00  0.00    +0.000 A 
ATOM     28  C   UNL     1      -4.782  13.494  22.140  0.00  0.00    +0.000 A 
ATOM     29  C   UNL     1      -5.693  13.082  23.108  0.00  0.00    +0.000 A 
ATOM     30  C   UNL     1      -6.759  12.268  22.738  0.00  0.00    +0.000 A 
ATOM     31  N   UNL     1      -6.946  11.884  21.422  0.00  0.00    +0.000 N 
ATOM     32  O   UNL     1      -7.915  11.132  21.097  0.00  0.00    +0.000 OA
ATOM     33  C   UNL     1      -6.038  12.314  20.468  0.00  0.00    +0.000 A 
ENDBRANCH  26  27
ENDBRANCH   7  26
TORSDOF 6
ENDMDL
MODEL 6
REMARK VINA RESULT:      -6.0      4.552     10.224
REMARK  Name = 
REMARK  6 active torsions:
REMARK  status: ('A' for Active; 'I' for Inactive)
REMARK    1  A    between atoms: C_4  and  C_5
REMARK    2  A    between atoms: C_12  and  N_13
REMARK    3  A    between atoms: C_16  and  C_17
REMARK    4  A    between atoms: C_20  and  O_21
REMARK    5  A    between atoms: N_24  and  C_25
REMARK    6  A    between atoms: C_25  and  C_26
REMARK                            x       y       z     vdW  Elec       q    Type
REMARK                         _______ _______ _______ _____ _____    ______ ____
ROOT
ATOM      1  O   UNL     1       3.396   7.885  16.116  0.00  0.00    +0.000 OA
ATOM      2  C   UNL     1       3.058   7.988  17.298  0.00  0.00    +0.000 C 
ATOM      3  C   UNL     1       2.271   9.208  17.717  0.00  0.00    +0.000 C 
ATOM      4  C   UNL     1       1.767   9.249  19.159  0.00  0.00    +0.000 C 
ATOM      5  C   UNL     1       1.408   7.843  19.630  0.00  0.00    +0.000 C 
ATOM      6  C   UNL     1       2.602   6.875  19.509  0.00  0.00    +0.000 C 
ATOM      7  N   UNL     1       3.378   7.035  18.246  0.00  0.00    +0.000 N 
ENDROOT
BRANCH   4   8
ATOM      8  C   UNL     1       0.599  10.232  19.268  0.00  0.00    +0.000 A 
ATOM      9  C   UNL     1       0.590  11.259  20.231  0.00  0.00    +0.000 A 
ATOM     10  C   UNL     1      -0.495  12.130  20.339  0.00  0.00    +0.000 A 
ATOM     11  C   UNL     1      -1.582  12.004  19.478  0.00  0.00    +0.000 A 
ATOM     12  C   UNL     1      -1.573  11.007  18.505  0.00  0.00    +0.000 A 
ATOM     13 BR   UNL     1      -3.044  10.842  17.328  0.00  0.00    +0.000 Br
ATOM     14  C   UNL     1      -0.494  10.125  18.396  0.00  0.00    +0.000 A 
ENDBRANCH   4   8
BRANCH   6  15
ATOM     15  C   UNL     1       2.067   5.446  19.690  0.00  0.00    +0.000 A 
ATOM     16  C   UNL     1       2.121   4.790  20.935  0.00  0.00    +0.000 A 
ATOM     17  C   UNL     1       1.641   3.487  21.079  0.00  0.00    +0.000 A 
ATOM     18  C   UNL     1       1.150   2.814  19.965  0.00  0.00    +0.000 A 
ATOM     19  C   UNL     1       1.107   3.432  18.723  0.00  0.00    +0.000 A 
ATOM     20  C   UNL     1       1.549   4.749  18.585  0.00  0.00    +0.000 A 
BRANCH  18  21
ATOM     21  O   UNL     1       0.702   1.532  20.054  0.00  0.00    +0.000 OA
ATOM     22  H   UNL     1       0.046   1.378  19.358  0.00  0.00    +0.000 HD
ENDBRANCH  18  21
ENDBRANCH   6  15
BRANCH   5  23
ATOM     23  N   UNL     1       1.006   7.908  21.086  0.00  0.00    +0.000 N 
ATOM     24  O   UNL     1      -0.160   7.604  21.371  0.00  0.00    +0.000 OA
ATOM     25  O   UNL     1       1.869   8.275  21.891  0.00  0.00    +0.000 OA
ENDBRANCH   5  23
BRANCH   7  26
ATOM     26  C   UNL     1       4.299   5.959  17.844  0.00  0.00    +0.000 C 
BRANCH  26  27
ATOM     27  C   UNL     1       5.765   6.200  18.114  0.00  0.00    +0.000 A 
ATOM     28  C   UNL     1       6.453   5.477  19.095  0.00  0.00    +0.000 A 
ATOM     29  C   UNL     1       7.757   5.817  19.445  0.00  0.00    +0.000 A 
ATOM     30  C   UNL     1       8.374   6.890  18.810  0.00  0.00    +0.000 A 
ATOM     31  N   UNL     1       7.728   7.606  17.818  0.00  0.00    +0.000 N 
ATOM     32  O   UNL     1       8.297   8.590  17.253  0.00  0.00    +0.000 OA
ATOM     33  C   UNL     1       6.436   7.245  17.472  0.00  0.00    +0.000 A 
ENDBRANCH  26  27
ENDBRANCH   7  26
TORSDOF 6
ENDMDL
MODEL 7
REMARK VINA RESULT:      -6.0      4.583     10.222
REMARK  Name = 
REMARK  6 active torsions:
REMARK  status: ('A' for Active; 'I' for Inactive)
REMARK    1  A    between atoms: C_4  and  C_5
REMARK    2  A    between atoms: C_12  and  N_13
REMARK    3  A    between atoms: C_16  and  C_17
REMARK    4  A    between atoms: C_20  and  O_21
REMARK    5  A    between atoms: N_24  and  C_25
REMARK    6  A    between atoms: C_25  and  C_26
REMARK                            x       y       z     vdW  Elec       q    Type
REMARK                         _______ _______ _______ _____ _____    ______ ____
ROOT
ATOM      1  O   UNL     1       3.300   8.126  16.232  0.00  0.00    +0.000 OA
ATOM      2  C   UNL     1       2.925   8.144  17.408  0.00  0.00    +0.000 C 
ATOM      3  C   UNL     1       2.076   9.305  17.873  0.00  0.00    +0.000 C 
ATOM      4  C   UNL     1       1.529   9.238  19.299  0.00  0.00    +0.000 C 
ATOM      5  C   UNL     1       1.217   7.793  19.675  0.00  0.00    +0.000 C 
ATOM      6  C   UNL     1       2.454   6.884  19.534  0.00  0.00    +0.000 C 
ATOM      7  N   UNL     1       3.257   7.150  18.307  0.00  0.00    +0.000 N 
ENDROOT
BRANCH   4   8
ATOM      8  C   UNL     1       0.319  10.164  19.429  0.00  0.00    +0.000 A 
ATOM      9  C   UNL     1      -0.703  10.180  18.461  0.00  0.00    +0.000 A 
ATOM     10  C   UNL     1      -1.788  11.051  18.576  0.00  0.00    +0.000 A 
ATOM     11  C   UNL     1      -1.881  11.910  19.667  0.00  0.00    +0.000 A 
ATOM     12  C   UNL     1      -0.889  11.887  20.644  0.00  0.00    +0.000 A 
ATOM     13 BR   UNL     1      -1.022  13.046  22.133  0.00  0.00    +0.000 Br
ATOM     14  C   UNL     1       0.204  11.024  20.532  0.00  0.00    +0.000 A 
ENDBRANCH   4   8
BRANCH   6  15
ATOM     15  C   UNL     1       1.975   5.425  19.614  0.00  0.00    +0.000 A 
ATOM     16  C   UNL     1       1.998   4.707  20.824  0.00  0.00    +0.000 A 
ATOM     17  C   UNL     1       1.570   3.378  20.877  0.00  0.00    +0.000 A 
ATOM     18  C   UNL     1       1.163   2.746  19.706  0.00  0.00    +0.000 A 
ATOM     19  C   UNL     1       1.152   3.428  18.497  0.00  0.00    +0.000 A 
ATOM     20  C   UNL     1       1.541   4.768  18.450  0.00  0.00    +0.000 A 
BRANCH  18  21
ATOM     21  O   UNL     1       0.768   1.443  19.707  0.00  0.00    +0.000 OA
ATOM     22  H   UNL     1       0.453   1.209  18.821  0.00  0.00    +0.000 HD
ENDBRANCH  18  21
ENDBRANCH   6  15
BRANCH   5  23
ATOM     23  N   UNL     1       0.771   7.755  21.119  0.00  0.00    +0.000 N 
ATOM     24  O   UNL     1       1.597   8.082  21.982  0.00  0.00    +0.000 OA
ATOM     25  O   UNL     1      -0.388   7.385  21.338  0.00  0.00    +0.000 OA
ENDBRANCH   5  23
BRANCH   7  26
ATOM     26  C   UNL     1       4.234   6.138  17.871  0.00  0.00    +0.000 C 
BRANCH  26  27
ATOM     27  C   UNL     1       5.673   6.393  18.250  0.00  0.00    +0.000 A 
ATOM     28  C   UNL     1       6.501   7.204  17.464  0.00  0.00    +0.000 A 
ATOM     29  C   UNL     1       7.863   7.303  17.733  0.00  0.00    +0.000 A 
ATOM     30  C   UNL     1       8.400   6.584  18.797  0.00  0.00    +0.000 A 
ATOM     31  N   UNL     1       7.602   5.796  19.607  0.00  0.00    +0.000 N 
ATOM     32  O   UNL     1       8.105   5.137  20.568  0.00  0.00    +0.000 OA
ATOM     33  C   UNL     1       6.246   5.720  19.333  0.00  0.00    +0.000 A 
ENDBRANCH  26  27
ENDBRANCH   7  26
TORSDOF 6
ENDMDL
MODEL 8
REMARK VINA RESULT:      -6.0      1.365      1.736
REMARK  Name = 
REMARK  6 active torsions:
REMARK  status: ('A' for Active; 'I' for Inactive)
REMARK    1  A    between atoms: C_4  and  C_5
REMARK    2  A    between atoms: C_12  and  N_13
REMARK    3  A    between atoms: C_16  and  C_17
REMARK    4  A    between atoms: C_20  and  O_21
REMARK    5  A    between atoms: N_24  and  C_25
REMARK    6  A    between atoms: C_25  and  C_26
REMARK                            x       y       z     vdW  Elec       q    Type
REMARK                         _______ _______ _______ _____ _____    ______ ____
ROOT
ATOM      1  O   UNL     1      -3.466  11.582  18.027  0.00  0.00    +0.000 OA
ATOM      2  C   UNL     1      -2.561  11.517  18.863  0.00  0.00    +0.000 C 
ATOM      3  C   UNL     1      -1.590  10.361  18.782  0.00  0.00    +0.000 C 
ATOM      4  C   UNL     1      -0.412  10.374  19.757  0.00  0.00    +0.000 C 
ATOM      5  C   UNL     1       0.041  11.807  20.014  0.00  0.00    +0.000 C 
ATOM      6  C   UNL     1      -1.106  12.684  20.552  0.00  0.00    +0.000 C 
ATOM      7  N   UNL     1      -2.409  12.455  19.866  0.00  0.00    +0.000 N 
ENDROOT
BRANCH   4   8
ATOM      8  C   UNL     1       0.707   9.480  19.221  0.00  0.00    +0.000 A 
ATOM      9  C   UNL     1       1.432   9.823  18.064  0.00  0.00    +0.000 A 
ATOM     10  C   UNL     1       2.432   8.984  17.568  0.00  0.00    +0.000 A 
ATOM     11  C   UNL     1       2.737   7.796  18.226  0.00  0.00    +0.000 A 
ATOM     12  C   UNL     1       2.043   7.457  19.385  0.00  0.00    +0.000 A 
ATOM     13 BR   UNL     1       2.466   5.849  20.287  0.00  0.00    +0.000 Br
ATOM     14  C   UNL     1       1.036   8.288  19.884  0.00  0.00    +0.000 A 
ENDBRANCH   4   8
BRANCH   6  15
ATOM     15  C   UNL     1      -0.653  14.151  20.472  0.00  0.00    +0.000 A 
ATOM     16  C   UNL     1      -0.519  14.946  21.626  0.00  0.00    +0.000 A 
ATOM     17  C   UNL     1      -0.117  16.280  21.533  0.00  0.00    +0.000 A 
ATOM     18  C   UNL     1       0.104  16.840  20.279  0.00  0.00    +0.000 A 
ATOM     19  C   UNL     1      -0.042  16.082  19.126  0.00  0.00    +0.000 A 
ATOM     20  C   UNL     1      -0.405  14.737  19.219  0.00  0.00    +0.000 A 
BRANCH  18  21
ATOM     21  O   UNL     1       0.466  18.145  20.141  0.00  0.00    +0.000 OA
ATOM     22  H   UNL     1       0.483  18.370  19.199  0.00  0.00    +0.000 HD
ENDBRANCH  18  21
ENDBRANCH   6  15
BRANCH   5  23
ATOM     23  N   UNL     1       1.141  11.788  21.052  0.00  0.00    +0.000 N 
ATOM     24  O   UNL     1       2.119  12.522  20.862  0.00  0.00    +0.000 OA
ATOM     25  O   UNL     1       0.990  11.027  22.014  0.00  0.00    +0.000 OA
ENDBRANCH   5  23
BRANCH   7  26
ATOM     26  C   UNL     1      -3.477  13.457  20.026  0.00  0.00    +0.000 C 
BRANCH  26  27
ATOM     27  C   UNL     1      -3.935  13.722  21.440  0.00  0.00    +0.000 A 
ATOM     28  C   UNL     1      -4.063  15.027  21.931  0.00  0.00    +0.000 A 
ATOM     29  C   UNL     1      -4.330  15.257  23.278  0.00  0.00    +0.000 A 
ATOM     30  C   UNL     1      -4.467  14.173  24.139  0.00  0.00    +0.000 A 
ATOM     31  N   UNL     1      -4.371  12.872  23.678  0.00  0.00    +0.000 N 
ATOM     32  O   UNL     1      -4.487  11.891  24.474  0.00  0.00    +0.000 OA
ATOM     33  C   UNL     1      -4.120  12.661  22.331  0.00  0.00    +0.000 A 
ENDBRANCH  26  27
ENDBRANCH   7  26
TORSDOF 6
ENDMDL
MODEL 9
REMARK VINA RESULT:      -6.0      1.939      2.177
REMARK  Name = 
REMARK  6 active torsions:
REMARK  status: ('A' for Active; 'I' for Inactive)
REMARK    1  A    between atoms: C_4  and  C_5
REMARK    2  A    between atoms: C_12  and  N_13
REMARK    3  A    between atoms: C_16  and  C_17
REMARK    4  A    between atoms: C_20  and  O_21
REMARK    5  A    between atoms: N_24  and  C_25
REMARK    6  A    between atoms: C_25  and  C_26
REMARK                            x       y       z     vdW  Elec       q    Type
REMARK                         _______ _______ _______ _____ _____    ______ ____
ROOT
ATOM      1  O   UNL     1      -1.952  12.008  17.279  0.00  0.00    +0.000 OA
ATOM      2  C   UNL     1      -1.616  11.418  18.310  0.00  0.00    +0.000 C 
ATOM      3  C   UNL     1      -0.770  10.173  18.182  0.00  0.00    +0.000 C 
ATOM      4  C   UNL     1      -0.272   9.535  19.479  0.00  0.00    +0.000 C 
ATOM      5  C   UNL     1       0.010  10.613  20.520  0.00  0.00    +0.000 C 
ATOM      6  C   UNL     1      -1.232  11.484  20.795  0.00  0.00    +0.000 C 
ATOM      7  N   UNL     1      -1.991  11.852  19.566  0.00  0.00    +0.000 N 
ENDROOT
BRANCH   4   8
ATOM      8  C   UNL     1       0.944   8.655  19.185  0.00  0.00    +0.000 A 
ATOM      9  C   UNL     1       1.866   8.989  18.175  0.00  0.00    +0.000 A 
ATOM     10  C   UNL     1       2.956   8.162  17.896  0.00  0.00    +0.000 A 
ATOM     11  C   UNL     1       3.154   6.997  18.631  0.00  0.00    +0.000 A 
ATOM     12  C   UNL     1       2.263   6.668  19.649  0.00  0.00    +0.000 A 
ATOM     13 BR   UNL     1       2.539   5.091  20.656  0.00  0.00    +0.000 Br
ATOM     14  C   UNL     1       1.165   7.486  19.929  0.00  0.00    +0.000 A 
ENDBRANCH   4   8
BRANCH   6  15
ATOM     15  C   UNL     1      -0.773  12.716  21.591  0.00  0.00    +0.000 A 
ATOM     16  C   UNL     1      -1.441  13.131  22.759  0.00  0.00    +0.000 A 
ATOM     17  C   UNL     1      -1.017  14.260  23.463  0.00  0.00    +0.000 A 
ATOM     18  C   UNL     1       0.047  15.010  22.973  0.00  0.00    +0.000 A 
ATOM     19  C   UNL     1       0.707  14.634  21.812  0.00  0.00    +0.000 A 
ATOM     20  C   UNL     1       0.310  13.482  21.129  0.00  0.00    +0.000 A 
BRANCH  18  21
ATOM     21  O   UNL     1       0.472  16.136  23.611  0.00  0.00    +0.000 OA
ATOM     22  H   UNL     1       1.215  15.908  24.189  0.00  0.00    +0.000 HD
ENDBRANCH  18  21
ENDBRANCH   6  15
BRANCH   5  23
ATOM     23  N   UNL     1       0.407   9.942  21.816  0.00  0.00    +0.000 N 
ATOM     24  O   UNL     1       1.567  10.109  22.214  0.00  0.00    +0.000 OA
ATOM     25  O   UNL     1      -0.455   9.261  22.382  0.00  0.00    +0.000 OA
ENDBRANCH   5  23
BRANCH   7  26
ATOM     26  C   UNL     1      -2.965  12.954  19.643  0.00  0.00    +0.000 C 
BRANCH  26  27
ATOM     27  C   UNL     1      -4.389  12.565  19.957  0.00  0.00    +0.000 A 
ATOM     28  C   UNL     1      -4.968  12.860  21.197  0.00  0.00    +0.000 A 
ATOM     29  C   UNL     1      -6.222  12.358  21.534  0.00  0.00    +0.000 A 
ATOM     30  C   UNL     1      -6.899  11.552  20.624  0.00  0.00    +0.000 A 
ATOM     31  N   UNL     1      -6.364  11.265  19.381  0.00  0.00    +0.000 N 
ATOM     32  O   UNL     1      -6.985  10.520  18.563  0.00  0.00    +0.000 OA
ATOM     33  C   UNL     1      -5.121  11.785  19.056  0.00  0.00    +0.000 A 
ENDBRANCH  26  27
ENDBRANCH   7  26
TORSDOF 6
ENDMDL
