MODEL 1
REMARK VINA RESULT:      -8.0      0.000      0.000
REMARK  Name = 
REMARK  6 active torsions:
REMARK  status: ('A' for Active; 'I' for Inactive)
REMARK    1  A    between atoms: C_1  and  N_2
REMARK    2  A    between atoms: N_2  and  C_3
REMARK    3  A    between atoms: N_2  and  C_14
REMARK    4  A    between atoms: C_3  and  C_4
REMARK    5  A    between atoms: C_14  and  C_15
REMARK    6  A    between atoms: N_20  and  C_21
REMARK                            x       y       z     vdW  Elec       q    Type
REMARK                         _______ _______ _______ _____ _____    ______ ____
ROOT
ATOM      1  C   UNL     1       4.947   5.625  18.055  0.00  0.00    +0.000 C 
ENDROOT
BRANCH   1   2
ATOM      2  C   UNL     1       5.637   5.385  16.737  0.00  0.00    +0.000 A 
ATOM      3  C   UNL     1       6.896   5.920  16.485  0.00  0.00    +0.000 A 
ATOM      4  N   UNL     1       7.588   5.750  15.333  0.00  0.00    +0.000 NA
ATOM      5  C   UNL     1       7.019   5.011  14.363  0.00  0.00    +0.000 A 
ATOM      6  C   UNL     1       7.690   4.832  13.157  0.00  0.00    +0.000 A 
ATOM      7  C   UNL     1       7.137   4.081  12.116  0.00  0.00    +0.000 A 
ATOM      8  C   UNL     1       5.887   3.492  12.277  0.00  0.00    +0.000 A 
ATOM      9  C   UNL     1       5.197   3.652  13.479  0.00  0.00    +0.000 A 
ATOM     10  C   UNL     1       5.751   4.408  14.523  0.00  0.00    +0.000 A 
ATOM     11  C   UNL     1       5.070   4.597  15.738  0.00  0.00    +0.000 A 
ENDBRANCH   1   2
BRANCH   1  13
ATOM     12  C   UNL     1       3.335   7.439  17.825  0.00  0.00    +0.000 C 
ATOM     13  N   UNL     1       3.501   5.989  17.993  0.00  0.00    +0.000 NA
BRANCH  13  14
ATOM     14  C   UNL     1       2.887   5.523  19.270  0.00  0.00    +0.000 C 
BRANCH  14  15
ATOM     15  C   UNL     1       1.809   4.382  19.285  0.00  0.00    +0.000 C 
ATOM     16  C   UNL     1       1.507   3.764  17.904  0.00  0.00    +0.000 C 
ATOM     17  C   UNL     1       2.560   2.769  17.408  0.00  0.00    +0.000 C 
ATOM     18  C   UNL     1       3.011   1.796  18.493  0.00  0.00    +0.000 C 
ATOM     19  C   UNL     1       3.293   2.498  19.817  0.00  0.00    +0.000 C 
ATOM     20  N   UNL     1       2.116   3.269  20.224  0.00  0.00    +0.000 NA
ATOM     21  C   UNL     1       2.197   3.681  21.619  0.00  0.00    +0.000 C 
ENDBRANCH  14  15
ENDBRANCH  13  14
ENDBRANCH   1  13
TORSDOF 4
ENDMDL
MODEL 2
REMARK VINA RESULT:      -7.4      0.898      1.779
REMARK  Name = 
REMARK  6 active torsions:
REMARK  status: ('A' for Active; 'I' for Inactive)
REMARK    1  A    between atoms: C_1  and  N_2
REMARK    2  A    between atoms: N_2  and  C_3
REMARK    3  A    between atoms: N_2  and  C_14
REMARK    4  A    between atoms: C_3  and  C_4
REMARK    5  A    between atoms: C_14  and  C_15
REMARK    6  A    between atoms: N_20  and  C_21
REMARK                            x       y       z     vdW  Elec       q    Type
REMARK                         _______ _______ _______ _____ _____    ______ ____
ROOT
ATOM      1  C   UNL     1       4.842   5.644  17.729  0.00  0.00    +0.000 C 
ENDROOT
BRANCH   1   2
ATOM      2  C   UNL     1       5.556   5.342  16.437  0.00  0.00    +0.000 A 
ATOM      3  C   UNL     1       6.841   5.822  16.204  0.00  0.00    +0.000 A 
ATOM      4  N   UNL     1       7.555   5.593  15.077  0.00  0.00    +0.000 NA
ATOM      5  C   UNL     1       6.984   4.850  14.113  0.00  0.00    +0.000 A 
ATOM      6  C   UNL     1       7.679   4.612  12.930  0.00  0.00    +0.000 A 
ATOM      7  C   UNL     1       7.124   3.853  11.896  0.00  0.00    +0.000 A 
ATOM      8  C   UNL     1       5.849   3.316  12.038  0.00  0.00    +0.000 A 
ATOM      9  C   UNL     1       5.135   3.536  13.217  0.00  0.00    +0.000 A 
ATOM     10  C   UNL     1       5.690   4.299  14.254  0.00  0.00    +0.000 A 
ATOM     11  C   UNL     1       4.986   4.548  15.445  0.00  0.00    +0.000 A 
ENDBRANCH   1   2
BRANCH   1  13
ATOM     12  C   UNL     1       3.094   7.231  18.334  0.00  0.00    +0.000 C 
ATOM     13  N   UNL     1       3.391   5.980  17.625  0.00  0.00    +0.000 NA
BRANCH  13  14
ATOM     14  C   UNL     1       2.643   4.835  18.221  0.00  0.00    +0.000 C 
BRANCH  14  15
ATOM     15  C   UNL     1       3.291   3.928  19.327  0.00  0.00    +0.000 C 
ATOM     16  C   UNL     1       2.937   4.326  20.775  0.00  0.00    +0.000 C 
ATOM     17  C   UNL     1       1.541   3.893  21.230  0.00  0.00    +0.000 C 
ATOM     18  C   UNL     1       1.207   2.459  20.829  0.00  0.00    +0.000 C 
ATOM     19  C   UNL     1       1.584   2.162  19.382  0.00  0.00    +0.000 C 
ATOM     20  N   UNL     1       2.999   2.477  19.170  0.00  0.00    +0.000 NA
ATOM     21  C   UNL     1       3.498   1.908  17.924  0.00  0.00    +0.000 C 
ENDBRANCH  14  15
ENDBRANCH  13  14
ENDBRANCH   1  13
TORSDOF 4
ENDMDL
MODEL 3
REMARK VINA RESULT:      -7.3      0.784      1.119
REMARK  Name = 
REMARK  6 active torsions:
REMARK  status: ('A' for Active; 'I' for Inactive)
REMARK    1  A    between atoms: C_1  and  N_2
REMARK    2  A    between atoms: N_2  and  C_3
REMARK    3  A    between atoms: N_2  and  C_14
REMARK    4  A    between atoms: C_3  and  C_4
REMARK    5  A    between atoms: C_14  and  C_15
REMARK    6  A    between atoms: N_20  and  C_21
REMARK                            x       y       z     vdW  Elec       q    Type
REMARK                         _______ _______ _______ _____ _____    ______ ____
ROOT
ATOM      1  C   UNL     1       5.524   5.036  18.148  0.00  0.00    +0.000 C 
ENDROOT
BRANCH   1   2
ATOM      2  C   UNL     1       6.030   4.962  16.731  0.00  0.00    +0.000 A 
ATOM      3  C   UNL     1       7.156   5.679  16.339  0.00  0.00    +0.000 A 
ATOM      4  N   UNL     1       7.680   5.665  15.090  0.00  0.00    +0.000 NA
ATOM      5  C   UNL     1       7.070   4.906  14.162  0.00  0.00    +0.000 A 
ATOM      6  C   UNL     1       7.566   4.884  12.862  0.00  0.00    +0.000 A 
ATOM      7  C   UNL     1       6.962   4.119  11.861  0.00  0.00    +0.000 A 
ATOM      8  C   UNL     1       5.838   3.355  12.157  0.00  0.00    +0.000 A 
ATOM      9  C   UNL     1       5.325   3.356  13.455  0.00  0.00    +0.000 A 
ATOM     10  C   UNL     1       5.930   4.126  14.459  0.00  0.00    +0.000 A 
ATOM     11  C   UNL     1       5.423   4.156  15.770  0.00  0.00    +0.000 A 
ENDBRANCH   1   2
BRANCH   1  13
ATOM     12  C   UNL     1       3.706   6.646  17.939  0.00  0.00    +0.000 C 
ATOM     13  N   UNL     1       4.060   5.273  18.322  0.00  0.00    +0.000 NA
BRANCH  13  14
ATOM     14  C   UNL     1       3.753   5.020  19.759  0.00  0.00    +0.000 C 
BRANCH  14  15
ATOM     15  C   UNL     1       2.754   3.888  20.190  0.00  0.00    +0.000 C 
ATOM     16  C   UNL     1       1.347   4.000  19.567  0.00  0.00    +0.000 C 
ATOM     17  C   UNL     1       1.257   3.532  18.112  0.00  0.00    +0.000 C 
ATOM     18  C   UNL     1       1.997   2.220  17.866  0.00  0.00    +0.000 C 
ATOM     19  C   UNL     1       3.378   2.207  18.511  0.00  0.00    +0.000 C 
ATOM     20  N   UNL     1       3.254   2.509  19.939  0.00  0.00    +0.000 NA
ATOM     21  C   UNL     1       4.474   2.184  20.667  0.00  0.00    +0.000 C 
ENDBRANCH  14  15
ENDBRANCH  13  14
ENDBRANCH   1  13
TORSDOF 4
ENDMDL
MODEL 4
REMARK VINA RESULT:      -7.2      3.162      7.051
REMARK  Name = 
REMARK  6 active torsions:
REMARK  status: ('A' for Active; 'I' for Inactive)
REMARK    1  A    between atoms: C_1  and  N_2
REMARK    2  A    between atoms: N_2  and  C_3
REMARK    3  A    between atoms: N_2  and  C_14
REMARK    4  A    between atoms: C_3  and  C_4
REMARK    5  A    between atoms: C_14  and  C_15
REMARK    6  A    between atoms: N_20  and  C_21
REMARK                            x       y       z     vdW  Elec       q    Type
REMARK                         _______ _______ _______ _____ _____    ______ ____
ROOT
ATOM      1  C   UNL     1       3.269   7.289  17.576  0.00  0.00    +0.000 C 
ENDROOT
BRANCH   1   2
ATOM      2  C   UNL     1       2.340   8.136  18.407  0.00  0.00    +0.000 A 
ATOM      3  C   UNL     1       1.647   9.200  17.839  0.00  0.00    +0.000 A 
ATOM      4  N   UNL     1       0.791  10.007  18.510  0.00  0.00    +0.000 NA
ATOM      5  C   UNL     1       0.595   9.763  19.819  0.00  0.00    +0.000 A 
ATOM      6  C   UNL     1      -0.260  10.584  20.547  0.00  0.00    +0.000 A 
ATOM      7  C   UNL     1      -0.489  10.377  21.910  0.00  0.00    +0.000 A 
ATOM      8  C   UNL     1       0.146   9.328  22.567  0.00  0.00    +0.000 A 
ATOM      9  C   UNL     1       1.005   8.487  21.857  0.00  0.00    +0.000 A 
ATOM     10  C   UNL     1       1.236   8.696  20.490  0.00  0.00    +0.000 A 
ATOM     11  C   UNL     1       2.107   7.874  19.756  0.00  0.00    +0.000 A 
ENDBRANCH   1   2
BRANCH   1  13
ATOM     12  C   UNL     1       5.461   6.240  17.764  0.00  0.00    +0.000 C 
ATOM     13  N   UNL     1       4.099   6.292  18.313  0.00  0.00    +0.000 NA
BRANCH  13  14
ATOM     14  C   UNL     1       3.413   4.975  18.172  0.00  0.00    +0.000 C 
BRANCH  14  15
ATOM     15  C   UNL     1       3.392   3.939  19.351  0.00  0.00    +0.000 C 
ATOM     16  C   UNL     1       2.678   4.431  20.627  0.00  0.00    +0.000 C 
ATOM     17  C   UNL     1       1.148   4.389  20.556  0.00  0.00    +0.000 C 
ATOM     18  C   UNL     1       0.619   3.093  19.950  0.00  0.00    +0.000 C 
ATOM     19  C   UNL     1       1.380   2.692  18.691  0.00  0.00    +0.000 C 
ATOM     20  N   UNL     1       2.813   2.617  18.987  0.00  0.00    +0.000 NA
ATOM     21  C   UNL     1       3.545   1.923  17.936  0.00  0.00    +0.000 C 
ENDBRANCH  14  15
ENDBRANCH  13  14
ENDBRANCH   1  13
TORSDOF 4
ENDMDL
MODEL 5
REMARK VINA RESULT:      -7.2      0.838      1.863
REMARK  Name = 
REMARK  6 active torsions:
REMARK  status: ('A' for Active; 'I' for Inactive)
REMARK    1  A    between atoms: C_1  and  N_2
REMARK    2  A    between atoms: N_2  and  C_3
REMARK    3  A    between atoms: N_2  and  C_14
REMARK    4  A    between atoms: C_3  and  C_4
REMARK    5  A    between atoms: C_14  and  C_15
REMARK    6  A    between atoms: N_20  and  C_21
REMARK                            x       y       z     vdW  Elec       q    Type
REMARK                         _______ _______ _______ _____ _____    ______ ____
ROOT
ATOM      1  C   UNL     1       5.215   6.085  17.821  0.00  0.00    +0.000 C 
ENDROOT
BRANCH   1   2
ATOM      2  C   UNL     1       5.787   5.635  16.502  0.00  0.00    +0.000 A 
ATOM      3  C   UNL     1       7.083   5.979  16.133  0.00  0.00    +0.000 A 
ATOM      4  N   UNL     1       7.676   5.613  14.972  0.00  0.00    +0.000 NA
ATOM      5  C   UNL     1       6.962   4.865  14.112  0.00  0.00    +0.000 A 
ATOM      6  C   UNL     1       7.529   4.488  12.898  0.00  0.00    +0.000 A 
ATOM      7  C   UNL     1       6.824   3.718  11.968  0.00  0.00    +0.000 A 
ATOM      8  C   UNL     1       5.524   3.312  12.250  0.00  0.00    +0.000 A 
ATOM      9  C   UNL     1       4.935   3.672  13.463  0.00  0.00    +0.000 A 
ATOM     10  C   UNL     1       5.642   4.446  14.395  0.00  0.00    +0.000 A 
ATOM     11  C   UNL     1       5.066   4.835  15.617  0.00  0.00    +0.000 A 
ENDBRANCH   1   2
BRANCH   1  13
ATOM     12  C   UNL     1       3.012   7.015  18.293  0.00  0.00    +0.000 C 
ATOM     13  N   UNL     1       3.774   5.780  18.061  0.00  0.00    +0.000 NA
BRANCH  13  14
ATOM     14  C   UNL     1       3.718   4.883  19.251  0.00  0.00    +0.000 C 
BRANCH  14  15
ATOM     15  C   UNL     1       3.188   3.410  19.135  0.00  0.00    +0.000 C 
ATOM     16  C   UNL     1       3.541   2.502  20.331  0.00  0.00    +0.000 C 
ATOM     17  C   UNL     1       2.673   2.722  21.574  0.00  0.00    +0.000 C 
ATOM     18  C   UNL     1       1.189   2.847  21.243  0.00  0.00    +0.000 C 
ATOM     19  C   UNL     1       0.938   3.768  20.055  0.00  0.00    +0.000 C 
ATOM     20  N   UNL     1       1.721   3.309  18.905  0.00  0.00    +0.000 NA
ATOM     21  C   UNL     1       1.275   3.932  17.665  0.00  0.00    +0.000 C 
ENDBRANCH  14  15
ENDBRANCH  13  14
ENDBRANCH   1  13
TORSDOF 4
ENDMDL
MODEL 6
REMARK VINA RESULT:      -7.2      0.915      1.332
REMARK  Name = 
REMARK  6 active torsions:
REMARK  status: ('A' for Active; 'I' for Inactive)
REMARK    1  A    between atoms: C_1  and  N_2
REMARK    2  A    between atoms: N_2  and  C_3
REMARK    3  A    between atoms: N_2  and  C_14
REMARK    4  A    between atoms: C_3  and  C_4
REMARK    5  A    between atoms: C_14  and  C_15
REMARK    6  A    between atoms: N_20  and  C_21
REMARK                            x       y       z     vdW  Elec       q    Type
REMARK                         _______ _______ _______ _____ _____    ______ ____
ROOT
ATOM      1  C   UNL     1       5.186   5.871  17.640  0.00  0.00    +0.000 C 
ENDROOT
BRANCH   1   2
ATOM      2  C   UNL     1       5.796   5.476  16.320  0.00  0.00    +0.000 A 
ATOM      3  C   UNL     1       7.081   5.885  15.979  0.00  0.00    +0.000 A 
ATOM      4  N   UNL     1       7.706   5.572  14.819  0.00  0.00    +0.000 NA
ATOM      5  C   UNL     1       7.039   4.812  13.932  0.00  0.00    +0.000 A 
ATOM      6  C   UNL     1       7.639   4.487  12.719  0.00  0.00    +0.000 A 
ATOM      7  C   UNL     1       6.983   3.708  11.763  0.00  0.00    +0.000 A 
ATOM      8  C   UNL     1       5.699   3.238  12.016  0.00  0.00    +0.000 A 
ATOM      9  C   UNL     1       5.077   3.545  13.227  0.00  0.00    +0.000 A 
ATOM     10  C   UNL     1       5.735   4.328  14.187  0.00  0.00    +0.000 A 
ATOM     11  C   UNL     1       5.125   4.664  15.408  0.00  0.00    +0.000 A 
ENDBRANCH   1   2
BRANCH   1  13
ATOM     12  C   UNL     1       3.215   7.275  17.930  0.00  0.00    +0.000 C 
ATOM     13  N   UNL     1       3.695   5.906  17.700  0.00  0.00    +0.000 NA
BRANCH  13  14
ATOM     14  C   UNL     1       3.291   5.002  18.815  0.00  0.00    +0.000 C 
BRANCH  14  15
ATOM     15  C   UNL     1       1.779   4.684  19.097  0.00  0.00    +0.000 C 
ATOM     16  C   UNL     1       1.331   3.267  18.683  0.00  0.00    +0.000 C 
ATOM     17  C   UNL     1       1.749   2.159  19.654  0.00  0.00    +0.000 C 
ATOM     18  C   UNL     1       1.519   2.535  21.115  0.00  0.00    +0.000 C 
ATOM     19  C   UNL     1       2.000   3.947  21.430  0.00  0.00    +0.000 C 
ATOM     20  N   UNL     1       1.368   4.896  20.512  0.00  0.00    +0.000 NA
ATOM     21  C   UNL     1       1.519   6.272  20.968  0.00  0.00    +0.000 C 
ENDBRANCH  14  15
ENDBRANCH  13  14
ENDBRANCH   1  13
TORSDOF 4
ENDMDL
MODEL 7
REMARK VINA RESULT:      -7.1      1.393      2.227
REMARK  Name = 
REMARK  6 active torsions:
REMARK  status: ('A' for Active; 'I' for Inactive)
REMARK    1  A    between atoms: C_1  and  N_2
REMARK    2  A    between atoms: N_2  and  C_3
REMARK    3  A    between atoms: N_2  and  C_14
REMARK    4  A    between atoms: C_3  and  C_4
REMARK    5  A    between atoms: C_14  and  C_15
REMARK    6  A    between atoms: N_20  and  C_21
REMARK                            x       y       z     vdW  Elec       q    Type
REMARK                         _______ _______ _______ _____ _____    ______ ____
ROOT
ATOM      1  C   UNL     1       5.539   3.945  17.813  0.00  0.00    +0.000 C 
ENDROOT
BRANCH   1   2
ATOM      2  C   UNL     1       6.103   4.256  16.451  0.00  0.00    +0.000 A 
ATOM      3  C   UNL     1       7.060   5.252  16.286  0.00  0.00    +0.000 A 
ATOM      4  N   UNL     1       7.621   5.592  15.102  0.00  0.00    +0.000 NA
ATOM      5  C   UNL     1       7.227   4.920  14.005  0.00  0.00    +0.000 A 
ATOM      6  C   UNL     1       7.765   5.256  12.766  0.00  0.00    +0.000 A 
ATOM      7  C   UNL     1       7.381   4.593  11.598  0.00  0.00    +0.000 A 
ATOM      8  C   UNL     1       6.440   3.570  11.659  0.00  0.00    +0.000 A 
ATOM      9  C   UNL     1       5.890   3.211  12.891  0.00  0.00    +0.000 A 
ATOM     10  C   UNL     1       6.274   3.878  14.063  0.00  0.00    +0.000 A 
ATOM     11  C   UNL     1       5.723   3.546  15.314  0.00  0.00    +0.000 A 
ENDBRANCH   1   2
BRANCH   1  13
ATOM     12  C   UNL     1       6.443   5.447  19.507  0.00  0.00    +0.000 C 
ATOM     13  N   UNL     1       5.261   5.112  18.701  0.00  0.00    +0.000 NA
BRANCH  13  14
ATOM     14  C   UNL     1       4.112   4.726  19.570  0.00  0.00    +0.000 C 
BRANCH  14  15
ATOM     15  C   UNL     1       3.263   3.439  19.269  0.00  0.00    +0.000 C 
ATOM     16  C   UNL     1       3.322   2.358  20.368  0.00  0.00    +0.000 C 
ATOM     17  C   UNL     1       2.453   2.651  21.595  0.00  0.00    +0.000 C 
ATOM     18  C   UNL     1       1.062   3.157  21.227  0.00  0.00    +0.000 C 
ATOM     19  C   UNL     1       1.105   4.227  20.142  0.00  0.00    +0.000 C 
ATOM     20  N   UNL     1       1.830   3.713  18.977  0.00  0.00    +0.000 NA
ATOM     21  C   UNL     1       1.618   4.545  17.799  0.00  0.00    +0.000 C 
ENDBRANCH  14  15
ENDBRANCH  13  14
ENDBRANCH   1  13
TORSDOF 4
ENDMDL
MODEL 8
REMARK VINA RESULT:      -7.0      1.070      2.065
REMARK  Name = 
REMARK  6 active torsions:
REMARK  status: ('A' for Active; 'I' for Inactive)
REMARK    1  A    between atoms: C_1  and  N_2
REMARK    2  A    between atoms: N_2  and  C_3
REMARK    3  A    between atoms: N_2  and  C_14
REMARK    4  A    between atoms: C_3  and  C_4
REMARK    5  A    between atoms: C_14  and  C_15
REMARK    6  A    between atoms: N_20  and  C_21
REMARK                            x       y       z     vdW  Elec       q    Type
REMARK                         _______ _______ _______ _____ _____    ______ ____
ROOT
ATOM      1  C   UNL     1       5.084   6.132  17.851  0.00  0.00    +0.000 C 
ENDROOT
BRANCH   1   2
ATOM      2  C   UNL     1       5.704   5.678  16.555  0.00  0.00    +0.000 A 
ATOM      3  C   UNL     1       7.012   6.025  16.232  0.00  0.00    +0.000 A 
ATOM      4  N   UNL     1       7.647   5.656  15.095  0.00  0.00    +0.000 NA
ATOM      5  C   UNL     1       6.968   4.899  14.214  0.00  0.00    +0.000 A 
ATOM      6  C   UNL     1       7.580   4.518  13.023  0.00  0.00    +0.000 A 
ATOM      7  C   UNL     1       6.913   3.740  12.073  0.00  0.00    +0.000 A 
ATOM      8  C   UNL     1       5.606   3.328  12.311  0.00  0.00    +0.000 A 
ATOM      9  C   UNL     1       4.972   3.693  13.500  0.00  0.00    +0.000 A 
ATOM     10  C   UNL     1       5.641   4.475  14.452  0.00  0.00    +0.000 A 
ATOM     11  C   UNL     1       5.020   4.869  15.650  0.00  0.00    +0.000 A 
ENDBRANCH   1   2
BRANCH   1  13
ATOM     12  C   UNL     1       6.948   5.507  19.291  0.00  0.00    +0.000 C 
ATOM     13  N   UNL     1       5.498   5.397  19.082  0.00  0.00    +0.000 NA
BRANCH  13  14
ATOM     14  C   UNL     1       5.090   3.975  18.889  0.00  0.00    +0.000 C 
BRANCH  14  15
ATOM     15  C   UNL     1       3.790   3.404  19.558  0.00  0.00    +0.000 C 
ATOM     16  C   UNL     1       2.778   4.475  20.016  0.00  0.00    +0.000 C 
ATOM     17  C   UNL     1       1.938   5.079  18.887  0.00  0.00    +0.000 C 
ATOM     18  C   UNL     1       1.407   4.028  17.917  0.00  0.00    +0.000 C 
ATOM     19  C   UNL     1       2.479   3.020  17.516  0.00  0.00    +0.000 C 
ATOM     20  N   UNL     1       3.059   2.417  18.719  0.00  0.00    +0.000 NA
ATOM     21  C   UNL     1       3.834   1.223  18.404  0.00  0.00    +0.000 C 
ENDBRANCH  14  15
ENDBRANCH  13  14
ENDBRANCH   1  13
TORSDOF 4
ENDMDL
MODEL 9
REMARK VINA RESULT:      -7.0      1.152      1.564
REMARK  Name = 
REMARK  6 active torsions:
REMARK  status: ('A' for Active; 'I' for Inactive)
REMARK    1  A    between atoms: C_1  and  N_2
REMARK    2  A    between atoms: N_2  and  C_3
REMARK    3  A    between atoms: N_2  and  C_14
REMARK    4  A    between atoms: C_3  and  C_4
REMARK    5  A    between atoms: C_14  and  C_15
REMARK    6  A    between atoms: N_20  and  C_21
REMARK                            x       y       z     vdW  Elec       q    Type
REMARK                         _______ _______ _______ _____ _____    ______ ____
ROOT
ATOM      1  C   UNL     1       4.816   6.164  17.835  0.00  0.00    +0.000 C 
ENDROOT
BRANCH   1   2
ATOM      2  C   UNL     1       5.533   5.726  16.584  0.00  0.00    +0.000 A 
ATOM      3  C   UNL     1       6.860   6.079  16.363  0.00  0.00    +0.000 A 
ATOM      4  N   UNL     1       7.580   5.724  15.272  0.00  0.00    +0.000 NA
ATOM      5  C   UNL     1       6.970   4.976  14.335  0.00  0.00    +0.000 A 
ATOM      6  C   UNL     1       7.671   4.610  13.189  0.00  0.00    +0.000 A 
ATOM      7  C   UNL     1       7.078   3.842  12.183  0.00  0.00    +0.000 A 
ATOM      8  C   UNL     1       5.758   3.425  12.318  0.00  0.00    +0.000 A 
ATOM      9  C   UNL     1       5.036   3.774  13.460  0.00  0.00    +0.000 A 
ATOM     10  C   UNL     1       5.630   4.547  14.469  0.00  0.00    +0.000 A 
ATOM     11  C   UNL     1       4.921   4.926  15.622  0.00  0.00    +0.000 A 
ENDBRANCH   1   2
BRANCH   1  13
ATOM     12  C   UNL     1       6.442   4.757  18.984  0.00  0.00    +0.000 C 
ATOM     13  N   UNL     1       5.126   5.404  19.081  0.00  0.00    +0.000 NA
BRANCH  13  14
ATOM     14  C   UNL     1       4.043   4.392  19.247  0.00  0.00    +0.000 C 
BRANCH  14  15
ATOM     15  C   UNL     1       2.597   4.651  18.690  0.00  0.00    +0.000 C 
ATOM     16  C   UNL     1       2.084   3.578  17.707  0.00  0.00    +0.000 C 
ATOM     17  C   UNL     1       1.602   2.285  18.372  0.00  0.00    +0.000 C 
ATOM     18  C   UNL     1       0.732   2.540  19.599  0.00  0.00    +0.000 C 
ATOM     19  C   UNL     1       1.323   3.608  20.513  0.00  0.00    +0.000 C 
ATOM     20  N   UNL     1       1.564   4.832  19.746  0.00  0.00    +0.000 NA
ATOM     21  C   UNL     1       1.805   5.976  20.616  0.00  0.00    +0.000 C 
ENDBRANCH  14  15
ENDBRANCH  13  14
ENDBRANCH   1  13
TORSDOF 4
ENDMDL
