MODEL 1
REMARK VINA RESULT:      -8.2      0.000      0.000
REMARK  Name = 
REMARK  3 active torsions:
REMARK  status: ('A' for Active; 'I' for Inactive)
REMARK    1  A    between atoms: C_2  and  N_3
REMARK    2  A    between atoms: C_2  and  C_22
REMARK    3  A    between atoms: N_13  and  C_14
REMARK                            x       y       z     vdW  Elec       q    Type
REMARK                         _______ _______ _______ _____ _____    ______ ____
ROOT
ATOM      1  N   UNL     1       2.737   4.084  17.887  0.00  0.00    +0.000 NA
ATOM      2  C   UNL     1       3.808   4.761  18.131  0.00  0.00    +0.000 C 
ATOM      3  S   UNL     1       5.316   4.123  18.777  0.00  0.00    +0.000 S 
ATOM      4  C   UNL     1       6.317   5.394  17.955  0.00  0.00    +0.000 C 
ATOM      5  C   UNL     1       7.105   4.799  16.801  0.00  0.00    +0.000 C 
ATOM      6  S   UNL     1       6.179   5.138  15.337  0.00  0.00    +0.000 S 
ATOM      7  O   UNL     1       5.176   4.116  15.149  0.00  0.00    +0.000 OA
ATOM      8  O   UNL     1       7.101   5.517  14.284  0.00  0.00    +0.000 OA
ATOM      9  C   UNL     1       5.399   6.594  15.943  0.00  0.00    +0.000 C 
ATOM     10  C   UNL     1       5.336   6.487  17.468  0.00  0.00    +0.000 C 
ATOM     11  N   UNL     1       3.973   6.127  17.908  0.00  0.00    +0.000 N 
ENDROOT
BRANCH  11  12
ATOM     12  C   UNL     1       3.054   7.119  18.356  0.00  0.00    +0.000 A 
ATOM     13  C   UNL     1       2.751   8.203  17.492  0.00  0.00    +0.000 A 
ATOM     14  C   UNL     1       1.850   9.224  17.831  0.00  0.00    +0.000 A 
ATOM     15  C   UNL     1       1.218   9.203  19.060  0.00  0.00    +0.000 A 
ATOM     16 CL   UNL     1       0.130  10.454  19.504  0.00  0.00    +0.000 Cl
ATOM     17  C   UNL     1       1.469   8.164  19.941  0.00  0.00    +0.000 A 
ATOM     18  C   UNL     1       2.369   7.137  19.602  0.00  0.00    +0.000 A 
ATOM     19 CL   UNL     1       2.544   5.972  20.873  0.00  0.00    +0.000 Cl
ENDBRANCH  11  12
BRANCH   1  21
ATOM     20  O   UNL     1       3.139   1.910  17.186  0.00  0.00    +0.000 OA
ATOM     21  C   UNL     1       2.704   2.711  18.014  0.00  0.00    +0.000 C 
BRANCH  21  22
ATOM     22  C   UNL     1       1.905   2.222  19.234  0.00  0.00    +0.000 C 
ATOM     23  C   UNL     1       2.716   2.334  20.522  0.00  0.00    +0.000 C 
ATOM     24  C   UNL     1       1.662   2.579  21.568  0.00  0.00    +0.000 C 
ATOM     25  C   UNL     1       0.647   3.398  20.809  0.00  0.00    +0.000 C 
ATOM     26  O   UNL     1       0.677   2.938  19.456  0.00  0.00    +0.000 OA
ENDBRANCH  21  22
ENDBRANCH   1  21
TORSDOF 3
ENDMDL
MODEL 2
REMARK VINA RESULT:      -7.7      1.962      5.026
REMARK  Name = 
REMARK  3 active torsions:
REMARK  status: ('A' for Active; 'I' for Inactive)
REMARK    1  A    between atoms: C_2  and  N_3
REMARK    2  A    between atoms: C_2  and  C_22
REMARK    3  A    between atoms: N_13  and  C_14
REMARK                            x       y       z     vdW  Elec       q    Type
REMARK                         _______ _______ _______ _____ _____    ______ ____
ROOT
ATOM      1  N   UNL     1       4.841   5.820  18.931  0.00  0.00    +0.000 NA
ATOM      2  C   UNL     1       3.664   5.368  18.661  0.00  0.00    +0.000 C 
ATOM      3  S   UNL     1       3.293   3.964  17.666  0.00  0.00    +0.000 S 
ATOM      4  C   UNL     1       1.750   3.621  18.558  0.00  0.00    +0.000 C 
ATOM      5  C   UNL     1       1.891   2.382  19.426  0.00  0.00    +0.000 C 
ATOM      6  S   UNL     1       2.249   2.953  21.058  0.00  0.00    +0.000 S 
ATOM      7  O   UNL     1       3.669   3.182  21.192  0.00  0.00    +0.000 OA
ATOM      8  O   UNL     1       1.506   2.146  22.004  0.00  0.00    +0.000 OA
ATOM      9  C   UNL     1       1.437   4.506  20.893  0.00  0.00    +0.000 C 
ATOM     10  C   UNL     1       1.438   4.875  19.408  0.00  0.00    +0.000 C 
ATOM     11  N   UNL     1       2.463   5.902  19.128  0.00  0.00    +0.000 N 
ENDROOT
BRANCH  11  12
ATOM     12  C   UNL     1       2.125   7.282  19.044  0.00  0.00    +0.000 A 
ATOM     13  C   UNL     1       2.346   7.961  17.817  0.00  0.00    +0.000 A 
ATOM     14  C   UNL     1       2.034   9.316  17.625  0.00  0.00    +0.000 A 
ATOM     15  C   UNL     1       1.493  10.051  18.662  0.00  0.00    +0.000 A 
ATOM     16 CL   UNL     1       1.126  11.715  18.455  0.00  0.00    +0.000 Cl
ATOM     17  C   UNL     1       1.248   9.438  19.879  0.00  0.00    +0.000 A 
ATOM     18  C   UNL     1       1.555   8.079  20.074  0.00  0.00    +0.000 A 
ATOM     19 CL   UNL     1       1.194   7.548  21.684  0.00  0.00    +0.000 Cl
ENDBRANCH  11  12
BRANCH   1  21
ATOM     20  O   UNL     1       6.619   4.360  19.229  0.00  0.00    +0.000 OA
ATOM     21  C   UNL     1       5.982   5.153  18.534  0.00  0.00    +0.000 C 
BRANCH  21  22
ATOM     22  C   UNL     1       6.522   5.609  17.168  0.00  0.00    +0.000 C 
ATOM     23  C   UNL     1       6.898   4.422  16.285  0.00  0.00    +0.000 C 
ATOM     24  C   UNL     1       6.644   4.938  14.894  0.00  0.00    +0.000 C 
ATOM     25  C   UNL     1       5.457   5.845  15.105  0.00  0.00    +0.000 C 
ATOM     26  O   UNL     1       5.597   6.410  16.409  0.00  0.00    +0.000 OA
ENDBRANCH  21  22
ENDBRANCH   1  21
TORSDOF 3
ENDMDL
MODEL 3
REMARK VINA RESULT:      -7.6      2.172      5.079
REMARK  Name = 
REMARK  3 active torsions:
REMARK  status: ('A' for Active; 'I' for Inactive)
REMARK    1  A    between atoms: C_2  and  N_3
REMARK    2  A    between atoms: C_2  and  C_22
REMARK    3  A    between atoms: N_13  and  C_14
REMARK                            x       y       z     vdW  Elec       q    Type
REMARK                         _______ _______ _______ _____ _____    ______ ____
ROOT
ATOM      1  N   UNL     1       5.221   5.945  18.858  0.00  0.00    +0.000 NA
ATOM      2  C   UNL     1       4.195   5.538  18.191  0.00  0.00    +0.000 C 
ATOM      3  S   UNL     1       4.218   4.429  16.824  0.00  0.00    +0.000 S 
ATOM      4  C   UNL     1       2.549   3.812  17.174  0.00  0.00    +0.000 C 
ATOM      5  C   UNL     1       2.599   2.395  17.721  0.00  0.00    +0.000 C 
ATOM      6  S   UNL     1       2.493   2.534  19.477  0.00  0.00    +0.000 S 
ATOM      7  O   UNL     1       3.807   2.770  20.027  0.00  0.00    +0.000 OA
ATOM      8  O   UNL     1       1.627   1.483  19.973  0.00  0.00    +0.000 OA
ATOM      9  C   UNL     1       1.593   4.047  19.490  0.00  0.00    +0.000 C 
ATOM     10  C   UNL     1       1.916   4.790  18.192  0.00  0.00    +0.000 C 
ATOM     11  N   UNL     1       2.870   5.889  18.445  0.00  0.00    +0.000 N 
ENDROOT
BRANCH  11  12
ATOM     12  C   UNL     1       2.425   7.231  18.614  0.00  0.00    +0.000 A 
ATOM     13  C   UNL     1       2.630   8.152  17.553  0.00  0.00    +0.000 A 
ATOM     14  C   UNL     1       2.217   9.492  17.612  0.00  0.00    +0.000 A 
ATOM     15  C   UNL     1       1.586   9.968  18.746  0.00  0.00    +0.000 A 
ATOM     16 CL   UNL     1       1.095  11.609  18.848  0.00  0.00    +0.000 Cl
ATOM     17  C   UNL     1       1.352   9.112  19.809  0.00  0.00    +0.000 A 
ATOM     18  C   UNL     1       1.761   7.766  19.751  0.00  0.00    +0.000 A 
ATOM     19 CL   UNL     1       1.391   6.905  21.209  0.00  0.00    +0.000 Cl
ENDBRANCH  11  12
BRANCH   1  21
ATOM     20  O   UNL     1       6.906   4.360  19.025  0.00  0.00    +0.000 OA
ATOM     21  C   UNL     1       6.484   5.445  18.622  0.00  0.00    +0.000 C 
BRANCH  21  22
ATOM     22  C   UNL     1       7.426   6.445  17.930  0.00  0.00    +0.000 C 
ATOM     23  C   UNL     1       6.667   7.651  17.384  0.00  0.00    +0.000 C 
ATOM     24  C   UNL     1       7.678   8.762  17.478  0.00  0.00    +0.000 C 
ATOM     25  C   UNL     1       8.441   8.390  18.725  0.00  0.00    +0.000 C 
ATOM     26  O   UNL     1       8.462   6.963  18.785  0.00  0.00    +0.000 OA
ENDBRANCH  21  22
ENDBRANCH   1  21
TORSDOF 3
ENDMDL
MODEL 4
REMARK VINA RESULT:      -7.6      2.196      5.256
REMARK  Name = 
REMARK  3 active torsions:
REMARK  status: ('A' for Active; 'I' for Inactive)
REMARK    1  A    between atoms: C_2  and  N_3
REMARK    2  A    between atoms: C_2  and  C_22
REMARK    3  A    between atoms: N_13  and  C_14
REMARK                            x       y       z     vdW  Elec       q    Type
REMARK                         _______ _______ _______ _____ _____    ______ ____
ROOT
ATOM      1  N   UNL     1       4.853   5.758  18.955  0.00  0.00    +0.000 NA
ATOM      2  C   UNL     1       3.667   5.335  18.673  0.00  0.00    +0.000 C 
ATOM      3  S   UNL     1       3.272   3.939  17.676  0.00  0.00    +0.000 S 
ATOM      4  C   UNL     1       1.711   3.637  18.551  0.00  0.00    +0.000 C 
ATOM      5  C   UNL     1       1.810   2.397  19.423  0.00  0.00    +0.000 C 
ATOM      6  S   UNL     1       2.164   2.963  21.057  0.00  0.00    +0.000 S 
ATOM      7  O   UNL     1       3.587   3.156  21.207  0.00  0.00    +0.000 OA
ATOM      8  O   UNL     1       1.388   2.177  21.996  0.00  0.00    +0.000 OA
ATOM      9  C   UNL     1       1.394   4.536  20.880  0.00  0.00    +0.000 C 
ATOM     10  C   UNL     1       1.421   4.901  19.394  0.00  0.00    +0.000 C 
ATOM     11  N   UNL     1       2.475   5.900  19.124  0.00  0.00    +0.000 N 
ENDROOT
BRANCH  11  12
ATOM     12  C   UNL     1       2.174   7.289  19.033  0.00  0.00    +0.000 A 
ATOM     13  C   UNL     1       2.439   7.962  17.812  0.00  0.00    +0.000 A 
ATOM     14  C   UNL     1       2.165   9.324  17.614  0.00  0.00    +0.000 A 
ATOM     15  C   UNL     1       1.619  10.073  18.640  0.00  0.00    +0.000 A 
ATOM     16 CL   UNL     1       1.299  11.745  18.426  0.00  0.00    +0.000 Cl
ATOM     17  C   UNL     1       1.332   9.466  19.851  0.00  0.00    +0.000 A 
ATOM     18  C   UNL     1       1.601   8.100  20.052  0.00  0.00    +0.000 A 
ATOM     19 CL   UNL     1       1.190   7.577  21.652  0.00  0.00    +0.000 Cl
ENDBRANCH  11  12
BRANCH   1  21
ATOM     20  O   UNL     1       6.225   3.890  18.867  0.00  0.00    +0.000 OA
ATOM     21  C   UNL     1       5.980   5.061  18.574  0.00  0.00    +0.000 C 
BRANCH  21  22
ATOM     22  C   UNL     1       7.035   5.929  17.866  0.00  0.00    +0.000 C 
ATOM     23  C   UNL     1       6.427   7.214  17.310  0.00  0.00    +0.000 C 
ATOM     24  C   UNL     1       7.568   8.192  17.387  0.00  0.00    +0.000 C 
ATOM     25  C   UNL     1       8.287   7.742  18.634  0.00  0.00    +0.000 C 
ATOM     26  O   UNL     1       8.132   6.324  18.710  0.00  0.00    +0.000 OA
ENDBRANCH  21  22
ENDBRANCH   1  21
TORSDOF 3
ENDMDL
MODEL 5
REMARK VINA RESULT:      -7.3      2.106      5.225
REMARK  Name = 
REMARK  3 active torsions:
REMARK  status: ('A' for Active; 'I' for Inactive)
REMARK    1  A    between atoms: C_2  and  N_3
REMARK    2  A    between atoms: C_2  and  C_22
REMARK    3  A    between atoms: N_13  and  C_14
REMARK                            x       y       z     vdW  Elec       q    Type
REMARK                         _______ _______ _______ _____ _____    ______ ____
ROOT
ATOM      1  N   UNL     1       4.654   5.614  18.939  0.00  0.00    +0.000 NA
ATOM      2  C   UNL     1       3.442   5.189  18.815  0.00  0.00    +0.000 C 
ATOM      3  S   UNL     1       2.909   3.852  17.803  0.00  0.00    +0.000 S 
ATOM      4  C   UNL     1       1.504   3.469  18.885  0.00  0.00    +0.000 C 
ATOM      5  C   UNL     1       1.745   2.179  19.650  0.00  0.00    +0.000 C 
ATOM      6  S   UNL     1       2.342   2.647  21.243  0.00  0.00    +0.000 S 
ATOM      7  O   UNL     1       3.770   2.855  21.186  0.00  0.00    +0.000 OA
ATOM      8  O   UNL     1       1.727   1.791  22.237  0.00  0.00    +0.000 OA
ATOM      9  C   UNL     1       1.542   4.214  21.288  0.00  0.00    +0.000 C 
ATOM     10  C   UNL     1       1.337   4.672  19.843  0.00  0.00    +0.000 C 
ATOM     11  N   UNL     1       2.330   5.705  19.479  0.00  0.00    +0.000 N 
ENDROOT
BRANCH  11  12
ATOM     12  C   UNL     1       2.007   7.091  19.526  0.00  0.00    +0.000 A 
ATOM     13  C   UNL     1       1.419   7.611  20.708  0.00  0.00    +0.000 A 
ATOM     14  C   UNL     1       1.077   8.963  20.861  0.00  0.00    +0.000 A 
ATOM     15  C   UNL     1       1.303   9.852  19.828  0.00  0.00    +0.000 A 
ATOM     16 CL   UNL     1       0.870  11.505  19.986  0.00  0.00    +0.000 Cl
ATOM     17  C   UNL     1       1.883   9.401  18.653  0.00  0.00    +0.000 A 
ATOM     18  C   UNL     1       2.231   8.047  18.498  0.00  0.00    +0.000 A 
ATOM     19 CL   UNL     1       2.906   7.717  16.936  0.00  0.00    +0.000 Cl
ENDBRANCH  11  12
BRANCH   1  21
ATOM     20  O   UNL     1       6.393   4.081  18.873  0.00  0.00    +0.000 OA
ATOM     21  C   UNL     1       5.714   4.962  18.345  0.00  0.00    +0.000 C 
BRANCH  21  22
ATOM     22  C   UNL     1       6.115   5.549  16.980  0.00  0.00    +0.000 C 
ATOM     23  C   UNL     1       7.316   4.821  16.383  0.00  0.00    +0.000 C 
ATOM     24  C   UNL     1       7.084   4.938  14.900  0.00  0.00    +0.000 C 
ATOM     25  C   UNL     1       5.579   4.876  14.810  0.00  0.00    +0.000 C 
ATOM     26  O   UNL     1       5.070   5.500  15.991  0.00  0.00    +0.000 OA
ENDBRANCH  21  22
ENDBRANCH   1  21
TORSDOF 3
ENDMDL
MODEL 6
REMARK VINA RESULT:      -7.2      2.019      4.863
REMARK  Name = 
REMARK  3 active torsions:
REMARK  status: ('A' for Active; 'I' for Inactive)
REMARK    1  A    between atoms: C_2  and  N_3
REMARK    2  A    between atoms: C_2  and  C_22
REMARK    3  A    between atoms: N_13  and  C_14
REMARK                            x       y       z     vdW  Elec       q    Type
REMARK                         _______ _______ _______ _____ _____    ______ ____
ROOT
ATOM      1  N   UNL     1       4.421   5.892  17.768  0.00  0.00    +0.000 NA
ATOM      2  C   UNL     1       3.237   5.448  18.023  0.00  0.00    +0.000 C 
ATOM      3  S   UNL     1       2.486   4.024  17.312  0.00  0.00    +0.000 S 
ATOM      4  C   UNL     1       1.451   3.724  18.772  0.00  0.00    +0.000 C 
ATOM      5  C   UNL     1       1.937   2.506  19.539  0.00  0.00    +0.000 C 
ATOM      6  S   UNL     1       2.939   3.114  20.859  0.00  0.00    +0.000 S 
ATOM      7  O   UNL     1       4.287   3.328  20.387  0.00  0.00    +0.000 OA
ATOM      8  O   UNL     1       2.653   2.342  22.051  0.00  0.00    +0.000 OA
ATOM      9  C   UNL     1       2.133   4.673  21.000  0.00  0.00    +0.000 C 
ATOM     10  C   UNL     1       1.520   5.003  19.638  0.00  0.00    +0.000 C 
ATOM     11  N   UNL     1       2.338   6.009  18.930  0.00  0.00    +0.000 N 
ENDROOT
BRANCH  11  12
ATOM     12  C   UNL     1       1.997   7.391  18.953  0.00  0.00    +0.000 A 
ATOM     13  C   UNL     1       2.183   8.156  17.772  0.00  0.00    +0.000 A 
ATOM     14  C   UNL     1       1.865   9.520  17.686  0.00  0.00    +0.000 A 
ATOM     15  C   UNL     1       1.353  10.178  18.787  0.00  0.00    +0.000 A 
ATOM     16 CL   UNL     1       0.980  11.852  18.709  0.00  0.00    +0.000 Cl
ATOM     17  C   UNL     1       1.142   9.480  19.964  0.00  0.00    +0.000 A 
ATOM     18  C   UNL     1       1.456   8.111  20.053  0.00  0.00    +0.000 A 
ATOM     19 CL   UNL     1       1.139   7.466  21.630  0.00  0.00    +0.000 Cl
ENDBRANCH  11  12
BRANCH   1  21
ATOM     20  O   UNL     1       4.968   4.375  16.101  0.00  0.00    +0.000 OA
ATOM     21  C   UNL     1       5.294   5.200  16.955  0.00  0.00    +0.000 C 
BRANCH  21  22
ATOM     22  C   UNL     1       6.775   5.414  17.314  0.00  0.00    +0.000 C 
ATOM     23  C   UNL     1       7.098   6.892  17.518  0.00  0.00    +0.000 C 
ATOM     24  C   UNL     1       8.206   6.861  18.536  0.00  0.00    +0.000 C 
ATOM     25  C   UNL     1       7.826   5.670  19.381  0.00  0.00    +0.000 C 
ATOM     26  O   UNL     1       7.194   4.732  18.509  0.00  0.00    +0.000 OA
ENDBRANCH  21  22
ENDBRANCH   1  21
TORSDOF 3
ENDMDL
MODEL 7
REMARK VINA RESULT:      -7.1      6.307      8.864
REMARK  Name = 
REMARK  3 active torsions:
REMARK  status: ('A' for Active; 'I' for Inactive)
REMARK    1  A    between atoms: C_2  and  N_3
REMARK    2  A    between atoms: C_2  and  C_22
REMARK    3  A    between atoms: N_13  and  C_14
REMARK                            x       y       z     vdW  Elec       q    Type
REMARK                         _______ _______ _______ _____ _____    ______ ____
ROOT
ATOM      1  N   UNL     1      -1.721  10.826  19.133  0.00  0.00    +0.000 NA
ATOM      2  C   UNL     1      -0.644  11.507  18.929  0.00  0.00    +0.000 C 
ATOM      3  S   UNL     1      -0.525  13.018  18.036  0.00  0.00    +0.000 S 
ATOM      4  C   UNL     1       0.908  13.583  18.995  0.00  0.00    +0.000 C 
ATOM      5  C   UNL     1       0.520  14.713  19.934  0.00  0.00    +0.000 C 
ATOM      6  S   UNL     1       0.245  13.977  21.514  0.00  0.00    +0.000 S 
ATOM      7  O   UNL     1      -1.108  13.479  21.589  0.00  0.00    +0.000 OA
ATOM      8  O   UNL     1       0.805  14.844  22.532  0.00  0.00    +0.000 OA
ATOM      9  C   UNL     1       1.337  12.618  21.279  0.00  0.00    +0.000 C 
ATOM     10  C   UNL     1       1.435  12.355  19.775  0.00  0.00    +0.000 C 
ATOM     11  N   UNL     1       0.626  11.177  19.400  0.00  0.00    +0.000 N 
ENDROOT
BRANCH  11  12
ATOM     12  C   UNL     1       1.220   9.892  19.240  0.00  0.00    +0.000 A 
ATOM     13  C   UNL     1       1.813   9.569  17.992  0.00  0.00    +0.000 A 
ATOM     14  C   UNL     1       2.436   8.338  17.736  0.00  0.00    +0.000 A 
ATOM     15  C   UNL     1       2.483   7.373  18.724  0.00  0.00    +0.000 A 
ATOM     16 CL   UNL     1       3.220   5.851  18.424  0.00  0.00    +0.000 Cl
ATOM     17  C   UNL     1       1.928   7.636  19.965  0.00  0.00    +0.000 A 
ATOM     18  C   UNL     1       1.306   8.871  20.226  0.00  0.00    +0.000 A 
ATOM     19 CL   UNL     1       0.659   8.954  21.831  0.00  0.00    +0.000 Cl
ENDBRANCH  11  12
BRANCH   1  21
ATOM     20  O   UNL     1      -3.606  12.163  19.329  0.00  0.00    +0.000 OA
ATOM     21  C   UNL     1      -2.958  11.294  18.744  0.00  0.00    +0.000 C 
BRANCH  21  22
ATOM     22  C   UNL     1      -3.576  10.509  17.573  0.00  0.00    +0.000 C 
ATOM     23  C   UNL     1      -4.082  11.439  16.475  0.00  0.00    +0.000 C 
ATOM     24  C   UNL     1      -3.908  10.618  15.225  0.00  0.00    +0.000 C 
ATOM     25  C   UNL     1      -2.661   9.828  15.538  0.00  0.00    +0.000 C 
ATOM     26  O   UNL     1      -2.671   9.584  16.945  0.00  0.00    +0.000 OA
ENDBRANCH  21  22
ENDBRANCH   1  21
TORSDOF 3
ENDMDL
MODEL 8
REMARK VINA RESULT:      -7.1      2.321      5.384
REMARK  Name = 
REMARK  3 active torsions:
REMARK  status: ('A' for Active; 'I' for Inactive)
REMARK    1  A    between atoms: C_2  and  N_3
REMARK    2  A    between atoms: C_2  and  C_22
REMARK    3  A    between atoms: N_13  and  C_14
REMARK                            x       y       z     vdW  Elec       q    Type
REMARK                         _______ _______ _______ _____ _____    ______ ____
ROOT
ATOM      1  N   UNL     1       4.836   5.602  19.026  0.00  0.00    +0.000 NA
ATOM      2  C   UNL     1       3.641   5.187  18.772  0.00  0.00    +0.000 C 
ATOM      3  S   UNL     1       3.211   3.799  17.781  0.00  0.00    +0.000 S 
ATOM      4  C   UNL     1       1.672   3.502  18.694  0.00  0.00    +0.000 C 
ATOM      5  C   UNL     1       1.787   2.257  19.558  0.00  0.00    +0.000 C 
ATOM      6  S   UNL     1       2.186   2.813  21.185  0.00  0.00    +0.000 S 
ATOM      7  O   UNL     1       3.614   2.997  21.298  0.00  0.00    +0.000 OA
ATOM      8  O   UNL     1       1.431   2.027  22.140  0.00  0.00    +0.000 OA
ATOM      9  C   UNL     1       1.421   4.391  21.035  0.00  0.00    +0.000 C 
ATOM     10  C   UNL     1       1.412   4.763  19.551  0.00  0.00    +0.000 C 
ATOM     11  N   UNL     1       2.464   5.758  19.258  0.00  0.00    +0.000 N 
ENDROOT
BRANCH  11  12
ATOM     12  C   UNL     1       2.168   7.148  19.181  0.00  0.00    +0.000 A 
ATOM     13  C   UNL     1       1.518   7.765  20.281  0.00  0.00    +0.000 A 
ATOM     14  C   UNL     1       1.195   9.130  20.313  0.00  0.00    +0.000 A 
ATOM     15  C   UNL     1       1.505   9.935  19.233  0.00  0.00    +0.000 A 
ATOM     16 CL   UNL     1       1.097  11.603  19.241  0.00  0.00    +0.000 Cl
ATOM     17  C   UNL     1       2.148   9.389  18.135  0.00  0.00    +0.000 A 
ATOM     18  C   UNL     1       2.477   8.021  18.102  0.00  0.00    +0.000 A 
ATOM     19 CL   UNL     1       3.242   7.565  16.616  0.00  0.00    +0.000 Cl
ENDBRANCH  11  12
BRANCH   1  21
ATOM     20  O   UNL     1       6.190   3.724  18.886  0.00  0.00    +0.000 OA
ATOM     21  C   UNL     1       5.949   4.900  18.612  0.00  0.00    +0.000 C 
BRANCH  21  22
ATOM     22  C   UNL     1       6.994   5.769  17.891  0.00  0.00    +0.000 C 
ATOM     23  C   UNL     1       6.379   7.051  17.339  0.00  0.00    +0.000 C 
ATOM     24  C   UNL     1       7.520   8.031  17.401  0.00  0.00    +0.000 C 
ATOM     25  C   UNL     1       8.253   7.585  18.642  0.00  0.00    +0.000 C 
ATOM     26  O   UNL     1       8.100   6.167  18.722  0.00  0.00    +0.000 OA
ENDBRANCH  21  22
ENDBRANCH   1  21
TORSDOF 3
ENDMDL
MODEL 9
REMARK VINA RESULT:      -6.9      2.207      5.058
REMARK  Name = 
REMARK  3 active torsions:
REMARK  status: ('A' for Active; 'I' for Inactive)
REMARK    1  A    between atoms: C_2  and  N_3
REMARK    2  A    between atoms: C_2  and  C_22
REMARK    3  A    between atoms: N_13  and  C_14
REMARK                            x       y       z     vdW  Elec       q    Type
REMARK                         _______ _______ _______ _____ _____    ______ ____
ROOT
ATOM      1  N   UNL     1       4.140   6.031  18.203  0.00  0.00    +0.000 NA
ATOM      2  C   UNL     1       2.994   5.520  18.502  0.00  0.00    +0.000 C 
ATOM      3  S   UNL     1       2.192   4.202  17.655  0.00  0.00    +0.000 S 
ATOM      4  C   UNL     1       1.315   3.651  19.145  0.00  0.00    +0.000 C 
ATOM      5  C   UNL     1       1.893   2.344  19.661  0.00  0.00    +0.000 C 
ATOM      6  S   UNL     1       3.016   2.770  20.953  0.00  0.00    +0.000 S 
ATOM      7  O   UNL     1       4.306   3.092  20.390  0.00  0.00    +0.000 OA
ATOM      8  O   UNL     1       2.863   1.815  22.033  0.00  0.00    +0.000 OA
ATOM      9  C   UNL     1       2.210   4.265  21.415  0.00  0.00    +0.000 C 
ATOM     10  C   UNL     1       1.456   4.784  20.189  0.00  0.00    +0.000 C 
ATOM     11  N   UNL     1       2.185   5.909  19.569  0.00  0.00    +0.000 N 
ENDROOT
BRANCH  11  12
ATOM     12  C   UNL     1       1.831   7.261  19.841  0.00  0.00    +0.000 A 
ATOM     13  C   UNL     1       1.429   7.605  21.158  0.00  0.00    +0.000 A 
ATOM     14  C   UNL     1       1.074   8.909  21.535  0.00  0.00    +0.000 A 
ATOM     15  C   UNL     1       1.099   9.926  20.599  0.00  0.00    +0.000 A 
ATOM     16 CL   UNL     1       0.645  11.523  21.033  0.00  0.00    +0.000 Cl
ATOM     17  C   UNL     1       1.491   9.650  19.300  0.00  0.00    +0.000 A 
ATOM     18  C   UNL     1       1.852   8.344  18.920  0.00  0.00    +0.000 A 
ATOM     19 CL   UNL     1       2.271   8.240  17.242  0.00  0.00    +0.000 Cl
ENDBRANCH  11  12
BRANCH   1  21
ATOM     20  O   UNL     1       4.523   4.988  16.167  0.00  0.00    +0.000 OA
ATOM     21  C   UNL     1       4.935   5.498  17.210  0.00  0.00    +0.000 C 
BRANCH  21  22
ATOM     22  C   UNL     1       6.426   5.430  17.581  0.00  0.00    +0.000 C 
ATOM     23  C   UNL     1       7.061   6.817  17.623  0.00  0.00    +0.000 C 
ATOM     24  C   UNL     1       8.135   6.669  18.667  0.00  0.00    +0.000 C 
ATOM     25  C   UNL     1       7.506   5.696  19.632  0.00  0.00    +0.000 C 
ATOM     26  O   UNL     1       6.686   4.819  18.857  0.00  0.00    +0.000 OA
ENDBRANCH  21  22
ENDBRANCH   1  21
TORSDOF 3
ENDMDL
