MODEL 1
REMARK VINA RESULT:      -8.1      0.000      0.000
REMARK  Name = 
REMARK  6 active torsions:
REMARK  status: ('A' for Active; 'I' for Inactive)
REMARK    1  A    between atoms: C_1  and  C_2
REMARK    2  A    between atoms: C_2  and  N_3
REMARK    3  A    between atoms: N_3  and  N_4
REMARK    4  A    between atoms: C_5  and  C_6
REMARK    5  A    between atoms: C_5  and  C_16
REMARK    6  A    between atoms: C_6  and  C_7
REMARK                            x       y       z     vdW  Elec       q    Type
REMARK                         _______ _______ _______ _____ _____    ______ ____
ROOT
ATOM      1  N   UNL     1       6.836   4.047  14.883  0.00  0.00    +0.000 NA
ATOM      2  C   UNL     1       6.112   4.561  15.840  0.00  0.00    +0.000 C 
ENDROOT
BRANCH   2   3
ATOM      3  C   UNL     1       6.837   5.399  16.867  0.00  0.00    +0.000 A 
ATOM      4  C   UNL     1       6.912   6.787  16.666  0.00  0.00    +0.000 A 
ATOM      5  C   UNL     1       7.569   7.611  17.583  0.00  0.00    +0.000 A 
ATOM      6  C   UNL     1       8.157   7.056  18.715  0.00  0.00    +0.000 A 
ATOM      7  C   UNL     1       8.093   5.681  18.926  0.00  0.00    +0.000 A 
ATOM      8  C   UNL     1       7.440   4.854  18.009  0.00  0.00    +0.000 A 
ENDBRANCH   2   3
BRANCH   1   9
ATOM      9  N   UNL     1       6.234   3.232  13.992  0.00  0.00    +0.000 N 
ATOM     10  H   UNL     1       5.266   3.018  14.245  0.00  0.00    +0.000 HD
BRANCH   9  12
ATOM     11  C   UNL     1       5.051   3.266  11.840  0.00  0.00    +0.000 C 
ATOM     12  C   UNL     1       6.295   3.687  12.601  0.00  0.00    +0.000 C 
ENDBRANCH   9  12
ENDBRANCH   1   9
BRANCH   2  13
ATOM     13  C   UNL     1       4.614   4.337  16.002  0.00  0.00    +0.000 C 
BRANCH  13  14
ATOM     14  C   UNL     1       4.173   4.208  17.430  0.00  0.00    +0.000 A 
ATOM     15  N   UNL     1       3.375   5.063  18.044  0.00  0.00    +0.000 NA
ATOM     16  C   UNL     1       3.013   4.465  19.225  0.00  0.00    +0.000 A 
ATOM     17  C   UNL     1       2.116   4.899  20.213  0.00  0.00    +0.000 A 
ATOM     18  C   UNL     1       1.854   4.055  21.301  0.00  0.00    +0.000 A 
ATOM     19  C   UNL     1       2.489   2.815  21.411  0.00  0.00    +0.000 A 
ATOM     20  C   UNL     1       3.412   2.381  20.449  0.00  0.00    +0.000 A 
ATOM     21  C   UNL     1       3.641   3.234  19.366  0.00  0.00    +0.000 A 
ATOM     22  N   UNL     1       4.431   3.129  18.247  0.00  0.00    +0.000 N 
ATOM     23  H   UNL     1       5.022   2.340  18.028  0.00  0.00    +0.000 HD
ENDBRANCH  13  14
ENDBRANCH   2  13
TORSDOF 5
ENDMDL
MODEL 2
REMARK VINA RESULT:      -8.1      1.690      4.050
REMARK  Name = 
REMARK  6 active torsions:
REMARK  status: ('A' for Active; 'I' for Inactive)
REMARK    1  A    between atoms: C_1  and  C_2
REMARK    2  A    between atoms: C_2  and  N_3
REMARK    3  A    between atoms: N_3  and  N_4
REMARK    4  A    between atoms: C_5  and  C_6
REMARK    5  A    between atoms: C_5  and  C_16
REMARK    6  A    between atoms: C_6  and  C_7
REMARK                            x       y       z     vdW  Elec       q    Type
REMARK                         _______ _______ _______ _____ _____    ______ ____
ROOT
ATOM      1  N   UNL     1       7.246   5.509  16.893  0.00  0.00    +0.000 NA
ATOM      2  C   UNL     1       6.223   5.545  16.083  0.00  0.00    +0.000 C 
ENDROOT
BRANCH   2   3
ATOM      3  C   UNL     1       6.429   4.968  14.701  0.00  0.00    +0.000 A 
ATOM      4  C   UNL     1       7.520   5.420  13.942  0.00  0.00    +0.000 A 
ATOM      5  C   UNL     1       7.759   4.922  12.660  0.00  0.00    +0.000 A 
ATOM      6  C   UNL     1       6.910   3.961  12.122  0.00  0.00    +0.000 A 
ATOM      7  C   UNL     1       5.822   3.504  12.861  0.00  0.00    +0.000 A 
ATOM      8  C   UNL     1       5.578   4.004  14.143  0.00  0.00    +0.000 A 
ENDBRANCH   2   3
BRANCH   1   9
ATOM      9  N   UNL     1       7.121   6.084  18.108  0.00  0.00    +0.000 N 
ATOM     10  H   UNL     1       7.066   5.397  18.865  0.00  0.00    +0.000 HD
BRANCH   9  12
ATOM     11  C   UNL     1       7.854   8.393  17.700  0.00  0.00    +0.000 C 
ATOM     12  C   UNL     1       8.140   7.088  18.422  0.00  0.00    +0.000 C 
ENDBRANCH   9  12
ENDBRANCH   1   9
BRANCH   2  13
ATOM     13  C   UNL     1       4.872   6.158  16.428  0.00  0.00    +0.000 C 
BRANCH  13  14
ATOM     14  C   UNL     1       4.085   5.363  17.427  0.00  0.00    +0.000 A 
ATOM     15  N   UNL     1       3.907   5.717  18.687  0.00  0.00    +0.000 NA
ATOM     16  C   UNL     1       2.938   4.882  19.184  0.00  0.00    +0.000 A 
ATOM     17  C   UNL     1       2.314   4.877  20.441  0.00  0.00    +0.000 A 
ATOM     18  C   UNL     1       1.281   3.959  20.676  0.00  0.00    +0.000 A 
ATOM     19  C   UNL     1       0.894   3.052  19.686  0.00  0.00    +0.000 A 
ATOM     20  C   UNL     1       1.529   3.022  18.437  0.00  0.00    +0.000 A 
ATOM     21  C   UNL     1       2.543   3.959  18.223  0.00  0.00    +0.000 A 
ATOM     22  N   UNL     1       3.341   4.240  17.140  0.00  0.00    +0.000 N 
ATOM     23  H   UNL     1       3.307   3.755  16.255  0.00  0.00    +0.000 HD
ENDBRANCH  13  14
ENDBRANCH   2  13
TORSDOF 5
ENDMDL
MODEL 3
REMARK VINA RESULT:      -8.0      1.698      4.252
REMARK  Name = 
REMARK  6 active torsions:
REMARK  status: ('A' for Active; 'I' for Inactive)
REMARK    1  A    between atoms: C_1  and  C_2
REMARK    2  A    between atoms: C_2  and  N_3
REMARK    3  A    between atoms: N_3  and  N_4
REMARK    4  A    between atoms: C_5  and  C_6
REMARK    5  A    between atoms: C_5  and  C_16
REMARK    6  A    between atoms: C_6  and  C_7
REMARK                            x       y       z     vdW  Elec       q    Type
REMARK                         _______ _______ _______ _____ _____    ______ ____
ROOT
ATOM      1  N   UNL     1       6.618   6.688  16.027  0.00  0.00    +0.000 NA
ATOM      2  C   UNL     1       6.710   5.392  15.902  0.00  0.00    +0.000 C 
ENDROOT
BRANCH   2   3
ATOM      3  C   UNL     1       6.715   4.843  14.494  0.00  0.00    +0.000 A 
ATOM      4  C   UNL     1       5.730   3.908  14.136  0.00  0.00    +0.000 A 
ATOM      5  C   UNL     1       5.686   3.368  12.850  0.00  0.00    +0.000 A 
ATOM      6  C   UNL     1       6.625   3.760  11.902  0.00  0.00    +0.000 A 
ATOM      7  C   UNL     1       7.609   4.684  12.242  0.00  0.00    +0.000 A 
ATOM      8  C   UNL     1       7.659   5.223  13.529  0.00  0.00    +0.000 A 
ENDBRANCH   2   3
BRANCH   1   9
ATOM      9  N   UNL     1       6.534   7.207  17.270  0.00  0.00    +0.000 N 
ATOM     10  H   UNL     1       5.995   6.616  17.908  0.00  0.00    +0.000 HD
BRANCH   9  12
ATOM     11  C   UNL     1       8.049   9.053  17.846  0.00  0.00    +0.000 C 
ATOM     12  C   UNL     1       7.820   7.552  17.881  0.00  0.00    +0.000 C 
ENDBRANCH   9  12
ENDBRANCH   1   9
BRANCH   2  13
ATOM     13  C   UNL     1       6.773   4.416  17.070  0.00  0.00    +0.000 C 
BRANCH  13  14
ATOM     14  C   UNL     1       5.459   4.221  17.766  0.00  0.00    +0.000 A 
ATOM     15  N   UNL     1       4.300   4.659  17.306  0.00  0.00    +0.000 NA
ATOM     16  C   UNL     1       3.335   4.065  18.081  0.00  0.00    +0.000 A 
ATOM     17  C   UNL     1       1.936   4.118  17.970  0.00  0.00    +0.000 A 
ATOM     18  C   UNL     1       1.163   3.346  18.847  0.00  0.00    +0.000 A 
ATOM     19  C   UNL     1       1.770   2.555  19.827  0.00  0.00    +0.000 A 
ATOM     20  C   UNL     1       3.164   2.516  19.971  0.00  0.00    +0.000 A 
ATOM     21  C   UNL     1       3.912   3.282  19.072  0.00  0.00    +0.000 A 
ATOM     22  N   UNL     1       5.263   3.458  18.896  0.00  0.00    +0.000 N 
ATOM     23  H   UNL     1       5.982   3.017  19.452  0.00  0.00    +0.000 HD
ENDBRANCH  13  14
ENDBRANCH   2  13
TORSDOF 5
ENDMDL
MODEL 4
REMARK VINA RESULT:      -8.0      1.503      4.176
REMARK  Name = 
REMARK  6 active torsions:
REMARK  status: ('A' for Active; 'I' for Inactive)
REMARK    1  A    between atoms: C_1  and  C_2
REMARK    2  A    between atoms: C_2  and  N_3
REMARK    3  A    between atoms: N_3  and  N_4
REMARK    4  A    between atoms: C_5  and  C_6
REMARK    5  A    between atoms: C_5  and  C_16
REMARK    6  A    between atoms: C_6  and  C_7
REMARK                            x       y       z     vdW  Elec       q    Type
REMARK                         _______ _______ _______ _____ _____    ______ ____
ROOT
ATOM      1  N   UNL     1       6.985   4.301  16.919  0.00  0.00    +0.000 NA
ATOM      2  C   UNL     1       6.190   4.865  16.052  0.00  0.00    +0.000 C 
ENDROOT
BRANCH   2   3
ATOM      3  C   UNL     1       6.501   4.630  14.591  0.00  0.00    +0.000 A 
ATOM      4  C   UNL     1       5.711   3.714  13.878  0.00  0.00    +0.000 A 
ATOM      5  C   UNL     1       5.952   3.458  12.526  0.00  0.00    +0.000 A 
ATOM      6  C   UNL     1       6.984   4.120  11.870  0.00  0.00    +0.000 A 
ATOM      7  C   UNL     1       7.777   5.029  12.564  0.00  0.00    +0.000 A 
ATOM      8  C   UNL     1       7.541   5.285  13.917  0.00  0.00    +0.000 A 
ENDBRANCH   2   3
BRANCH   1   9
ATOM      9  N   UNL     1       6.783   4.551  18.230  0.00  0.00    +0.000 N 
ATOM     10  H   UNL     1       6.578   3.703  18.766  0.00  0.00    +0.000 HD
BRANCH   9  12
ATOM     11  C   UNL     1       7.854   6.753  18.427  0.00  0.00    +0.000 C 
ATOM     12  C   UNL     1       7.854   5.305  18.885  0.00  0.00    +0.000 C 
ENDBRANCH   9  12
ENDBRANCH   1   9
BRANCH   2  13
ATOM     13  C   UNL     1       5.014   5.762  16.416  0.00  0.00    +0.000 C 
BRANCH  13  14
ATOM     14  C   UNL     1       3.917   5.051  17.152  0.00  0.00    +0.000 A 
ATOM     15  N   UNL     1       3.674   3.756  17.057  0.00  0.00    +0.000 NA
ATOM     16  C   UNL     1       2.784   3.461  18.059  0.00  0.00    +0.000 A 
ATOM     17  C   UNL     1       2.259   2.222  18.459  0.00  0.00    +0.000 A 
ATOM     18  C   UNL     1       1.420   2.177  19.580  0.00  0.00    +0.000 A 
ATOM     19  C   UNL     1       1.093   3.346  20.274  0.00  0.00    +0.000 A 
ATOM     20  C   UNL     1       1.583   4.595  19.868  0.00  0.00    +0.000 A 
ATOM     21  C   UNL     1       2.432   4.609  18.758  0.00  0.00    +0.000 A 
ATOM     22  N   UNL     1       3.109   5.616  18.114  0.00  0.00    +0.000 N 
ATOM     23  H   UNL     1       3.082   6.591  18.375  0.00  0.00    +0.000 HD
ENDBRANCH  13  14
ENDBRANCH   2  13
TORSDOF 5
ENDMDL
MODEL 5
REMARK VINA RESULT:      -7.8      1.584      6.567
REMARK  Name = 
REMARK  6 active torsions:
REMARK  status: ('A' for Active; 'I' for Inactive)
REMARK    1  A    between atoms: C_1  and  C_2
REMARK    2  A    between atoms: C_2  and  N_3
REMARK    3  A    between atoms: N_3  and  N_4
REMARK    4  A    between atoms: C_5  and  C_6
REMARK    5  A    between atoms: C_5  and  C_16
REMARK    6  A    between atoms: C_6  and  C_7
REMARK                            x       y       z     vdW  Elec       q    Type
REMARK                         _______ _______ _______ _____ _____    ______ ____
ROOT
ATOM      1  N   UNL     1       5.788   4.178  19.091  0.00  0.00    +0.000 NA
ATOM      2  C   UNL     1       4.765   4.688  18.462  0.00  0.00    +0.000 C 
ENDROOT
BRANCH   2   3
ATOM      3  C   UNL     1       3.395   4.219  18.896  0.00  0.00    +0.000 A 
ATOM      4  C   UNL     1       2.793   3.165  18.189  0.00  0.00    +0.000 A 
ATOM      5  C   UNL     1       1.530   2.690  18.546  0.00  0.00    +0.000 A 
ATOM      6  C   UNL     1       0.853   3.262  19.618  0.00  0.00    +0.000 A 
ATOM      7  C   UNL     1       1.436   4.309  20.328  0.00  0.00    +0.000 A 
ATOM      8  C   UNL     1       2.698   4.788  19.971  0.00  0.00    +0.000 A 
ENDBRANCH   2   3
BRANCH   1   9
ATOM      9  N   UNL     1       7.028   4.517  18.679  0.00  0.00    +0.000 N 
ATOM     10  H   UNL     1       7.056   4.778  17.690  0.00  0.00    +0.000 HD
BRANCH   9  12
ATOM     11  C   UNL     1       8.047   6.751  18.630  0.00  0.00    +0.000 C 
ATOM     12  C   UNL     1       7.683   5.550  19.484  0.00  0.00    +0.000 C 
ENDBRANCH   9  12
ENDBRANCH   1   9
BRANCH   2  13
ATOM     13  C   UNL     1       4.869   5.681  17.311  0.00  0.00    +0.000 C 
BRANCH  13  14
ATOM     14  C   UNL     1       5.525   5.118  16.085  0.00  0.00    +0.000 A 
ATOM     15  N   UNL     1       5.017   4.148  15.346  0.00  0.00    +0.000 NA
ATOM     16  C   UNL     1       5.772   4.105  14.201  0.00  0.00    +0.000 A 
ATOM     17  C   UNL     1       5.614   3.319  13.049  0.00  0.00    +0.000 A 
ATOM     18  C   UNL     1       6.483   3.526  11.969  0.00  0.00    +0.000 A 
ATOM     19  C   UNL     1       7.500   4.481  12.045  0.00  0.00    +0.000 A 
ATOM     20  C   UNL     1       7.692   5.252  13.201  0.00  0.00    +0.000 A 
ATOM     21  C   UNL     1       6.801   5.037  14.256  0.00  0.00    +0.000 A 
ATOM     22  N   UNL     1       6.666   5.616  15.494  0.00  0.00    +0.000 N 
ATOM     23  H   UNL     1       7.256   6.350  15.858  0.00  0.00    +0.000 HD
ENDBRANCH  13  14
ENDBRANCH   2  13
TORSDOF 5
ENDMDL
MODEL 6
REMARK VINA RESULT:      -7.8      0.350      1.306
REMARK  Name = 
REMARK  6 active torsions:
REMARK  status: ('A' for Active; 'I' for Inactive)
REMARK    1  A    between atoms: C_1  and  C_2
REMARK    2  A    between atoms: C_2  and  N_3
REMARK    3  A    between atoms: N_3  and  N_4
REMARK    4  A    between atoms: C_5  and  C_6
REMARK    5  A    between atoms: C_5  and  C_16
REMARK    6  A    between atoms: C_6  and  C_7
REMARK                            x       y       z     vdW  Elec       q    Type
REMARK                         _______ _______ _______ _____ _____    ______ ____
ROOT
ATOM      1  N   UNL     1       6.822   4.041  15.164  0.00  0.00    +0.000 NA
ATOM      2  C   UNL     1       6.109   4.800  15.950  0.00  0.00    +0.000 C 
ENDROOT
BRANCH   2   3
ATOM      3  C   UNL     1       6.858   5.577  17.008  0.00  0.00    +0.000 A 
ATOM      4  C   UNL     1       7.091   6.946  16.795  0.00  0.00    +0.000 A 
ATOM      5  C   UNL     1       7.777   7.713  17.738  0.00  0.00    +0.000 A 
ATOM      6  C   UNL     1       8.235   7.121  18.911  0.00  0.00    +0.000 A 
ATOM      7  C   UNL     1       8.013   5.765  19.135  0.00  0.00    +0.000 A 
ATOM      8  C   UNL     1       7.331   4.994  18.192  0.00  0.00    +0.000 A 
ENDBRANCH   2   3
BRANCH   1   9
ATOM      9  N   UNL     1       6.179   3.275  14.257  0.00  0.00    +0.000 N 
ATOM     10  H   UNL     1       5.181   3.178  14.461  0.00  0.00    +0.000 HD
BRANCH   9  12
ATOM     11  C   UNL     1       5.138   3.344  12.033  0.00  0.00    +0.000 C 
ATOM     12  C   UNL     1       6.363   3.686  12.863  0.00  0.00    +0.000 C 
ENDBRANCH   9  12
ENDBRANCH   1   9
BRANCH   2  13
ATOM     13  C   UNL     1       4.591   4.917  15.891  0.00  0.00    +0.000 C 
BRANCH  13  14
ATOM     14  C   UNL     1       3.899   4.437  17.133  0.00  0.00    +0.000 A 
ATOM     15  N   UNL     1       4.173   3.300  17.746  0.00  0.00    +0.000 NA
ATOM     16  C   UNL     1       3.525   3.353  18.954  0.00  0.00    +0.000 A 
ATOM     17  C   UNL     1       3.546   2.447  20.026  0.00  0.00    +0.000 A 
ATOM     18  C   UNL     1       2.854   2.776  21.199  0.00  0.00    +0.000 A 
ATOM     19  C   UNL     1       2.139   3.973  21.293  0.00  0.00    +0.000 A 
ATOM     20  C   UNL     1       2.081   4.874  20.221  0.00  0.00    +0.000 A 
ATOM     21  C   UNL     1       2.795   4.529  19.070  0.00  0.00    +0.000 A 
ATOM     22  N   UNL     1       2.990   5.166  17.868  0.00  0.00    +0.000 N 
ATOM     23  H   UNL     1       2.602   6.064  17.619  0.00  0.00    +0.000 HD
ENDBRANCH  13  14
ENDBRANCH   2  13
TORSDOF 5
ENDMDL
MODEL 7
REMARK VINA RESULT:      -7.8      0.422      1.688
REMARK  Name = 
REMARK  6 active torsions:
REMARK  status: ('A' for Active; 'I' for Inactive)
REMARK    1  A    between atoms: C_1  and  C_2
REMARK    2  A    between atoms: C_2  and  N_3
REMARK    3  A    between atoms: N_3  and  N_4
REMARK    4  A    between atoms: C_5  and  C_6
REMARK    5  A    between atoms: C_5  and  C_16
REMARK    6  A    between atoms: C_6  and  C_7
REMARK                            x       y       z     vdW  Elec       q    Type
REMARK                         _______ _______ _______ _____ _____    ______ ____
ROOT
ATOM      1  N   UNL     1       6.851   4.113  15.156  0.00  0.00    +0.000 NA
ATOM      2  C   UNL     1       6.141   4.899  15.919  0.00  0.00    +0.000 C 
ENDROOT
BRANCH   2   3
ATOM      3  C   UNL     1       6.888   5.683  16.973  0.00  0.00    +0.000 A 
ATOM      4  C   UNL     1       7.368   4.999  18.102  0.00  0.00    +0.000 A 
ATOM      5  C   UNL     1       8.066   5.672  19.106  0.00  0.00    +0.000 A 
ATOM      6  C   UNL     1       8.296   7.039  18.992  0.00  0.00    +0.000 A 
ATOM      7  C   UNL     1       7.825   7.731  17.880  0.00  0.00    +0.000 A 
ATOM      8  C   UNL     1       7.123   7.061  16.875  0.00  0.00    +0.000 A 
ENDBRANCH   2   3
BRANCH   1   9
ATOM      9  N   UNL     1       6.207   3.341  14.256  0.00  0.00    +0.000 N 
ATOM     10  H   UNL     1       5.207   3.257  14.453  0.00  0.00    +0.000 HD
BRANCH   9  12
ATOM     11  C   UNL     1       5.237   3.279  12.000  0.00  0.00    +0.000 C 
ATOM     12  C   UNL     1       6.406   3.730  12.858  0.00  0.00    +0.000 C 
ENDBRANCH   9  12
ENDBRANCH   1   9
BRANCH   2  13
ATOM     13  C   UNL     1       4.626   5.039  15.838  0.00  0.00    +0.000 C 
BRANCH  13  14
ATOM     14  C   UNL     1       3.909   4.569  17.069  0.00  0.00    +0.000 A 
ATOM     15  N   UNL     1       4.087   3.386  17.629  0.00  0.00    +0.000 NA
ATOM     16  C   UNL     1       3.460   3.445  18.849  0.00  0.00    +0.000 A 
ATOM     17  C   UNL     1       3.413   2.495  19.881  0.00  0.00    +0.000 A 
ATOM     18  C   UNL     1       2.766   2.833  21.077  0.00  0.00    +0.000 A 
ATOM     19  C   UNL     1       2.161   4.083  21.232  0.00  0.00    +0.000 A 
ATOM     20  C   UNL     1       2.172   5.031  20.200  0.00  0.00    +0.000 A 
ATOM     21  C   UNL     1       2.838   4.674  19.024  0.00  0.00    +0.000 A 
ATOM     22  N   UNL     1       3.076   5.343  17.847  0.00  0.00    +0.000 N 
ATOM     23  H   UNL     1       2.766   6.281  17.642  0.00  0.00    +0.000 HD
ENDBRANCH  13  14
ENDBRANCH   2  13
TORSDOF 5
ENDMDL
MODEL 8
REMARK VINA RESULT:      -7.8      1.679      4.192
REMARK  Name = 
REMARK  6 active torsions:
REMARK  status: ('A' for Active; 'I' for Inactive)
REMARK    1  A    between atoms: C_1  and  C_2
REMARK    2  A    between atoms: C_2  and  N_3
REMARK    3  A    between atoms: N_3  and  N_4
REMARK    4  A    between atoms: C_5  and  C_6
REMARK    5  A    between atoms: C_5  and  C_16
REMARK    6  A    between atoms: C_6  and  C_7
REMARK                            x       y       z     vdW  Elec       q    Type
REMARK                         _______ _______ _______ _____ _____    ______ ____
ROOT
ATOM      1  N   UNL     1       6.322   6.643  15.945  0.00  0.00    +0.000 NA
ATOM      2  C   UNL     1       6.526   5.356  15.860  0.00  0.00    +0.000 C 
ENDROOT
BRANCH   2   3
ATOM      3  C   UNL     1       6.502   4.753  14.475  0.00  0.00    +0.000 A 
ATOM      4  C   UNL     1       7.530   5.090  13.580  0.00  0.00    +0.000 A 
ATOM      5  C   UNL     1       7.559   4.563  12.287  0.00  0.00    +0.000 A 
ATOM      6  C   UNL     1       6.561   3.686  11.875  0.00  0.00    +0.000 A 
ATOM      7  C   UNL     1       5.534   3.344  12.751  0.00  0.00    +0.000 A 
ATOM      8  C   UNL     1       5.500   3.873  14.042  0.00  0.00    +0.000 A 
ENDBRANCH   2   3
BRANCH   1   9
ATOM      9  N   UNL     1       6.262   7.202  17.172  0.00  0.00    +0.000 N 
ATOM     10  H   UNL     1       6.060   6.519  17.906  0.00  0.00    +0.000 HD
BRANCH   9  12
ATOM     11  C   UNL     1       8.240   7.305  18.624  0.00  0.00    +0.000 C 
ATOM     12  C   UNL     1       7.432   8.000  17.543  0.00  0.00    +0.000 C 
ENDBRANCH   9  12
ENDBRANCH   1   9
BRANCH   2  13
ATOM     13  C   UNL     1       6.743   4.437  17.057  0.00  0.00    +0.000 C 
BRANCH  13  14
ATOM     14  C   UNL     1       5.492   4.154  17.835  0.00  0.00    +0.000 A 
ATOM     15  N   UNL     1       5.093   4.849  18.884  0.00  0.00    +0.000 NA
ATOM     16  C   UNL     1       3.806   4.448  19.140  0.00  0.00    +0.000 A 
ATOM     17  C   UNL     1       2.889   4.924  20.090  0.00  0.00    +0.000 A 
ATOM     18  C   UNL     1       1.591   4.395  20.095  0.00  0.00    +0.000 A 
ATOM     19  C   UNL     1       1.223   3.398  19.187  0.00  0.00    +0.000 A 
ATOM     20  C   UNL     1       2.137   2.889  18.254  0.00  0.00    +0.000 A 
ATOM     21  C   UNL     1       3.419   3.446  18.260  0.00  0.00    +0.000 A 
ATOM     22  N   UNL     1       4.534   3.226  17.488  0.00  0.00    +0.000 N 
ATOM     23  H   UNL     1       4.594   2.558  16.733  0.00  0.00    +0.000 HD
ENDBRANCH  13  14
ENDBRANCH   2  13
TORSDOF 5
ENDMDL
MODEL 9
REMARK VINA RESULT:      -7.8      1.724      4.239
REMARK  Name = 
REMARK  6 active torsions:
REMARK  status: ('A' for Active; 'I' for Inactive)
REMARK    1  A    between atoms: C_1  and  C_2
REMARK    2  A    between atoms: C_2  and  N_3
REMARK    3  A    between atoms: N_3  and  N_4
REMARK    4  A    between atoms: C_5  and  C_6
REMARK    5  A    between atoms: C_5  and  C_16
REMARK    6  A    between atoms: C_6  and  C_7
REMARK                            x       y       z     vdW  Elec       q    Type
REMARK                         _______ _______ _______ _____ _____    ______ ____
ROOT
ATOM      1  N   UNL     1       6.674   6.704  16.236  0.00  0.00    +0.000 NA
ATOM      2  C   UNL     1       6.787   5.411  16.107  0.00  0.00    +0.000 C 
ENDROOT
BRANCH   2   3
ATOM      3  C   UNL     1       6.711   4.857  14.702  0.00  0.00    +0.000 A 
ATOM      4  C   UNL     1       5.634   4.019  14.370  0.00  0.00    +0.000 A 
ATOM      5  C   UNL     1       5.513   3.480  13.088  0.00  0.00    +0.000 A 
ATOM      6  C   UNL     1       6.466   3.776  12.119  0.00  0.00    +0.000 A 
ATOM      7  C   UNL     1       7.540   4.604  12.434  0.00  0.00    +0.000 A 
ATOM      8  C   UNL     1       7.667   5.142  13.717  0.00  0.00    +0.000 A 
ENDBRANCH   2   3
BRANCH   1   9
ATOM      9  N   UNL     1       6.661   7.225  17.481  0.00  0.00    +0.000 N 
ATOM     10  H   UNL     1       6.171   6.628  18.152  0.00  0.00    +0.000 HD
BRANCH   9  12
ATOM     11  C   UNL     1       8.183   9.093  17.958  0.00  0.00    +0.000 C 
ATOM     12  C   UNL     1       7.978   7.590  18.009  0.00  0.00    +0.000 C 
ENDBRANCH   9  12
ENDBRANCH   1   9
BRANCH   2  13
ATOM     13  C   UNL     1       6.948   4.439  17.270  0.00  0.00    +0.000 C 
BRANCH  13  14
ATOM     14  C   UNL     1       5.679   4.192  18.030  0.00  0.00    +0.000 A 
ATOM     15  N   UNL     1       5.233   4.962  19.006  0.00  0.00    +0.000 NA
ATOM     16  C   UNL     1       3.947   4.553  19.255  0.00  0.00    +0.000 A 
ATOM     17  C   UNL     1       2.989   5.085  20.134  0.00  0.00    +0.000 A 
ATOM     18  C   UNL     1       1.703   4.528  20.143  0.00  0.00    +0.000 A 
ATOM     19  C   UNL     1       1.385   3.452  19.311  0.00  0.00    +0.000 A 
ATOM     20  C   UNL     1       2.339   2.888  18.451  0.00  0.00    +0.000 A 
ATOM     21  C   UNL     1       3.608   3.474  18.449  0.00  0.00    +0.000 A 
ATOM     22  N   UNL     1       4.752   3.217  17.733  0.00  0.00    +0.000 N 
ATOM     23  H   UNL     1       4.850   2.490  17.038  0.00  0.00    +0.000 HD
ENDBRANCH  13  14
ENDBRANCH   2  13
TORSDOF 5
ENDMDL
