MODEL 1
REMARK VINA RESULT:      -8.4      0.000      0.000
REMARK  Name = 
REMARK  8 active torsions:
REMARK  status: ('A' for Active; 'I' for Inactive)
REMARK    1  A    between atoms: C_1  and  C_2
REMARK    2  A    between atoms: C_2  and  C_4
REMARK    3  A    between atoms: C_8  and  N_9
REMARK    4  A    between atoms: C_10  and  C_12
REMARK    5  A    between atoms: C_12  and  S_13
REMARK    6  A    between atoms: S_13  and  C_14
REMARK    7  A    between atoms: N_18  and  C_19
REMARK    8  A    between atoms: C_19  and  C_20
REMARK                            x       y       z     vdW  Elec       q    Type
REMARK                         _______ _______ _______ _____ _____    ______ ____
ROOT
ATOM      1  C   UNL     1       3.448   6.898  17.803  0.00  0.00    +0.000 A 
ATOM      2  N   UNL     1       4.564   7.483  17.533  0.00  0.00    +0.000 NA
ATOM      3  C   UNL     1       5.635   6.707  17.129  0.00  0.00    +0.000 A 
ATOM      4  O   UNL     1       6.692   7.243  16.805  0.00  0.00    +0.000 OA
ATOM      5  N   UNL     1       5.485   5.311  17.090  0.00  0.00    +0.000 N 
ATOM      6  C   UNL     1       4.265   4.736  17.356  0.00  0.00    +0.000 A 
ATOM      7  C   UNL     1       3.210   5.466  17.708  0.00  0.00    +0.000 A 
ATOM      8  C   UNL     1       1.978   4.661  17.882  0.00  0.00    +0.000 C 
ATOM      9  C   UNL     1       2.540   3.237  17.920  0.00  0.00    +0.000 C 
ATOM     10  C   UNL     1       3.912   3.292  17.234  0.00  0.00    +0.000 C 
ENDROOT
BRANCH   1  11
ATOM     11  S   UNL     1       2.048   7.815  18.317  0.00  0.00    +0.000 S 
BRANCH  11  12
ATOM     12  C   UNL     1       2.483   9.482  17.756  0.00  0.00    +0.000 C 
BRANCH  12  14
ATOM     13  N   UNL     1       0.139  10.026  18.198  0.00  0.00    +0.000 N 
ATOM     14  C   UNL     1       1.451  10.485  18.255  0.00  0.00    +0.000 C 
ATOM     15  O   UNL     1       1.808  11.597  18.641  0.00  0.00    +0.000 OA
ATOM     16  H   UNL     1       0.022   9.034  18.020  0.00  0.00    +0.000 HD
BRANCH  13  21
ATOM     17  C   UNL     1      -3.287  11.453  17.964  0.00  0.00    +0.000 A 
ATOM     18  C   UNL     1      -3.387  12.144  19.175  0.00  0.00    +0.000 A 
ATOM     19  C   UNL     1      -2.313  12.150  20.059  0.00  0.00    +0.000 A 
ATOM     20  C   UNL     1      -1.140  11.461  19.746  0.00  0.00    +0.000 A 
ATOM     21  C   UNL     1      -1.023  10.751  18.550  0.00  0.00    +0.000 A 
ATOM     22  C   UNL     1      -2.100  10.764  17.652  0.00  0.00    +0.000 A 
BRANCH  17  24
ATOM     23  C   UNL     1      -5.752  12.009  17.408  0.00  0.00    +0.000 C 
ATOM     24  C   UNL     1      -4.424  11.421  16.996  0.00  0.00    +0.000 C 
ATOM     25  O   UNL     1      -4.265  10.925  15.882  0.00  0.00    +0.000 OA
ENDBRANCH  17  24
ENDBRANCH  13  21
ENDBRANCH  12  14
ENDBRANCH  11  12
ENDBRANCH   1  11
BRANCH   5  26
ATOM     26  C   UNL     1       6.628   4.503  16.665  0.00  0.00    +0.000 C 
BRANCH  26  27
ATOM     27  C   UNL     1       6.691   4.461  15.179  0.00  0.00    +0.000 A 
ATOM     28  C   UNL     1       5.971   3.778  14.220  0.00  0.00    +0.000 A 
ATOM     29  C   UNL     1       6.553   4.110  12.974  0.00  0.00    +0.000 A 
ATOM     30  C   UNL     1       7.571   4.993  13.249  0.00  0.00    +0.000 A 
ATOM     31  O   UNL     1       7.661   5.215  14.585  0.00  0.00    +0.000 OA
ENDBRANCH  26  27
ENDBRANCH   5  26
TORSDOF 7
ENDMDL
MODEL 2
REMARK VINA RESULT:      -8.1      1.736      2.151
REMARK  Name = 
REMARK  8 active torsions:
REMARK  status: ('A' for Active; 'I' for Inactive)
REMARK    1  A    between atoms: C_1  and  C_2
REMARK    2  A    between atoms: C_2  and  C_4
REMARK    3  A    between atoms: C_8  and  N_9
REMARK    4  A    between atoms: C_10  and  C_12
REMARK    5  A    between atoms: C_12  and  S_13
REMARK    6  A    between atoms: S_13  and  C_14
REMARK    7  A    between atoms: N_18  and  C_19
REMARK    8  A    between atoms: C_19  and  C_20
REMARK                            x       y       z     vdW  Elec       q    Type
REMARK                         _______ _______ _______ _____ _____    ______ ____
ROOT
ATOM      1  C   UNL     1       3.567   6.591  17.889  0.00  0.00    +0.000 A 
ATOM      2  N   UNL     1       4.612   7.295  17.620  0.00  0.00    +0.000 NA
ATOM      3  C   UNL     1       5.737   6.650  17.140  0.00  0.00    +0.000 A 
ATOM      4  O   UNL     1       6.727   7.303  16.817  0.00  0.00    +0.000 OA
ATOM      5  N   UNL     1       5.720   5.250  17.025  0.00  0.00    +0.000 N 
ATOM      6  C   UNL     1       4.570   4.546  17.294  0.00  0.00    +0.000 A 
ATOM      7  C   UNL     1       3.464   5.150  17.719  0.00  0.00    +0.000 A 
ATOM      8  C   UNL     1       2.321   4.220  17.883  0.00  0.00    +0.000 C 
ATOM      9  C   UNL     1       3.018   2.858  17.821  0.00  0.00    +0.000 C 
ATOM     10  C   UNL     1       4.353   3.083  17.100  0.00  0.00    +0.000 C 
ENDROOT
BRANCH   1  11
ATOM     11  S   UNL     1       2.105   7.338  18.497  0.00  0.00    +0.000 S 
BRANCH  11  12
ATOM     12  C   UNL     1       2.199   8.982  17.740  0.00  0.00    +0.000 C 
BRANCH  12  14
ATOM     13  N   UNL     1       0.763   9.478  19.657  0.00  0.00    +0.000 N 
ATOM     14  C   UNL     1       1.579  10.018  18.668  0.00  0.00    +0.000 C 
ATOM     15  O   UNL     1       1.801  11.214  18.492  0.00  0.00    +0.000 OA
ATOM     16  H   UNL     1       0.817   8.473  19.779  0.00  0.00    +0.000 HD
BRANCH  13  21
ATOM     17  C   UNL     1      -1.568  11.984  21.113  0.00  0.00    +0.000 A 
ATOM     18  C   UNL     1      -1.501  11.672  22.474  0.00  0.00    +0.000 A 
ATOM     19  C   UNL     1      -0.671  10.644  22.909  0.00  0.00    +0.000 A 
ATOM     20  C   UNL     1       0.087   9.916  21.990  0.00  0.00    +0.000 A 
ATOM     21  C   UNL     1       0.026  10.199  20.625  0.00  0.00    +0.000 A 
ATOM     22  C   UNL     1      -0.796  11.249  20.192  0.00  0.00    +0.000 A 
BRANCH  17  24
ATOM     23  C   UNL     1      -3.895  12.761  20.290  0.00  0.00    +0.000 C 
ATOM     24  C   UNL     1      -2.453  13.077  20.612  0.00  0.00    +0.000 C 
ATOM     25  O   UNL     1      -2.003  14.213  20.471  0.00  0.00    +0.000 OA
ENDBRANCH  17  24
ENDBRANCH  13  21
ENDBRANCH  12  14
ENDBRANCH  11  12
ENDBRANCH   1  11
BRANCH   5  26
ATOM     26  C   UNL     1       6.919   4.581  16.520  0.00  0.00    +0.000 C 
BRANCH  26  27
ATOM     27  C   UNL     1       6.877   4.525  15.034  0.00  0.00    +0.000 A 
ATOM     28  C   UNL     1       6.160   3.761  14.136  0.00  0.00    +0.000 A 
ATOM     29  C   UNL     1       6.613   4.131  12.848  0.00  0.00    +0.000 A 
ATOM     30  C   UNL     1       7.557   5.113  13.040  0.00  0.00    +0.000 A 
ATOM     31  O   UNL     1       7.722   5.362  14.365  0.00  0.00    +0.000 OA
ENDBRANCH  26  27
ENDBRANCH   5  26
TORSDOF 7
ENDMDL
MODEL 3
REMARK VINA RESULT:      -8.0      2.408      2.696
REMARK  Name = 
REMARK  8 active torsions:
REMARK  status: ('A' for Active; 'I' for Inactive)
REMARK    1  A    between atoms: C_1  and  C_2
REMARK    2  A    between atoms: C_2  and  C_4
REMARK    3  A    between atoms: C_8  and  N_9
REMARK    4  A    between atoms: C_10  and  C_12
REMARK    5  A    between atoms: C_12  and  S_13
REMARK    6  A    between atoms: S_13  and  C_14
REMARK    7  A    between atoms: N_18  and  C_19
REMARK    8  A    between atoms: C_19  and  C_20
REMARK                            x       y       z     vdW  Elec       q    Type
REMARK                         _______ _______ _______ _____ _____    ______ ____
ROOT
ATOM      1  C   UNL     1       3.411   6.936  17.837  0.00  0.00    +0.000 A 
ATOM      2  N   UNL     1       4.533   7.522  17.594  0.00  0.00    +0.000 NA
ATOM      3  C   UNL     1       5.610   6.748  17.202  0.00  0.00    +0.000 A 
ATOM      4  O   UNL     1       6.674   7.285  16.903  0.00  0.00    +0.000 OA
ATOM      5  N   UNL     1       5.458   5.353  17.145  0.00  0.00    +0.000 N 
ATOM      6  C   UNL     1       4.233   4.778  17.382  0.00  0.00    +0.000 A 
ATOM      7  C   UNL     1       3.173   5.506  17.723  0.00  0.00    +0.000 A 
ATOM      8  C   UNL     1       1.937   4.701  17.866  0.00  0.00    +0.000 C 
ATOM      9  C   UNL     1       2.496   3.276  17.898  0.00  0.00    +0.000 C 
ATOM     10  C   UNL     1       3.880   3.335  17.239  0.00  0.00    +0.000 C 
ENDROOT
BRANCH   1  11
ATOM     11  S   UNL     1       2.004   7.850  18.336  0.00  0.00    +0.000 S 
BRANCH  11  12
ATOM     12  C   UNL     1       1.944   7.481  20.109  0.00  0.00    +0.000 C 
BRANCH  12  14
ATOM     13  N   UNL     1       1.005   9.740  20.073  0.00  0.00    +0.000 N 
ATOM     14  C   UNL     1       1.470   8.705  20.880  0.00  0.00    +0.000 C 
ATOM     15  O   UNL     1       1.539   8.727  22.107  0.00  0.00    +0.000 OA
ATOM     16  H   UNL     1       0.851   9.508  19.098  0.00  0.00    +0.000 HD
BRANCH  13  21
ATOM     17  C   UNL     1      -1.277  12.352  21.414  0.00  0.00    +0.000 A 
ATOM     18  C   UNL     1      -0.445  13.476  21.418  0.00  0.00    +0.000 A 
ATOM     19  C   UNL     1       0.864  13.370  20.961  0.00  0.00    +0.000 A 
ATOM     20  C   UNL     1       1.354  12.144  20.508  0.00  0.00    +0.000 A 
ATOM     21  C   UNL     1       0.548  11.005  20.508  0.00  0.00    +0.000 A 
ATOM     22  C   UNL     1      -0.778  11.119  20.950  0.00  0.00    +0.000 A 
BRANCH  17  24
ATOM     23  C   UNL     1      -2.967  12.163  23.364  0.00  0.00    +0.000 C 
ATOM     24  C   UNL     1      -2.686  12.430  21.904  0.00  0.00    +0.000 C 
ATOM     25  O   UNL     1      -3.591  12.711  21.121  0.00  0.00    +0.000 OA
ENDBRANCH  17  24
ENDBRANCH  13  21
ENDBRANCH  12  14
ENDBRANCH  11  12
ENDBRANCH   1  11
BRANCH   5  26
ATOM     26  C   UNL     1       6.608   4.547  16.732  0.00  0.00    +0.000 C 
BRANCH  26  27
ATOM     27  C   UNL     1       6.677   4.490  15.247  0.00  0.00    +0.000 A 
ATOM     28  C   UNL     1       5.961   3.798  14.293  0.00  0.00    +0.000 A 
ATOM     29  C   UNL     1       6.547   4.118  13.045  0.00  0.00    +0.000 A 
ATOM     30  C   UNL     1       7.564   5.003  13.315  0.00  0.00    +0.000 A 
ATOM     31  O   UNL     1       7.649   5.239  14.649  0.00  0.00    +0.000 OA
ENDBRANCH  26  27
ENDBRANCH   5  26
TORSDOF 7
ENDMDL
MODEL 4
REMARK VINA RESULT:      -7.9      1.326      1.627
REMARK  Name = 
REMARK  8 active torsions:
REMARK  status: ('A' for Active; 'I' for Inactive)
REMARK    1  A    between atoms: C_1  and  C_2
REMARK    2  A    between atoms: C_2  and  C_4
REMARK    3  A    between atoms: C_8  and  N_9
REMARK    4  A    between atoms: C_10  and  C_12
REMARK    5  A    between atoms: C_12  and  S_13
REMARK    6  A    between atoms: S_13  and  C_14
REMARK    7  A    between atoms: N_18  and  C_19
REMARK    8  A    between atoms: C_19  and  C_20
REMARK                            x       y       z     vdW  Elec       q    Type
REMARK                         _______ _______ _______ _____ _____    ______ ____
ROOT
ATOM      1  C   UNL     1       3.519   6.410  17.784  0.00  0.00    +0.000 A 
ATOM      2  N   UNL     1       4.512   7.180  17.496  0.00  0.00    +0.000 NA
ATOM      3  C   UNL     1       5.674   6.606  17.015  0.00  0.00    +0.000 A 
ATOM      4  O   UNL     1       6.614   7.319  16.673  0.00  0.00    +0.000 OA
ATOM      5  N   UNL     1       5.751   5.207  16.919  0.00  0.00    +0.000 N 
ATOM      6  C   UNL     1       4.654   4.430  17.208  0.00  0.00    +0.000 A 
ATOM      7  C   UNL     1       3.513   4.963  17.636  0.00  0.00    +0.000 A 
ATOM      8  C   UNL     1       2.437   3.961  17.824  0.00  0.00    +0.000 C 
ATOM      9  C   UNL     1       3.224   2.648  17.774  0.00  0.00    +0.000 C 
ATOM     10  C   UNL     1       4.535   2.952  17.037  0.00  0.00    +0.000 C 
ENDROOT
BRANCH   1  11
ATOM     11  S   UNL     1       2.015   7.065  18.396  0.00  0.00    +0.000 S 
BRANCH  11  12
ATOM     12  C   UNL     1       2.147   8.801  17.894  0.00  0.00    +0.000 C 
BRANCH  12  14
ATOM     13  N   UNL     1       0.802  10.814  18.241  0.00  0.00    +0.000 N 
ATOM     14  C   UNL     1       1.340   9.679  18.840  0.00  0.00    +0.000 C 
ATOM     15  O   UNL     1       1.229   9.371  20.025  0.00  0.00    +0.000 OA
ATOM     16  H   UNL     1       0.835  10.841  17.228  0.00  0.00    +0.000 HD
BRANCH  13  21
ATOM     17  C   UNL     1      -2.133  12.642  19.611  0.00  0.00    +0.000 A 
ATOM     18  C   UNL     1      -1.526  13.776  20.160  0.00  0.00    +0.000 A 
ATOM     19  C   UNL     1      -0.149  13.941  20.060  0.00  0.00    +0.000 A 
ATOM     20  C   UNL     1       0.631  12.975  19.423  0.00  0.00    +0.000 A 
ATOM     21  C   UNL     1       0.051  11.827  18.881  0.00  0.00    +0.000 A 
ATOM     22  C   UNL     1      -1.341  11.673  18.965  0.00  0.00    +0.000 A 
BRANCH  17  24
ATOM     23  C   UNL     1      -4.363  13.052  20.857  0.00  0.00    +0.000 C 
ATOM     24  C   UNL     1      -3.608  12.431  19.706  0.00  0.00    +0.000 C 
ATOM     25  O   UNL     1      -4.187  11.761  18.852  0.00  0.00    +0.000 OA
ENDBRANCH  17  24
ENDBRANCH  13  21
ENDBRANCH  12  14
ENDBRANCH  11  12
ENDBRANCH   1  11
BRANCH   5  26
ATOM     26  C   UNL     1       6.989   4.614  16.412  0.00  0.00    +0.000 C 
BRANCH  26  27
ATOM     27  C   UNL     1       6.954   4.568  14.926  0.00  0.00    +0.000 A 
ATOM     28  C   UNL     1       6.216   3.837  14.018  0.00  0.00    +0.000 A 
ATOM     29  C   UNL     1       6.690   4.199  12.735  0.00  0.00    +0.000 A 
ATOM     30  C   UNL     1       7.667   5.145  12.940  0.00  0.00    +0.000 A 
ATOM     31  O   UNL     1       7.832   5.379  14.267  0.00  0.00    +0.000 OA
ENDBRANCH  26  27
ENDBRANCH   5  26
TORSDOF 7
ENDMDL
MODEL 5
REMARK VINA RESULT:      -7.8      2.867     10.417
REMARK  Name = 
REMARK  8 active torsions:
REMARK  status: ('A' for Active; 'I' for Inactive)
REMARK    1  A    between atoms: C_1  and  C_2
REMARK    2  A    between atoms: C_2  and  C_4
REMARK    3  A    between atoms: C_8  and  N_9
REMARK    4  A    between atoms: C_10  and  C_12
REMARK    5  A    between atoms: C_12  and  S_13
REMARK    6  A    between atoms: S_13  and  C_14
REMARK    7  A    between atoms: N_18  and  C_19
REMARK    8  A    between atoms: C_19  and  C_20
REMARK                            x       y       z     vdW  Elec       q    Type
REMARK                         _______ _______ _______ _____ _____    ______ ____
ROOT
ATOM      1  C   UNL     1       1.100   9.037  20.257  0.00  0.00    +0.000 A 
ATOM      2  N   UNL     1       1.261   8.999  21.535  0.00  0.00    +0.000 NA
ATOM      3  C   UNL     1       0.440   9.779  22.327  0.00  0.00    +0.000 A 
ATOM      4  O   UNL     1       0.529   9.716  23.551  0.00  0.00    +0.000 OA
ATOM      5  N   UNL     1      -0.493  10.628  21.709  0.00  0.00    +0.000 N 
ATOM      6  C   UNL     1      -0.649  10.610  20.343  0.00  0.00    +0.000 A 
ATOM      7  C   UNL     1       0.103   9.838  19.564  0.00  0.00    +0.000 A 
ATOM      8  C   UNL     1      -0.273   9.916  18.132  0.00  0.00    +0.000 C 
ATOM      9  C   UNL     1      -1.173  11.155  18.115  0.00  0.00    +0.000 C 
ATOM     10  C   UNL     1      -1.674  11.351  19.551  0.00  0.00    +0.000 C 
ENDROOT
BRANCH   1  11
ATOM     11  S   UNL     1       2.100   8.074  19.190  0.00  0.00    +0.000 S 
BRANCH  11  12
ATOM     12  C   UNL     1       1.992   6.442  19.970  0.00  0.00    +0.000 C 
BRANCH  12  14
ATOM     13  N   UNL     1       4.187   6.277  18.903  0.00  0.00    +0.000 N 
ATOM     14  C   UNL     1       3.159   5.573  19.522  0.00  0.00    +0.000 C 
ATOM     15  O   UNL     1       3.126   4.357  19.700  0.00  0.00    +0.000 OA
ATOM     16  H   UNL     1       4.146   7.287  18.985  0.00  0.00    +0.000 HD
BRANCH  13  21
ATOM     17  C   UNL     1       6.593   5.034  16.354  0.00  0.00    +0.000 A 
ATOM     18  C   UNL     1       7.685   4.674  17.151  0.00  0.00    +0.000 A 
ATOM     19  C   UNL     1       7.615   4.828  18.532  0.00  0.00    +0.000 A 
ATOM     20  C   UNL     1       6.464   5.350  19.124  0.00  0.00    +0.000 A 
ATOM     21  C   UNL     1       5.367   5.730  18.349  0.00  0.00    +0.000 A 
ATOM     22  C   UNL     1       5.433   5.554  16.959  0.00  0.00    +0.000 A 
BRANCH  17  24
ATOM     23  C   UNL     1       5.517   4.150  14.174  0.00  0.00    +0.000 C 
ATOM     24  C   UNL     1       6.637   4.887  14.869  0.00  0.00    +0.000 C 
ATOM     25  O   UNL     1       7.575   5.366  14.234  0.00  0.00    +0.000 OA
ENDBRANCH  17  24
ENDBRANCH  13  21
ENDBRANCH  12  14
ENDBRANCH  11  12
ENDBRANCH   1  11
BRANCH   5  26
ATOM     26  C   UNL     1      -1.352  11.451  22.561  0.00  0.00    +0.000 C 
BRANCH  26  27
ATOM     27  C   UNL     1      -0.857  12.854  22.569  0.00  0.00    +0.000 A 
ATOM     28  C   UNL     1       0.096  13.526  21.831  0.00  0.00    +0.000 A 
ATOM     29  C   UNL     1       0.155  14.838  22.358  0.00  0.00    +0.000 A 
ATOM     30  C   UNL     1      -0.781  14.891  23.364  0.00  0.00    +0.000 A 
ATOM     31  O   UNL     1      -1.404  13.692  23.498  0.00  0.00    +0.000 OA
ENDBRANCH  26  27
ENDBRANCH   5  26
TORSDOF 7
ENDMDL
MODEL 6
REMARK VINA RESULT:      -7.8      2.682      3.990
REMARK  Name = 
REMARK  8 active torsions:
REMARK  status: ('A' for Active; 'I' for Inactive)
REMARK    1  A    between atoms: C_1  and  C_2
REMARK    2  A    between atoms: C_2  and  C_4
REMARK    3  A    between atoms: C_8  and  N_9
REMARK    4  A    between atoms: C_10  and  C_12
REMARK    5  A    between atoms: C_12  and  S_13
REMARK    6  A    between atoms: S_13  and  C_14
REMARK    7  A    between atoms: N_18  and  C_19
REMARK    8  A    between atoms: C_19  and  C_20
REMARK                            x       y       z     vdW  Elec       q    Type
REMARK                         _______ _______ _______ _____ _____    ______ ____
ROOT
ATOM      1  C   UNL     1       3.678   6.787  18.000  0.00  0.00    +0.000 A 
ATOM      2  N   UNL     1       4.780   7.398  17.732  0.00  0.00    +0.000 NA
ATOM      3  C   UNL     1       5.841   6.660  17.240  0.00  0.00    +0.000 A 
ATOM      4  O   UNL     1       6.883   7.224  16.917  0.00  0.00    +0.000 OA
ATOM      5  N   UNL     1       5.698   5.268  17.114  0.00  0.00    +0.000 N 
ATOM      6  C   UNL     1       4.492   4.667  17.383  0.00  0.00    +0.000 A 
ATOM      7  C   UNL     1       3.446   5.363  17.820  0.00  0.00    +0.000 A 
ATOM      8  C   UNL     1       2.225   4.537  17.982  0.00  0.00    +0.000 C 
ATOM      9  C   UNL     1       2.797   3.119  17.906  0.00  0.00    +0.000 C 
ATOM     10  C   UNL     1       4.144   3.230  17.179  0.00  0.00    +0.000 C 
ENDROOT
BRANCH   1  11
ATOM     11  S   UNL     1       2.291   7.656  18.623  0.00  0.00    +0.000 S 
BRANCH  11  12
ATOM     12  C   UNL     1       2.195   9.053  17.472  0.00  0.00    +0.000 C 
BRANCH  12  14
ATOM     13  N   UNL     1       2.300  11.459  17.901  0.00  0.00    +0.000 N 
ATOM     14  C   UNL     1       1.627  10.274  18.183  0.00  0.00    +0.000 C 
ATOM     15  O   UNL     1       0.670  10.155  18.945  0.00  0.00    +0.000 OA
ATOM     16  H   UNL     1       2.955  11.426  17.127  0.00  0.00    +0.000 HD
BRANCH  13  21
ATOM     17  C   UNL     1       2.608  15.102  18.587  0.00  0.00    +0.000 A 
ATOM     18  C   UNL     1       1.540  15.313  19.463  0.00  0.00    +0.000 A 
ATOM     19  C   UNL     1       0.730  14.246  19.839  0.00  0.00    +0.000 A 
ATOM     20  C   UNL     1       0.974  12.967  19.336  0.00  0.00    +0.000 A 
ATOM     21  C   UNL     1       2.025  12.734  18.448  0.00  0.00    +0.000 A 
ATOM     22  C   UNL     1       2.852  13.808  18.087  0.00  0.00    +0.000 A 
BRANCH  17  24
ATOM     23  C   UNL     1       4.960  16.176  18.510  0.00  0.00    +0.000 C 
ATOM     24  C   UNL     1       3.492  16.226  18.158  0.00  0.00    +0.000 C 
ATOM     25  O   UNL     1       3.020  17.170  17.528  0.00  0.00    +0.000 OA
ENDBRANCH  17  24
ENDBRANCH  13  21
ENDBRANCH  12  14
ENDBRANCH  11  12
ENDBRANCH   1  11
BRANCH   5  26
ATOM     26  C   UNL     1       6.831   4.500  16.597  0.00  0.00    +0.000 C 
BRANCH  26  27
ATOM     27  C   UNL     1       6.814   4.515  15.110  0.00  0.00    +0.000 A 
ATOM     28  C   UNL     1       6.054   3.857  14.165  0.00  0.00    +0.000 A 
ATOM     29  C   UNL     1       6.562   4.247  12.903  0.00  0.00    +0.000 A 
ATOM     30  C   UNL     1       7.579   5.136  13.157  0.00  0.00    +0.000 A 
ATOM     31  O   UNL     1       7.738   5.309  14.494  0.00  0.00    +0.000 OA
ENDBRANCH  26  27
ENDBRANCH   5  26
TORSDOF 7
ENDMDL
MODEL 7
REMARK VINA RESULT:      -7.7      2.511      2.996
REMARK  Name = 
REMARK  8 active torsions:
REMARK  status: ('A' for Active; 'I' for Inactive)
REMARK    1  A    between atoms: C_1  and  C_2
REMARK    2  A    between atoms: C_2  and  C_4
REMARK    3  A    between atoms: C_8  and  N_9
REMARK    4  A    between atoms: C_10  and  C_12
REMARK    5  A    between atoms: C_12  and  S_13
REMARK    6  A    between atoms: S_13  and  C_14
REMARK    7  A    between atoms: N_18  and  C_19
REMARK    8  A    between atoms: C_19  and  C_20
REMARK                            x       y       z     vdW  Elec       q    Type
REMARK                         _______ _______ _______ _____ _____    ______ ____
ROOT
ATOM      1  C   UNL     1       3.246   6.541  17.781  0.00  0.00    +0.000 A 
ATOM      2  N   UNL     1       4.280   7.270  17.538  0.00  0.00    +0.000 NA
ATOM      3  C   UNL     1       5.447   6.648  17.134  0.00  0.00    +0.000 A 
ATOM      4  O   UNL     1       6.430   7.322  16.835  0.00  0.00    +0.000 OA
ATOM      5  N   UNL     1       5.479   5.245  17.066  0.00  0.00    +0.000 N 
ATOM      6  C   UNL     1       4.341   4.512  17.304  0.00  0.00    +0.000 A 
ATOM      7  C   UNL     1       3.197   5.093  17.656  0.00  0.00    +0.000 A 
ATOM      8  C   UNL     1       2.077   4.132  17.798  0.00  0.00    +0.000 C 
ATOM      9  C   UNL     1       2.818   2.792  17.816  0.00  0.00    +0.000 C 
ATOM     10  C   UNL     1       4.179   3.037  17.150  0.00  0.00    +0.000 C 
ENDROOT
BRANCH   1  11
ATOM     11  S   UNL     1       1.734   7.259  18.294  0.00  0.00    +0.000 S 
BRANCH  11  12
ATOM     12  C   UNL     1       2.117   9.026  18.182  0.00  0.00    +0.000 C 
BRANCH  12  14
ATOM     13  N   UNL     1       1.283  10.061  20.236  0.00  0.00    +0.000 N 
ATOM     14  C   UNL     1       1.038   9.839  18.884  0.00  0.00    +0.000 C 
ATOM     15  O   UNL     1       0.048  10.217  18.262  0.00  0.00    +0.000 OA
ATOM     16  H   UNL     1       2.217   9.836  20.561  0.00  0.00    +0.000 HD
BRANCH  13  21
ATOM     17  C   UNL     1      -0.541  12.852  21.883  0.00  0.00    +0.000 A 
ATOM     18  C   UNL     1      -1.242  12.175  22.887  0.00  0.00    +0.000 A 
ATOM     19  C   UNL     1      -1.096  10.799  23.026  0.00  0.00    +0.000 A 
ATOM     20  C   UNL     1      -0.260  10.089  22.162  0.00  0.00    +0.000 A 
ATOM     21  C   UNL     1       0.439  10.740  21.144  0.00  0.00    +0.000 A 
ATOM     22  C   UNL     1       0.305  12.130  21.019  0.00  0.00    +0.000 A 
BRANCH  17  24
ATOM     23  C   UNL     1       0.068  15.252  22.634  0.00  0.00    +0.000 C 
ATOM     24  C   UNL     1      -0.680  14.328  21.703  0.00  0.00    +0.000 C 
ATOM     25  O   UNL     1      -1.392  14.769  20.803  0.00  0.00    +0.000 OA
ENDBRANCH  17  24
ENDBRANCH  13  21
ENDBRANCH  12  14
ENDBRANCH  11  12
ENDBRANCH   1  11
BRANCH   5  26
ATOM     26  C   UNL     1       6.722   4.600  16.641  0.00  0.00    +0.000 C 
BRANCH  26  27
ATOM     27  C   UNL     1       6.780   4.548  15.156  0.00  0.00    +0.000 A 
ATOM     28  C   UNL     1       6.100   3.812  14.207  0.00  0.00    +0.000 A 
ATOM     29  C   UNL     1       6.654   4.168  12.955  0.00  0.00    +0.000 A 
ATOM     30  C   UNL     1       7.616   5.115  13.215  0.00  0.00    +0.000 A 
ATOM     31  O   UNL     1       7.698   5.356  14.549  0.00  0.00    +0.000 OA
ENDBRANCH  26  27
ENDBRANCH   5  26
TORSDOF 7
ENDMDL
MODEL 8
REMARK VINA RESULT:      -7.7      3.607      4.496
REMARK  Name = 
REMARK  8 active torsions:
REMARK  status: ('A' for Active; 'I' for Inactive)
REMARK    1  A    between atoms: C_1  and  C_2
REMARK    2  A    between atoms: C_2  and  C_4
REMARK    3  A    between atoms: C_8  and  N_9
REMARK    4  A    between atoms: C_10  and  C_12
REMARK    5  A    between atoms: C_12  and  S_13
REMARK    6  A    between atoms: S_13  and  C_14
REMARK    7  A    between atoms: N_18  and  C_19
REMARK    8  A    between atoms: C_19  and  C_20
REMARK                            x       y       z     vdW  Elec       q    Type
REMARK                         _______ _______ _______ _____ _____    ______ ____
ROOT
ATOM      1  C   UNL     1       1.671   7.513  20.001  0.00  0.00    +0.000 A 
ATOM      2  N   UNL     1       2.037   8.290  19.040  0.00  0.00    +0.000 NA
ATOM      3  C   UNL     1       2.888   7.787  18.073  0.00  0.00    +0.000 A 
ATOM      4  O   UNL     1       3.203   8.485  17.111  0.00  0.00    +0.000 OA
ATOM      5  N   UNL     1       3.370   6.475  18.208  0.00  0.00    +0.000 N 
ATOM      6  C   UNL     1       2.927   5.675  19.235  0.00  0.00    +0.000 A 
ATOM      7  C   UNL     1       2.078   6.125  20.154  0.00  0.00    +0.000 A 
ATOM      8  C   UNL     1       1.673   5.085  21.130  0.00  0.00    +0.000 C 
ATOM      9  C   UNL     1       2.707   3.987  20.860  0.00  0.00    +0.000 C 
ATOM     10  C   UNL     1       3.243   4.232  19.443  0.00  0.00    +0.000 C 
ENDROOT
BRANCH   1  11
ATOM     11  S   UNL     1       0.594   8.078  21.260  0.00  0.00    +0.000 S 
BRANCH  11  12
ATOM     12  C   UNL     1       0.960   9.853  21.279  0.00  0.00    +0.000 C 
BRANCH  12  14
ATOM     13  N   UNL     1      -0.492  11.722  21.893  0.00  0.00    +0.000 N 
ATOM     14  C   UNL     1       0.111  10.548  22.334  0.00  0.00    +0.000 C 
ATOM     15  O   UNL     1       0.025  10.077  23.466  0.00  0.00    +0.000 OA
ATOM     16  H   UNL     1      -0.467  11.887  20.893  0.00  0.00    +0.000 HD
BRANCH  13  21
ATOM     17  C   UNL     1      -3.476  13.080  23.649  0.00  0.00    +0.000 A 
ATOM     18  C   UNL     1      -2.964  14.257  24.205  0.00  0.00    +0.000 A 
ATOM     19  C   UNL     1      -1.636  14.606  23.983  0.00  0.00    +0.000 A 
ATOM     20  C   UNL     1      -0.811  13.782  23.216  0.00  0.00    +0.000 A 
ATOM     21  C   UNL     1      -1.295  12.596  22.663  0.00  0.00    +0.000 A 
ATOM     22  C   UNL     1      -2.640  12.256  22.872  0.00  0.00    +0.000 A 
BRANCH  17  24
ATOM     23  C   UNL     1      -5.956  13.161  22.916  0.00  0.00    +0.000 C 
ATOM     24  C   UNL     1      -4.895  12.673  23.873  0.00  0.00    +0.000 C 
ATOM     25  O   UNL     1      -5.181  11.948  24.825  0.00  0.00    +0.000 OA
ENDBRANCH  17  24
ENDBRANCH  13  21
ENDBRANCH  12  14
ENDBRANCH  11  12
ENDBRANCH   1  11
BRANCH   5  26
ATOM     26  C   UNL     1       4.274   5.959  17.180  0.00  0.00    +0.000 C 
BRANCH  26  27
ATOM     27  C   UNL     1       5.683   6.250  17.555  0.00  0.00    +0.000 A 
ATOM     28  C   UNL     1       6.542   5.718  18.495  0.00  0.00    +0.000 A 
ATOM     29  C   UNL     1       7.739   6.467  18.410  0.00  0.00    +0.000 A 
ATOM     30  C   UNL     1       7.545   7.390  17.409  0.00  0.00    +0.000 A 
ATOM     31  O   UNL     1       6.300   7.264  16.881  0.00  0.00    +0.000 OA
ENDBRANCH  26  27
ENDBRANCH   5  26
TORSDOF 7
ENDMDL
MODEL 9
REMARK VINA RESULT:      -7.7      3.743     10.691
REMARK  Name = 
REMARK  8 active torsions:
REMARK  status: ('A' for Active; 'I' for Inactive)
REMARK    1  A    between atoms: C_1  and  C_2
REMARK    2  A    between atoms: C_2  and  C_4
REMARK    3  A    between atoms: C_8  and  N_9
REMARK    4  A    between atoms: C_10  and  C_12
REMARK    5  A    between atoms: C_12  and  S_13
REMARK    6  A    between atoms: S_13  and  C_14
REMARK    7  A    between atoms: N_18  and  C_19
REMARK    8  A    between atoms: C_19  and  C_20
REMARK                            x       y       z     vdW  Elec       q    Type
REMARK                         _______ _______ _______ _____ _____    ______ ____
ROOT
ATOM      1  C   UNL     1      -1.560  11.253  18.903  0.00  0.00    +0.000 A 
ATOM      2  N   UNL     1      -1.888  11.902  19.967  0.00  0.00    +0.000 NA
ATOM      3  C   UNL     1      -3.176  12.395  20.068  0.00  0.00    +0.000 A 
ATOM      4  O   UNL     1      -3.536  12.963  21.097  0.00  0.00    +0.000 OA
ATOM      5  N   UNL     1      -4.055  12.226  18.986  0.00  0.00    +0.000 N 
ATOM      6  C   UNL     1      -3.669  11.499  17.885  0.00  0.00    +0.000 A 
ATOM      7  C   UNL     1      -2.448  10.982  17.782  0.00  0.00    +0.000 A 
ATOM      8  C   UNL     1      -2.259  10.178  16.551  0.00  0.00    +0.000 C 
ATOM      9  C   UNL     1      -3.483  10.583  15.725  0.00  0.00    +0.000 C 
ATOM     10  C   UNL     1      -4.520  11.124  16.718  0.00  0.00    +0.000 C 
ENDROOT
BRANCH   1  11
ATOM     11  S   UNL     1       0.050  10.597  18.704  0.00  0.00    +0.000 S 
BRANCH  11  12
ATOM     12  C   UNL     1       0.531  10.295  20.425  0.00  0.00    +0.000 C 
BRANCH  12  14
ATOM     13  N   UNL     1       1.727   8.424  19.399  0.00  0.00    +0.000 N 
ATOM     14  C   UNL     1       1.130   8.902  20.562  0.00  0.00    +0.000 C 
ATOM     15  O   UNL     1       1.041   8.294  21.627  0.00  0.00    +0.000 OA
ATOM     16  H   UNL     1       1.871   9.104  18.661  0.00  0.00    +0.000 HD
BRANCH  13  21
ATOM     17  C   UNL     1       2.471   4.816  19.916  0.00  0.00    +0.000 A 
ATOM     18  C   UNL     1       3.424   4.581  18.920  0.00  0.00    +0.000 A 
ATOM     19  C   UNL     1       3.830   5.621  18.091  0.00  0.00    +0.000 A 
ATOM     20  C   UNL     1       3.283   6.896  18.242  0.00  0.00    +0.000 A 
ATOM     21  C   UNL     1       2.320   7.153  19.219  0.00  0.00    +0.000 A 
ATOM     22  C   UNL     1       1.927   6.107  20.067  0.00  0.00    +0.000 A 
BRANCH  17  24
ATOM     23  C   UNL     1       1.280   2.540  20.222  0.00  0.00    +0.000 C 
ATOM     24  C   UNL     1       2.008   3.721  20.819  0.00  0.00    +0.000 C 
ATOM     25  O   UNL     1       2.226   3.791  22.027  0.00  0.00    +0.000 OA
ENDBRANCH  17  24
ENDBRANCH  13  21
ENDBRANCH  12  14
ENDBRANCH  11  12
ENDBRANCH   1  11
BRANCH   5  26
ATOM     26  C   UNL     1      -5.413  12.757  19.107  0.00  0.00    +0.000 C 
BRANCH  26  27
ATOM     27  C   UNL     1      -6.287  11.758  19.777  0.00  0.00    +0.000 A 
ATOM     28  C   UNL     1      -6.747  10.508  19.415  0.00  0.00    +0.000 A 
ATOM     29  C   UNL     1      -7.603  10.081  20.458  0.00  0.00    +0.000 A 
ATOM     30  C   UNL     1      -7.591  11.084  21.399  0.00  0.00    +0.000 A 
ATOM     31  O   UNL     1      -6.792  12.105  20.997  0.00  0.00    +0.000 OA
ENDBRANCH  26  27
ENDBRANCH   5  26
TORSDOF 7
ENDMDL
