MODEL 1
REMARK VINA RESULT:      -8.9      0.000      0.000
REMARK  Name = 
REMARK  5 active torsions:
REMARK  status: ('A' for Active; 'I' for Inactive)
REMARK    1  A    between atoms: C_1  and  C_2
REMARK    2  A    between atoms: C_4  and  N_5
REMARK    3  A    between atoms: C_9  and  O_11
REMARK    4  A    between atoms: O_11  and  C_12
REMARK    5  A    between atoms: C_15  and  C_16
REMARK                            x       y       z     vdW  Elec       q    Type
REMARK                         _______ _______ _______ _____ _____    ______ ____
ROOT
ATOM      1  N   UNL     1       2.381   7.258  18.432  0.00  0.00    +0.000 N 
ATOM      2  C   UNL     1       2.423   8.484  17.591  0.00  0.00    +0.000 C 
ATOM      3  C   UNL     1       1.193   9.370  17.883  0.00  0.00    +0.000 C 
ATOM      4  N   UNL     1       1.072   9.654  19.314  0.00  0.00    +0.000 N 
ATOM      5  C   UNL     1       1.187  10.951  19.778  0.00  0.00    +0.000 C 
ATOM      6  O   UNL     1       1.356  11.927  19.054  0.00  0.00    +0.000 OA
ATOM      7  C   UNL     1       1.117   8.470  20.184  0.00  0.00    +0.000 C 
ATOM      8  C   UNL     1       2.356   7.593  19.882  0.00  0.00    +0.000 C 
ENDROOT
BRANCH   1  12
ATOM      9  C   UNL     1       6.813   5.667  16.839  0.00  0.00    +0.000 C 
ATOM     10  C   UNL     1       5.421   5.413  17.331  0.00  0.00    +0.000 A 
ATOM     11  C   UNL     1       4.579   6.462  17.680  0.00  0.00    +0.000 A 
ATOM     12  C   UNL     1       3.267   6.204  18.097  0.00  0.00    +0.000 A 
ATOM     13  C   UNL     1       2.845   4.837  18.137  0.00  0.00    +0.000 A 
ATOM     14  C   UNL     1       1.535   4.404  18.474  0.00  0.00    +0.000 A 
ATOM     15  C   UNL     1       1.192   3.050  18.505  0.00  0.00    +0.000 A 
ATOM     16  C   UNL     1       2.142   2.096  18.176  0.00  0.00    +0.000 A 
ATOM     17  C   UNL     1       3.424   2.505  17.811  0.00  0.00    +0.000 A 
ATOM     18  C   UNL     1       3.788   3.844  17.781  0.00  0.00    +0.000 A 
ATOM     19  N   UNL     1       5.037   4.123  17.393  0.00  0.00    +0.000 NA
ENDBRANCH   1  12
BRANCH   5  20
ATOM     20  O   UNL     1       1.128  11.021  21.164  0.00  0.00    +0.000 OA
BRANCH  20  21
ATOM     21  C   UNL     1      -0.096  11.431  21.716  0.00  0.00    +0.000 A 
ATOM     22  C   UNL     1      -0.662  10.615  22.692  0.00  0.00    +0.000 A 
ATOM     23  C   UNL     1      -1.793  11.057  23.383  0.00  0.00    +0.000 A 
ATOM     24  C   UNL     1      -2.351  12.318  23.106  0.00  0.00    +0.000 A 
ATOM     25  C   UNL     1      -1.763  13.123  22.118  0.00  0.00    +0.000 A 
ATOM     26  C   UNL     1      -0.633  12.686  21.430  0.00  0.00    +0.000 A 
BRANCH  24  27
ATOM     27  C   UNL     1      -3.554  12.832  23.859  0.00  0.00    +0.000 C 
ATOM     28  F   UNL     1      -4.554  13.280  23.052  0.00  0.00    +0.000 F 
ATOM     29  F   UNL     1      -4.114  11.873  24.650  0.00  0.00    +0.000 F 
ATOM     30  F   UNL     1      -3.247  13.866  24.688  0.00  0.00    +0.000 F 
ENDBRANCH  24  27
ENDBRANCH  20  21
ENDBRANCH   5  20
TORSDOF 4
ENDMDL
MODEL 2
REMARK VINA RESULT:      -8.8      0.336      1.196
REMARK  Name = 
REMARK  5 active torsions:
REMARK  status: ('A' for Active; 'I' for Inactive)
REMARK    1  A    between atoms: C_1  and  C_2
REMARK    2  A    between atoms: C_4  and  N_5
REMARK    3  A    between atoms: C_9  and  O_11
REMARK    4  A    between atoms: O_11  and  C_12
REMARK    5  A    between atoms: C_15  and  C_16
REMARK                            x       y       z     vdW  Elec       q    Type
REMARK                         _______ _______ _______ _____ _____    ______ ____
ROOT
ATOM      1  N   UNL     1       2.263   7.327  18.458  0.00  0.00    +0.000 N 
ATOM      2  C   UNL     1       2.190   8.561  17.631  0.00  0.00    +0.000 C 
ATOM      3  C   UNL     1       0.970   9.409  18.050  0.00  0.00    +0.000 C 
ATOM      4  N   UNL     1       0.977   9.675  19.489  0.00  0.00    +0.000 N 
ATOM      5  C   UNL     1       1.099  10.970  19.956  0.00  0.00    +0.000 C 
ATOM      6  O   UNL     1       1.171  11.958  19.232  0.00  0.00    +0.000 OA
ATOM      7  C   UNL     1       1.137   8.484  20.336  0.00  0.00    +0.000 C 
ATOM      8  C   UNL     1       2.365   7.646  19.907  0.00  0.00    +0.000 C 
ENDROOT
BRANCH   1  12
ATOM      9  C   UNL     1       6.574   5.879  16.449  0.00  0.00    +0.000 C 
ATOM     10  C   UNL     1       5.238   5.581  17.059  0.00  0.00    +0.000 A 
ATOM     11  C   UNL     1       4.404   6.601  17.499  0.00  0.00    +0.000 A 
ATOM     12  C   UNL     1       3.141   6.301  18.027  0.00  0.00    +0.000 A 
ATOM     13  C   UNL     1       2.760   4.923  18.081  0.00  0.00    +0.000 A 
ATOM     14  C   UNL     1       1.497   4.450  18.526  0.00  0.00    +0.000 A 
ATOM     15  C   UNL     1       1.194   3.087  18.565  0.00  0.00    +0.000 A 
ATOM     16  C   UNL     1       2.134   2.164  18.137  0.00  0.00    +0.000 A 
ATOM     17  C   UNL     1       3.367   2.613  17.665  0.00  0.00    +0.000 A 
ATOM     18  C   UNL     1       3.693   3.962  17.626  0.00  0.00    +0.000 A 
ATOM     19  N   UNL     1       4.895   4.280  17.133  0.00  0.00    +0.000 NA
ENDBRANCH   1  12
BRANCH   5  20
ATOM     20  O   UNL     1       1.169  11.024  21.343  0.00  0.00    +0.000 OA
BRANCH  20  21
ATOM     21  C   UNL     1       0.018  11.473  22.008  0.00  0.00    +0.000 A 
ATOM     22  C   UNL     1      -0.437  12.754  21.703  0.00  0.00    +0.000 A 
ATOM     23  C   UNL     1      -1.664  13.185  22.216  0.00  0.00    +0.000 A 
ATOM     24  C   UNL     1      -2.439  12.334  23.024  0.00  0.00    +0.000 A 
ATOM     25  C   UNL     1      -1.960  11.047  23.317  0.00  0.00    +0.000 A 
ATOM     26  C   UNL     1      -0.740  10.614  22.804  0.00  0.00    +0.000 A 
BRANCH  24  27
ATOM     27  C   UNL     1      -3.780  12.765  23.565  0.00  0.00    +0.000 C 
ATOM     28  F   UNL     1      -4.142  12.120  24.707  0.00  0.00    +0.000 F 
ATOM     29  F   UNL     1      -3.813  14.095  23.862  0.00  0.00    +0.000 F 
ATOM     30  F   UNL     1      -4.791  12.557  22.678  0.00  0.00    +0.000 F 
ENDBRANCH  24  27
ENDBRANCH  20  21
ENDBRANCH   5  20
TORSDOF 4
ENDMDL
MODEL 3
REMARK VINA RESULT:      -8.7      2.965      4.324
REMARK  Name = 
REMARK  5 active torsions:
REMARK  status: ('A' for Active; 'I' for Inactive)
REMARK    1  A    between atoms: C_1  and  C_2
REMARK    2  A    between atoms: C_4  and  N_5
REMARK    3  A    between atoms: C_9  and  O_11
REMARK    4  A    between atoms: O_11  and  C_12
REMARK    5  A    between atoms: C_15  and  C_16
REMARK                            x       y       z     vdW  Elec       q    Type
REMARK                         _______ _______ _______ _____ _____    ______ ____
ROOT
ATOM      1  N   UNL     1       2.735   7.075  18.696  0.00  0.00    +0.000 N 
ATOM      2  C   UNL     1       1.996   7.021  19.986  0.00  0.00    +0.000 C 
ATOM      3  C   UNL     1       1.831   8.444  20.562  0.00  0.00    +0.000 C 
ATOM      4  N   UNL     1       1.222   9.346  19.583  0.00  0.00    +0.000 N 
ATOM      5  C   UNL     1      -0.018   9.906  19.830  0.00  0.00    +0.000 C 
ATOM      6  O   UNL     1      -0.659   9.727  20.860  0.00  0.00    +0.000 OA
ATOM      7  C   UNL     1       1.874   9.357  18.266  0.00  0.00    +0.000 C 
ATOM      8  C   UNL     1       2.030   7.925  17.700  0.00  0.00    +0.000 C 
ENDROOT
BRANCH   1  12
ATOM      9  C   UNL     1       2.197   2.210  17.827  0.00  0.00    +0.000 C 
ATOM     10  C   UNL     1       2.975   3.487  17.734  0.00  0.00    +0.000 A 
ATOM     11  C   UNL     1       2.463   4.679  18.231  0.00  0.00    +0.000 A 
ATOM     12  C   UNL     1       3.225   5.853  18.171  0.00  0.00    +0.000 A 
ATOM     13  C   UNL     1       4.531   5.763  17.593  0.00  0.00    +0.000 A 
ATOM     14  C   UNL     1       5.456   6.837  17.511  0.00  0.00    +0.000 A 
ATOM     15  C   UNL     1       6.713   6.683  16.921  0.00  0.00    +0.000 A 
ATOM     16  C   UNL     1       7.087   5.446  16.421  0.00  0.00    +0.000 A 
ATOM     17  C   UNL     1       6.205   4.372  16.522  0.00  0.00    +0.000 A 
ATOM     18  C   UNL     1       4.948   4.505  17.097  0.00  0.00    +0.000 A 
ATOM     19  N   UNL     1       4.193   3.402  17.163  0.00  0.00    +0.000 NA
ENDBRANCH   1  12
BRANCH   5  20
ATOM     20  O   UNL     1      -0.473  10.666  18.760  0.00  0.00    +0.000 OA
BRANCH  20  21
ATOM     21  C   UNL     1      -1.863  10.831  18.659  0.00  0.00    +0.000 A 
ATOM     22  C   UNL     1      -2.424  11.930  19.305  0.00  0.00    +0.000 A 
ATOM     23  C   UNL     1      -3.775  12.227  19.104  0.00  0.00    +0.000 A 
ATOM     24  C   UNL     1      -4.560  11.432  18.250  0.00  0.00    +0.000 A 
ATOM     25  C   UNL     1      -3.973  10.330  17.609  0.00  0.00    +0.000 A 
ATOM     26  C   UNL     1      -2.626  10.034  17.806  0.00  0.00    +0.000 A 
BRANCH  24  27
ATOM     27  C   UNL     1      -6.014  11.749  17.992  0.00  0.00    +0.000 C 
ATOM     28  F   UNL     1      -6.823  10.656  18.010  0.00  0.00    +0.000 F 
ATOM     29  F   UNL     1      -6.526  12.608  18.919  0.00  0.00    +0.000 F 
ATOM     30  F   UNL     1      -6.211  12.344  16.784  0.00  0.00    +0.000 F 
ENDBRANCH  24  27
ENDBRANCH  20  21
ENDBRANCH   5  20
TORSDOF 4
ENDMDL
MODEL 4
REMARK VINA RESULT:      -8.7      1.097      1.130
REMARK  Name = 
REMARK  5 active torsions:
REMARK  status: ('A' for Active; 'I' for Inactive)
REMARK    1  A    between atoms: C_1  and  C_2
REMARK    2  A    between atoms: C_4  and  N_5
REMARK    3  A    between atoms: C_9  and  O_11
REMARK    4  A    between atoms: O_11  and  C_12
REMARK    5  A    between atoms: C_15  and  C_16
REMARK                            x       y       z     vdW  Elec       q    Type
REMARK                         _______ _______ _______ _____ _____    ______ ____
ROOT
ATOM      1  N   UNL     1       1.877   7.600  18.981  0.00  0.00    +0.000 N 
ATOM      2  C   UNL     1       1.981   8.785  18.089  0.00  0.00    +0.000 C 
ATOM      3  C   UNL     1       0.810   9.754  18.355  0.00  0.00    +0.000 C 
ATOM      4  N   UNL     1       0.722  10.104  19.774  0.00  0.00    +0.000 N 
ATOM      5  C   UNL     1       0.919  11.410  20.182  0.00  0.00    +0.000 C 
ATOM      6  O   UNL     1       1.137  12.343  19.417  0.00  0.00    +0.000 OA
ATOM      7  C   UNL     1       0.707   8.956  20.692  0.00  0.00    +0.000 C 
ATOM      8  C   UNL     1       1.888   7.995  20.415  0.00  0.00    +0.000 C 
ENDROOT
BRANCH   1  12
ATOM      9  C   UNL     1       5.648   5.536  16.485  0.00  0.00    +0.000 C 
ATOM     10  C   UNL     1       4.531   5.465  17.481  0.00  0.00    +0.000 A 
ATOM     11  C   UNL     1       3.760   6.581  17.778  0.00  0.00    +0.000 A 
ATOM     12  C   UNL     1       2.694   6.481  18.683  0.00  0.00    +0.000 A 
ATOM     13  C   UNL     1       2.441   5.198  19.264  0.00  0.00    +0.000 A 
ATOM     14  C   UNL     1       1.367   4.907  20.146  0.00  0.00    +0.000 A 
ATOM     15  C   UNL     1       1.184   3.633  20.688  0.00  0.00    +0.000 A 
ATOM     16  C   UNL     1       2.054   2.611  20.343  0.00  0.00    +0.000 A 
ATOM     17  C   UNL     1       3.094   2.871  19.452  0.00  0.00    +0.000 A 
ATOM     18  C   UNL     1       3.299   4.131  18.908  0.00  0.00    +0.000 A 
ATOM     19  N   UNL     1       4.314   4.261  18.046  0.00  0.00    +0.000 NA
ENDBRANCH   1  12
BRANCH   5  20
ATOM     20  O   UNL     1       0.879  11.539  21.565  0.00  0.00    +0.000 OA
BRANCH  20  21
ATOM     21  C   UNL     1      -0.292  12.090  22.106  0.00  0.00    +0.000 A 
ATOM     22  C   UNL     1      -1.244  11.202  22.603  0.00  0.00    +0.000 A 
ATOM     23  C   UNL     1      -2.352  11.702  23.293  0.00  0.00    +0.000 A 
ATOM     24  C   UNL     1      -2.503  13.085  23.495  0.00  0.00    +0.000 A 
ATOM     25  C   UNL     1      -1.530  13.960  22.986  0.00  0.00    +0.000 A 
ATOM     26  C   UNL     1      -0.424  13.465  22.300  0.00  0.00    +0.000 A 
BRANCH  24  27
ATOM     27  C   UNL     1      -3.674  13.648  24.263  0.00  0.00    +0.000 C 
ATOM     28  F   UNL     1      -4.775  13.872  23.495  0.00  0.00    +0.000 F 
ATOM     29  F   UNL     1      -4.080  12.817  25.264  0.00  0.00    +0.000 F 
ATOM     30  F   UNL     1      -3.383  14.836  24.861  0.00  0.00    +0.000 F 
ENDBRANCH  24  27
ENDBRANCH  20  21
ENDBRANCH   5  20
TORSDOF 4
ENDMDL
MODEL 5
REMARK VINA RESULT:      -8.5      1.294      1.369
REMARK  Name = 
REMARK  5 active torsions:
REMARK  status: ('A' for Active; 'I' for Inactive)
REMARK    1  A    between atoms: C_1  and  C_2
REMARK    2  A    between atoms: C_4  and  N_5
REMARK    3  A    between atoms: C_9  and  O_11
REMARK    4  A    between atoms: O_11  and  C_12
REMARK    5  A    between atoms: C_15  and  C_16
REMARK                            x       y       z     vdW  Elec       q    Type
REMARK                         _______ _______ _______ _____ _____    ______ ____
ROOT
ATOM      1  N   UNL     1       2.180   7.306  19.057  0.00  0.00    +0.000 N 
ATOM      2  C   UNL     1       2.401   8.366  18.037  0.00  0.00    +0.000 C 
ATOM      3  C   UNL     1       1.202   9.338  18.014  0.00  0.00    +0.000 C 
ATOM      4  N   UNL     1       0.923   9.869  19.350  0.00  0.00    +0.000 N 
ATOM      5  C   UNL     1       1.060  11.221  19.604  0.00  0.00    +0.000 C 
ATOM      6  O   UNL     1       1.377  12.050  18.757  0.00  0.00    +0.000 OA
ATOM      7  C   UNL     1       0.787   8.851  20.402  0.00  0.00    +0.000 C 
ATOM      8  C   UNL     1       1.997   7.886  20.415  0.00  0.00    +0.000 C 
ENDROOT
BRANCH   1  12
ATOM      9  C   UNL     1       6.336   5.065  17.503  0.00  0.00    +0.000 C 
ATOM     10  C   UNL     1       5.054   5.074  18.279  0.00  0.00    +0.000 A 
ATOM     11  C   UNL     1       4.247   6.203  18.323  0.00  0.00    +0.000 A 
ATOM     12  C   UNL     1       3.033   6.175  19.021  0.00  0.00    +0.000 A 
ATOM     13  C   UNL     1       2.671   4.949  19.664  0.00  0.00    +0.000 A 
ATOM     14  C   UNL     1       1.451   4.729  20.357  0.00  0.00    +0.000 A 
ATOM     15  C   UNL     1       1.165   3.509  20.975  0.00  0.00    +0.000 A 
ATOM     16  C   UNL     1       2.079   2.470  20.894  0.00  0.00    +0.000 A 
ATOM     17  C   UNL     1       3.267   2.658  20.189  0.00  0.00    +0.000 A 
ATOM     18  C   UNL     1       3.575   3.865  19.575  0.00  0.00    +0.000 A 
ATOM     19  N   UNL     1       4.732   3.926  18.906  0.00  0.00    +0.000 NA
ENDBRANCH   1  12
BRANCH   5  20
ATOM     20  O   UNL     1       0.834  11.529  20.940  0.00  0.00    +0.000 OA
BRANCH  20  21
ATOM     21  C   UNL     1      -0.500  11.755  21.310  0.00  0.00    +0.000 A 
ATOM     22  C   UNL     1      -0.847  11.502  22.635  0.00  0.00    +0.000 A 
ATOM     23  C   UNL     1      -2.119  11.860  23.091  0.00  0.00    +0.000 A 
ATOM     24  C   UNL     1      -3.038  12.480  22.227  0.00  0.00    +0.000 A 
ATOM     25  C   UNL     1      -2.666  12.726  20.896  0.00  0.00    +0.000 A 
ATOM     26  C   UNL     1      -1.399  12.372  20.440  0.00  0.00    +0.000 A 
BRANCH  24  27
ATOM     27  C   UNL     1      -4.407  12.904  22.703  0.00  0.00    +0.000 C 
ATOM     28  F   UNL     1      -5.424  12.433  21.932  0.00  0.00    +0.000 F 
ATOM     29  F   UNL     1      -4.668  12.473  23.969  0.00  0.00    +0.000 F 
ATOM     30  F   UNL     1      -4.552  14.257  22.733  0.00  0.00    +0.000 F 
ENDBRANCH  24  27
ENDBRANCH  20  21
ENDBRANCH   5  20
TORSDOF 4
ENDMDL
MODEL 6
REMARK VINA RESULT:      -8.5      1.116      1.537
REMARK  Name = 
REMARK  5 active torsions:
REMARK  status: ('A' for Active; 'I' for Inactive)
REMARK    1  A    between atoms: C_1  and  C_2
REMARK    2  A    between atoms: C_4  and  N_5
REMARK    3  A    between atoms: C_9  and  O_11
REMARK    4  A    between atoms: O_11  and  C_12
REMARK    5  A    between atoms: C_15  and  C_16
REMARK                            x       y       z     vdW  Elec       q    Type
REMARK                         _______ _______ _______ _____ _____    ______ ____
ROOT
ATOM      1  N   UNL     1       2.020   7.441  18.921  0.00  0.00    +0.000 N 
ATOM      2  C   UNL     1       2.206   8.579  17.981  0.00  0.00    +0.000 C 
ATOM      3  C   UNL     1       1.039   9.579  18.121  0.00  0.00    +0.000 C 
ATOM      4  N   UNL     1       0.864  10.000  19.512  0.00  0.00    +0.000 N 
ATOM      5  C   UNL     1       1.059  11.321  19.869  0.00  0.00    +0.000 C 
ATOM      6  O   UNL     1       1.345  12.212  19.076  0.00  0.00    +0.000 OA
ATOM      7  C   UNL     1       0.766   8.900  20.482  0.00  0.00    +0.000 C 
ATOM      8  C   UNL     1       1.944   7.907  20.332  0.00  0.00    +0.000 C 
ENDROOT
BRANCH   1  12
ATOM      9  C   UNL     1       5.923   5.204  16.806  0.00  0.00    +0.000 C 
ATOM     10  C   UNL     1       4.733   5.196  17.717  0.00  0.00    +0.000 A 
ATOM     11  C   UNL     1       3.966   6.337  17.908  0.00  0.00    +0.000 A 
ATOM     12  C   UNL     1       2.833   6.296  18.732  0.00  0.00    +0.000 A 
ATOM     13  C   UNL     1       2.510   5.044  19.345  0.00  0.00    +0.000 A 
ATOM     14  C   UNL     1       1.367   4.811  20.155  0.00  0.00    +0.000 A 
ATOM     15  C   UNL     1       1.117   3.565  20.734  0.00  0.00    +0.000 A 
ATOM     16  C   UNL     1       1.988   2.514  20.499  0.00  0.00    +0.000 A 
ATOM     17  C   UNL     1       3.098   2.716  19.680  0.00  0.00    +0.000 A 
ATOM     18  C   UNL     1       3.370   3.948  19.101  0.00  0.00    +0.000 A 
ATOM     19  N   UNL     1       4.449   4.022  18.314  0.00  0.00    +0.000 NA
ENDBRANCH   1  12
BRANCH   5  20
ATOM     20  O   UNL     1       0.931  11.520  21.238  0.00  0.00    +0.000 OA
BRANCH  20  21
ATOM     21  C   UNL     1      -0.324  11.953  21.690  0.00  0.00    +0.000 A 
ATOM     22  C   UNL     1      -1.056  12.783  20.844  0.00  0.00    +0.000 A 
ATOM     23  C   UNL     1      -2.374  13.111  21.177  0.00  0.00    +0.000 A 
ATOM     24  C   UNL     1      -2.962  12.601  22.348  0.00  0.00    +0.000 A 
ATOM     25  C   UNL     1      -2.205  11.766  23.185  0.00  0.00    +0.000 A 
ATOM     26  C   UNL     1      -0.893  11.435  22.854  0.00  0.00    +0.000 A 
BRANCH  24  27
ATOM     27  C   UNL     1      -4.392  12.916  22.714  0.00  0.00    +0.000 C 
ATOM     28  F   UNL     1      -4.660  14.248  22.778  0.00  0.00    +0.000 F 
ATOM     29  F   UNL     1      -5.279  12.399  21.818  0.00  0.00    +0.000 F 
ATOM     30  F   UNL     1      -4.745  12.402  23.925  0.00  0.00    +0.000 F 
ENDBRANCH  24  27
ENDBRANCH  20  21
ENDBRANCH   5  20
TORSDOF 4
ENDMDL
MODEL 7
REMARK VINA RESULT:      -8.4      2.956      3.616
REMARK  Name = 
REMARK  5 active torsions:
REMARK  status: ('A' for Active; 'I' for Inactive)
REMARK    1  A    between atoms: C_1  and  C_2
REMARK    2  A    between atoms: C_4  and  N_5
REMARK    3  A    between atoms: C_9  and  O_11
REMARK    4  A    between atoms: O_11  and  C_12
REMARK    5  A    between atoms: C_15  and  C_16
REMARK                            x       y       z     vdW  Elec       q    Type
REMARK                         _______ _______ _______ _____ _____    ______ ____
ROOT
ATOM      1  N   UNL     1       2.790   7.127  18.578  0.00  0.00    +0.000 N 
ATOM      2  C   UNL     1       2.038   7.001  19.854  0.00  0.00    +0.000 C 
ATOM      3  C   UNL     1       1.843   8.392  20.495  0.00  0.00    +0.000 C 
ATOM      4  N   UNL     1       1.231   9.330  19.553  0.00  0.00    +0.000 N 
ATOM      5  C   UNL     1      -0.020   9.858  19.810  0.00  0.00    +0.000 C 
ATOM      6  O   UNL     1      -0.670   9.621  20.823  0.00  0.00    +0.000 OA
ATOM      7  C   UNL     1       1.898   9.414  18.246  0.00  0.00    +0.000 C 
ATOM      8  C   UNL     1       2.084   8.013  17.614  0.00  0.00    +0.000 C 
ENDROOT
BRANCH   1  12
ATOM      9  C   UNL     1       6.041   4.810  15.615  0.00  0.00    +0.000 C 
ATOM     10  C   UNL     1       4.886   4.797  16.570  0.00  0.00    +0.000 A 
ATOM     11  C   UNL     1       4.414   5.970  17.144  0.00  0.00    +0.000 A 
ATOM     12  C   UNL     1       3.306   5.940  18.002  0.00  0.00    +0.000 A 
ATOM     13  C   UNL     1       2.694   4.669  18.243  0.00  0.00    +0.000 A 
ATOM     14  C   UNL     1       1.531   4.468  19.031  0.00  0.00    +0.000 A 
ATOM     15  C   UNL     1       0.991   3.195  19.236  0.00  0.00    +0.000 A 
ATOM     16  C   UNL     1       1.586   2.096  18.640  0.00  0.00    +0.000 A 
ATOM     17  C   UNL     1       2.710   2.278  17.835  0.00  0.00    +0.000 A 
ATOM     18  C   UNL     1       3.267   3.532  17.624  0.00  0.00    +0.000 A 
ATOM     19  N   UNL     1       4.331   3.594  16.816  0.00  0.00    +0.000 NA
ENDBRANCH   1  12
BRANCH   5  20
ATOM     20  O   UNL     1      -0.475  10.662  18.772  0.00  0.00    +0.000 OA
BRANCH  20  21
ATOM     21  C   UNL     1      -1.864  10.827  18.675  0.00  0.00    +0.000 A 
ATOM     22  C   UNL     1      -2.427  11.913  19.342  0.00  0.00    +0.000 A 
ATOM     23  C   UNL     1      -3.778  12.211  19.147  0.00  0.00    +0.000 A 
ATOM     24  C   UNL     1      -4.563  11.433  18.278  0.00  0.00    +0.000 A 
ATOM     25  C   UNL     1      -3.974  10.343  17.616  0.00  0.00    +0.000 A 
ATOM     26  C   UNL     1      -2.627  10.046  17.807  0.00  0.00    +0.000 A 
BRANCH  24  27
ATOM     27  C   UNL     1      -6.017  11.752  18.026  0.00  0.00    +0.000 C 
ATOM     28  F   UNL     1      -6.543  12.639  18.914  0.00  0.00    +0.000 F 
ATOM     29  F   UNL     1      -6.219  12.295  16.793  0.00  0.00    +0.000 F 
ATOM     30  F   UNL     1      -6.811  10.648  18.081  0.00  0.00    +0.000 F 
ENDBRANCH  24  27
ENDBRANCH  20  21
ENDBRANCH   5  20
TORSDOF 4
ENDMDL
MODEL 8
REMARK VINA RESULT:      -8.4      3.116      4.407
REMARK  Name = 
REMARK  5 active torsions:
REMARK  status: ('A' for Active; 'I' for Inactive)
REMARK    1  A    between atoms: C_1  and  C_2
REMARK    2  A    between atoms: C_4  and  N_5
REMARK    3  A    between atoms: C_9  and  O_11
REMARK    4  A    between atoms: O_11  and  C_12
REMARK    5  A    between atoms: C_15  and  C_16
REMARK                            x       y       z     vdW  Elec       q    Type
REMARK                         _______ _______ _______ _____ _____    ______ ____
ROOT
ATOM      1  N   UNL     1       2.235   7.102  19.461  0.00  0.00    +0.000 N 
ATOM      2  C   UNL     1       1.454   7.052  20.726  0.00  0.00    +0.000 C 
ATOM      3  C   UNL     1       1.576   8.394  21.478  0.00  0.00    +0.000 C 
ATOM      4  N   UNL     1       1.213   9.520  20.618  0.00  0.00    +0.000 N 
ATOM      5  C   UNL     1       0.114  10.302  20.922  0.00  0.00    +0.000 C 
ATOM      6  O   UNL     1      -0.589  10.142  21.915  0.00  0.00    +0.000 OA
ATOM      7  C   UNL     1       1.901   9.552  19.320  0.00  0.00    +0.000 C 
ATOM      8  C   UNL     1       1.767   8.202  18.575  0.00  0.00    +0.000 C 
ENDROOT
BRANCH   1  12
ATOM      9  C   UNL     1       1.195   2.297  18.723  0.00  0.00    +0.000 C 
ATOM     10  C   UNL     1       1.971   3.540  18.412  0.00  0.00    +0.000 A 
ATOM     11  C   UNL     1       1.704   4.737  19.065  0.00  0.00    +0.000 A 
ATOM     12  C   UNL     1       2.470   5.877  18.788  0.00  0.00    +0.000 A 
ATOM     13  C   UNL     1       3.522   5.747  17.827  0.00  0.00    +0.000 A 
ATOM     14  C   UNL     1       4.431   6.780  17.476  0.00  0.00    +0.000 A 
ATOM     15  C   UNL     1       5.430   6.589  16.519  0.00  0.00    +0.000 A 
ATOM     16  C   UNL     1       5.562   5.353  15.906  0.00  0.00    +0.000 A 
ATOM     17  C   UNL     1       4.700   4.317  16.262  0.00  0.00    +0.000 A 
ATOM     18  C   UNL     1       3.696   4.488  17.205  0.00  0.00    +0.000 A 
ATOM     19  N   UNL     1       2.942   3.419  17.486  0.00  0.00    +0.000 NA
ENDBRANCH   1  12
BRANCH   5  20
ATOM     20  O   UNL     1      -0.126  11.270  19.955  0.00  0.00    +0.000 OA
BRANCH  20  21
ATOM     21  C   UNL     1      -1.354  11.186  19.281  0.00  0.00    +0.000 A 
ATOM     22  C   UNL     1      -2.373  12.038  19.703  0.00  0.00    +0.000 A 
ATOM     23  C   UNL     1      -3.558  12.106  18.965  0.00  0.00    +0.000 A 
ATOM     24  C   UNL     1      -3.720  11.332  17.802  0.00  0.00    +0.000 A 
ATOM     25  C   UNL     1      -2.680  10.482  17.396  0.00  0.00    +0.000 A 
ATOM     26  C   UNL     1      -1.496  10.415  18.128  0.00  0.00    +0.000 A 
BRANCH  24  27
ATOM     27  C   UNL     1      -4.978  11.410  16.971  0.00  0.00    +0.000 C 
ATOM     28  F   UNL     1      -4.883  10.771  15.774  0.00  0.00    +0.000 F 
ATOM     29  F   UNL     1      -6.050  10.856  17.606  0.00  0.00    +0.000 F 
ATOM     30  F   UNL     1      -5.336  12.692  16.686  0.00  0.00    +0.000 F 
ENDBRANCH  24  27
ENDBRANCH  20  21
ENDBRANCH   5  20
TORSDOF 4
ENDMDL
MODEL 9
REMARK VINA RESULT:      -8.4      2.897      3.512
REMARK  Name = 
REMARK  5 active torsions:
REMARK  status: ('A' for Active; 'I' for Inactive)
REMARK    1  A    between atoms: C_1  and  C_2
REMARK    2  A    between atoms: C_4  and  N_5
REMARK    3  A    between atoms: C_9  and  O_11
REMARK    4  A    between atoms: O_11  and  C_12
REMARK    5  A    between atoms: C_15  and  C_16
REMARK                            x       y       z     vdW  Elec       q    Type
REMARK                         _______ _______ _______ _____ _____    ______ ____
ROOT
ATOM      1  N   UNL     1       2.860   7.064  18.589  0.00  0.00    +0.000 N 
ATOM      2  C   UNL     1       2.033   6.989  19.823  0.00  0.00    +0.000 C 
ATOM      3  C   UNL     1       1.823   8.401  20.409  0.00  0.00    +0.000 C 
ATOM      4  N   UNL     1       1.281   9.317  19.404  0.00  0.00    +0.000 N 
ATOM      5  C   UNL     1       0.025   9.870  19.572  0.00  0.00    +0.000 C 
ATOM      6  O   UNL     1      -0.686   9.674  20.553  0.00  0.00    +0.000 OA
ATOM      7  C   UNL     1       2.023   9.351  18.136  0.00  0.00    +0.000 C 
ATOM      8  C   UNL     1       2.223   7.929  17.559  0.00  0.00    +0.000 C 
ENDROOT
BRANCH   1  12
ATOM      9  C   UNL     1       6.257   4.609  15.917  0.00  0.00    +0.000 C 
ATOM     10  C   UNL     1       5.040   4.643  16.791  0.00  0.00    +0.000 A 
ATOM     11  C   UNL     1       4.554   5.840  17.300  0.00  0.00    +0.000 A 
ATOM     12  C   UNL     1       3.390   5.853  18.081  0.00  0.00    +0.000 A 
ATOM     13  C   UNL     1       2.738   4.600  18.312  0.00  0.00    +0.000 A 
ATOM     14  C   UNL     1       1.520   4.441  19.024  0.00  0.00    +0.000 A 
ATOM     15  C   UNL     1       0.942   3.185  19.225  0.00  0.00    +0.000 A 
ATOM     16  C   UNL     1       1.554   2.059  18.699  0.00  0.00    +0.000 A 
ATOM     17  C   UNL     1       2.733   2.199  17.969  0.00  0.00    +0.000 A 
ATOM     18  C   UNL     1       3.328   3.437  17.764  0.00  0.00    +0.000 A 
ATOM     19  N   UNL     1       4.446   3.457  17.029  0.00  0.00    +0.000 NA
ENDBRANCH   1  12
BRANCH   5  20
ATOM     20  O   UNL     1      -0.357  10.647  18.485  0.00  0.00    +0.000 OA
BRANCH  20  21
ATOM     21  C   UNL     1      -1.729  10.915  18.363  0.00  0.00    +0.000 A 
ATOM     22  C   UNL     1      -2.489  10.024  17.609  0.00  0.00    +0.000 A 
ATOM     23  C   UNL     1      -3.880  10.157  17.588  0.00  0.00    +0.000 A 
ATOM     24  C   UNL     1      -4.511  11.172  18.328  0.00  0.00    +0.000 A 
ATOM     25  C   UNL     1      -3.724  12.058  19.081  0.00  0.00    +0.000 A 
ATOM     26  C   UNL     1      -2.338  11.926  19.106  0.00  0.00    +0.000 A 
BRANCH  24  27
ATOM     27  C   UNL     1      -6.013  11.319  18.346  0.00  0.00    +0.000 C 
ATOM     28  F   UNL     1      -6.676  10.140  18.502  0.00  0.00    +0.000 F 
ATOM     29  F   UNL     1      -6.440  12.123  19.361  0.00  0.00    +0.000 F 
ATOM     30  F   UNL     1      -6.497  11.875  17.202  0.00  0.00    +0.000 F 
ENDBRANCH  24  27
ENDBRANCH  20  21
ENDBRANCH   5  20
TORSDOF 4
ENDMDL
