MODEL 1
REMARK VINA RESULT:      -7.7      0.000      0.000
REMARK  Name = 
REMARK  10 active torsions:
REMARK  status: ('A' for Active; 'I' for Inactive)
REMARK    1  A    between atoms: C_1  and  O_2
REMARK    2  A    between atoms: O_2  and  C_3
REMARK    3  A    between atoms: C_3  and  C_4
REMARK    4  A    between atoms: N_10  and  C_11
REMARK    5  A    between atoms: C_11  and  C_12
REMARK    6  A    between atoms: C_11  and  C_15
REMARK    7  A    between atoms: C_12  and  O_13
REMARK    8  A    between atoms: O_13  and  C_14
REMARK    9  A    between atoms: C_25  and  O_26
REMARK   10  A    between atoms: O_26  and  C_27
REMARK                            x       y       z     vdW  Elec       q    Type
REMARK                         _______ _______ _______ _____ _____    ______ ____
ROOT
ATOM      1  C   UNL     1       3.470   4.871  17.406  0.00  0.00    +0.000 A 
ATOM      2  N   UNL     1       2.732   5.728  18.189  0.00  0.00    +0.000 NA
ATOM      3  C   UNL     1       3.045   7.038  18.250  0.00  0.00    +0.000 A 
ATOM      4  N   UNL     1       2.202   7.801  19.063  0.00  0.00    +0.000 N 
ATOM      5  C   UNL     1       1.601   8.954  18.593  0.00  0.00    +0.000 C 
ATOM      6  O   UNL     1       1.715   9.370  17.451  0.00  0.00    +0.000 OA
ATOM      7  N   UNL     1       0.865   9.554  19.586  0.00  0.00    +0.000 N 
ATOM      8  C   UNL     1       4.146   7.615  17.638  0.00  0.00    +0.000 A 
ATOM      9  C   UNL     1       4.953   6.718  16.940  0.00  0.00    +0.000 A 
ATOM     10  N   UNL     1       6.127   6.906  16.269  0.00  0.00    +0.000 N 
ATOM     11  N   UNL     1       6.608   5.802  15.683  0.00  0.00    +0.000 NA
ATOM     12  C   UNL     1       5.710   4.866  16.011  0.00  0.00    +0.000 A 
ATOM     13  C   UNL     1       4.648   5.364  16.803  0.00  0.00    +0.000 A 
ATOM     14  H   UNL     1       1.609   7.216  19.626  0.00  0.00    +0.000 HD
ATOM     15  H   UNL     1       0.618   8.941  20.347  0.00  0.00    +0.000 HD
ATOM     16  H   UNL     1       6.654   7.768  16.175  0.00  0.00    +0.000 HD
ENDROOT
BRANCH  12  17
ATOM     17  O   UNL     1       5.882   3.603  15.556  0.00  0.00    +0.000 OA
ATOM     18  C   UNL     1       6.152   3.533  14.156  0.00  0.00    +0.000 C 
ENDBRANCH  12  17
BRANCH   1  19
ATOM     19  C   UNL     1       2.888   3.495  17.207  0.00  0.00    +0.000 C 
BRANCH  19  21
ATOM     20  C   UNL     1       1.256   2.489  18.556  0.00  0.00    +0.000 C 
ATOM     21  O   UNL     1       1.501   3.447  17.534  0.00  0.00    +0.000 OA
ENDBRANCH  19  21
ENDBRANCH   1  19
BRANCH   7  22
ATOM     22  C   UNL     1      -0.014  10.719  19.408  0.00  0.00    +0.000 C 
BRANCH  22  23
ATOM     23  C   UNL     1      -0.637  11.079  20.763  0.00  0.00    +0.000 A 
ATOM     24  C   UNL     1      -0.341  10.331  21.910  0.00  0.00    +0.000 A 
ATOM     25  C   UNL     1      -1.003  10.589  23.115  0.00  0.00    +0.000 A 
ATOM     26  C   UNL     1      -1.958  11.603  23.192  0.00  0.00    +0.000 A 
ATOM     27  C   UNL     1      -2.255  12.362  22.065  0.00  0.00    +0.000 A 
ATOM     28  C   UNL     1      -1.609  12.095  20.859  0.00  0.00    +0.000 A 
ENDBRANCH  22  23
BRANCH  22  29
ATOM     29  C   UNL     1       0.677  12.010  18.892  0.00  0.00    +0.000 C 
BRANCH  29  30
ATOM     30  O   UNL     1       1.858  12.342  19.615  0.00  0.00    +0.000 OA
ATOM     31  C   UNL     1       1.931  13.727  19.916  0.00  0.00    +0.000 C 
ENDBRANCH  29  30
ENDBRANCH  22  29
ENDBRANCH   7  22
TORSDOF 7
ENDMDL
MODEL 2
REMARK VINA RESULT:      -7.6      2.789      8.628
REMARK  Name = 
REMARK  10 active torsions:
REMARK  status: ('A' for Active; 'I' for Inactive)
REMARK    1  A    between atoms: C_1  and  O_2
REMARK    2  A    between atoms: O_2  and  C_3
REMARK    3  A    between atoms: C_3  and  C_4
REMARK    4  A    between atoms: N_10  and  C_11
REMARK    5  A    between atoms: C_11  and  C_12
REMARK    6  A    between atoms: C_11  and  C_15
REMARK    7  A    between atoms: C_12  and  O_13
REMARK    8  A    between atoms: O_13  and  C_14
REMARK    9  A    between atoms: C_25  and  O_26
REMARK   10  A    between atoms: O_26  and  C_27
REMARK                            x       y       z     vdW  Elec       q    Type
REMARK                         _______ _______ _______ _____ _____    ______ ____
ROOT
ATOM      1  C   UNL     1      -1.477  10.485  18.389  0.00  0.00    +0.000 A 
ATOM      2  N   UNL     1      -0.419   9.659  18.086  0.00  0.00    +0.000 NA
ATOM      3  C   UNL     1       0.655   9.599  18.900  0.00  0.00    +0.000 A 
ATOM      4  N   UNL     1       1.647   8.705  18.489  0.00  0.00    +0.000 N 
ATOM      5  C   UNL     1       2.147   7.742  19.346  0.00  0.00    +0.000 C 
ATOM      6  O   UNL     1       1.749   7.566  20.487  0.00  0.00    +0.000 OA
ATOM      7  N   UNL     1       3.144   7.022  18.734  0.00  0.00    +0.000 N 
ATOM      8  C   UNL     1       0.840  10.392  20.021  0.00  0.00    +0.000 A 
ATOM      9  C   UNL     1      -0.186  11.306  20.255  0.00  0.00    +0.000 A 
ATOM     10  N   UNL     1      -0.324  12.268  21.214  0.00  0.00    +0.000 N 
ATOM     11  N   UNL     1      -1.476  12.948  21.148  0.00  0.00    +0.000 NA
ATOM     12  C   UNL     1      -2.091  12.406  20.091  0.00  0.00    +0.000 A 
ATOM     13  C   UNL     1      -1.340  11.375  19.475  0.00  0.00    +0.000 A 
ATOM     14  H   UNL     1       1.488   8.389  17.547  0.00  0.00    +0.000 HD
ATOM     15  H   UNL     1       3.134   7.071  17.728  0.00  0.00    +0.000 HD
ATOM     16  H   UNL     1       0.337  12.513  21.944  0.00  0.00    +0.000 HD
ENDROOT
BRANCH  12  17
ATOM     17  O   UNL     1      -3.318  12.856  19.743  0.00  0.00    +0.000 OA
ATOM     18  C   UNL     1      -4.241  12.892  20.831  0.00  0.00    +0.000 C 
ENDBRANCH  12  17
BRANCH   1  19
ATOM     19  C   UNL     1      -2.722  10.289  17.563  0.00  0.00    +0.000 C 
BRANCH  19  21
ATOM     20  C   UNL     1      -2.883  10.543  15.238  0.00  0.00    +0.000 C 
ATOM     21  O   UNL     1      -2.804  11.220  16.487  0.00  0.00    +0.000 OA
ENDBRANCH  19  21
ENDBRANCH   1  19
BRANCH   7  22
ATOM     22  C   UNL     1       3.805   5.835  19.298  0.00  0.00    +0.000 C 
BRANCH  22  23
ATOM     23  C   UNL     1       2.796   4.681  19.341  0.00  0.00    +0.000 A 
ATOM     24  C   UNL     1       2.221   4.186  18.162  0.00  0.00    +0.000 A 
ATOM     25  C   UNL     1       1.214   3.217  18.217  0.00  0.00    +0.000 A 
ATOM     26  C   UNL     1       0.777   2.723  19.447  0.00  0.00    +0.000 A 
ATOM     27  C   UNL     1       1.346   3.195  20.625  0.00  0.00    +0.000 A 
ATOM     28  C   UNL     1       2.337   4.174  20.573  0.00  0.00    +0.000 A 
ENDBRANCH  22  23
BRANCH  22  29
ATOM     29  C   UNL     1       5.032   5.308  18.505  0.00  0.00    +0.000 C 
BRANCH  29  30
ATOM     30  O   UNL     1       6.094   4.865  19.345  0.00  0.00    +0.000 OA
ATOM     31  C   UNL     1       7.258   5.664  19.203  0.00  0.00    +0.000 C 
ENDBRANCH  29  30
ENDBRANCH  22  29
ENDBRANCH   7  22
TORSDOF 7
ENDMDL
MODEL 3
REMARK VINA RESULT:      -7.5      2.416      9.249
REMARK  Name = 
REMARK  10 active torsions:
REMARK  status: ('A' for Active; 'I' for Inactive)
REMARK    1  A    between atoms: C_1  and  O_2
REMARK    2  A    between atoms: O_2  and  C_3
REMARK    3  A    between atoms: C_3  and  C_4
REMARK    4  A    between atoms: N_10  and  C_11
REMARK    5  A    between atoms: C_11  and  C_12
REMARK    6  A    between atoms: C_11  and  C_15
REMARK    7  A    between atoms: C_12  and  O_13
REMARK    8  A    between atoms: O_13  and  C_14
REMARK    9  A    between atoms: C_25  and  O_26
REMARK   10  A    between atoms: O_26  and  C_27
REMARK                            x       y       z     vdW  Elec       q    Type
REMARK                         _______ _______ _______ _____ _____    ______ ____
ROOT
ATOM      1  C   UNL     1      -0.031  10.325  19.843  0.00  0.00    +0.000 A 
ATOM      2  N   UNL     1       0.940   9.522  19.290  0.00  0.00    +0.000 NA
ATOM      3  C   UNL     1       1.569   8.596  20.043  0.00  0.00    +0.000 A 
ATOM      4  N   UNL     1       2.517   7.833  19.354  0.00  0.00    +0.000 N 
ATOM      5  C   UNL     1       2.492   6.451  19.394  0.00  0.00    +0.000 C 
ATOM      6  O   UNL     1       1.643   5.797  19.979  0.00  0.00    +0.000 OA
ATOM      7  N   UNL     1       3.548   5.930  18.686  0.00  0.00    +0.000 N 
ATOM      8  C   UNL     1       1.383   8.428  21.405  0.00  0.00    +0.000 A 
ATOM      9  C   UNL     1       0.481   9.323  21.978  0.00  0.00    +0.000 A 
ATOM     10  N   UNL     1       0.092   9.492  23.276  0.00  0.00    +0.000 N 
ATOM     11  N   UNL     1      -0.833  10.445  23.451  0.00  0.00    +0.000 NA
ATOM     12  C   UNL     1      -1.028  10.915  22.214  0.00  0.00    +0.000 A 
ATOM     13  C   UNL     1      -0.234  10.265  21.238  0.00  0.00    +0.000 A 
ATOM     14  H   UNL     1       2.715   8.225  18.450  0.00  0.00    +0.000 HD
ATOM     15  H   UNL     1       3.955   6.565  18.020  0.00  0.00    +0.000 HD
ATOM     16  H   UNL     1       0.423   8.988  24.092  0.00  0.00    +0.000 HD
ENDROOT
BRANCH  12  17
ATOM     17  O   UNL     1      -1.936  11.899  22.020  0.00  0.00    +0.000 OA
ATOM     18  C   UNL     1      -1.391  13.211  22.153  0.00  0.00    +0.000 C 
ENDBRANCH  12  17
BRANCH   1  19
ATOM     19  C   UNL     1      -0.844  11.138  18.869  0.00  0.00    +0.000 C 
BRANCH  19  21
ATOM     20  C   UNL     1      -2.052  10.009  17.207  0.00  0.00    +0.000 C 
ATOM     21  O   UNL     1      -2.078  10.505  18.540  0.00  0.00    +0.000 OA
ENDBRANCH  19  21
ENDBRANCH   1  19
BRANCH   7  22
ATOM     22  C   UNL     1       3.760   4.502  18.402  0.00  0.00    +0.000 C 
BRANCH  22  23
ATOM     23  C   UNL     1       4.943   4.361  17.436  0.00  0.00    +0.000 A 
ATOM     24  C   UNL     1       6.255   4.601  17.869  0.00  0.00    +0.000 A 
ATOM     25  C   UNL     1       7.315   4.587  16.956  0.00  0.00    +0.000 A 
ATOM     26  C   UNL     1       7.081   4.323  15.607  0.00  0.00    +0.000 A 
ATOM     27  C   UNL     1       5.787   4.070  15.164  0.00  0.00    +0.000 A 
ATOM     28  C   UNL     1       4.726   4.101  16.068  0.00  0.00    +0.000 A 
ENDBRANCH  22  23
BRANCH  22  29
ATOM     29  C   UNL     1       4.095   3.614  19.631  0.00  0.00    +0.000 C 
BRANCH  29  30
ATOM     30  O   UNL     1       3.001   2.805  20.053  0.00  0.00    +0.000 OA
ATOM     31  C   UNL     1       2.314   2.220  18.958  0.00  0.00    +0.000 C 
ENDBRANCH  29  30
ENDBRANCH  22  29
ENDBRANCH   7  22
TORSDOF 7
ENDMDL
MODEL 4
REMARK VINA RESULT:      -7.5      0.614      1.099
REMARK  Name = 
REMARK  10 active torsions:
REMARK  status: ('A' for Active; 'I' for Inactive)
REMARK    1  A    between atoms: C_1  and  O_2
REMARK    2  A    between atoms: O_2  and  C_3
REMARK    3  A    between atoms: C_3  and  C_4
REMARK    4  A    between atoms: N_10  and  C_11
REMARK    5  A    between atoms: C_11  and  C_12
REMARK    6  A    between atoms: C_11  and  C_15
REMARK    7  A    between atoms: C_12  and  O_13
REMARK    8  A    between atoms: O_13  and  C_14
REMARK    9  A    between atoms: C_25  and  O_26
REMARK   10  A    between atoms: O_26  and  C_27
REMARK                            x       y       z     vdW  Elec       q    Type
REMARK                         _______ _______ _______ _____ _____    ______ ____
ROOT
ATOM      1  C   UNL     1       3.828   4.834  17.232  0.00  0.00    +0.000 A 
ATOM      2  N   UNL     1       3.017   5.630  18.007  0.00  0.00    +0.000 NA
ATOM      3  C   UNL     1       3.303   6.938  18.174  0.00  0.00    +0.000 A 
ATOM      4  N   UNL     1       2.387   7.637  18.965  0.00  0.00    +0.000 N 
ATOM      5  C   UNL     1       1.805   8.810  18.522  0.00  0.00    +0.000 C 
ATOM      6  O   UNL     1       1.999   9.300  17.420  0.00  0.00    +0.000 OA
ATOM      7  N   UNL     1       0.984   9.337  19.491  0.00  0.00    +0.000 N 
ATOM      8  C   UNL     1       4.438   7.565  17.686  0.00  0.00    +0.000 A 
ATOM      9  C   UNL     1       5.311   6.724  16.999  0.00  0.00    +0.000 A 
ATOM     10  N   UNL     1       6.530   6.969  16.434  0.00  0.00    +0.000 N 
ATOM     11  N   UNL     1       7.073   5.910  15.820  0.00  0.00    +0.000 NA
ATOM     12  C   UNL     1       6.169   4.944  16.017  0.00  0.00    +0.000 A 
ATOM     13  C   UNL     1       5.040   5.378  16.754  0.00  0.00    +0.000 A 
ATOM     14  H   UNL     1       1.763   7.010  19.442  0.00  0.00    +0.000 HD
ATOM     15  H   UNL     1       0.690   8.675  20.190  0.00  0.00    +0.000 HD
ATOM     16  H   UNL     1       7.048   7.841  16.435  0.00  0.00    +0.000 HD
ENDROOT
BRANCH  12  17
ATOM     17  O   UNL     1       6.396   3.715  15.500  0.00  0.00    +0.000 OA
ATOM     18  C   UNL     1       6.163   3.637  14.094  0.00  0.00    +0.000 C 
ENDBRANCH  12  17
BRANCH   1  19
ATOM     19  C   UNL     1       3.286   3.466  16.903  0.00  0.00    +0.000 C 
BRANCH  19  21
ATOM     20  C   UNL     1       2.546   2.108  18.664  0.00  0.00    +0.000 C 
ATOM     21  O   UNL     1       3.664   2.492  17.872  0.00  0.00    +0.000 OA
ENDBRANCH  19  21
ENDBRANCH   1  19
BRANCH   7  22
ATOM     22  C   UNL     1       0.102  10.501  19.317  0.00  0.00    +0.000 C 
BRANCH  22  23
ATOM     23  C   UNL     1      -0.591  10.798  20.653  0.00  0.00    +0.000 A 
ATOM     24  C   UNL     1      -1.459  11.892  20.783  0.00  0.00    +0.000 A 
ATOM     25  C   UNL     1      -1.993  12.228  22.032  0.00  0.00    +0.000 A 
ATOM     26  C   UNL     1      -1.678  11.471  23.160  0.00  0.00    +0.000 A 
ATOM     27  C   UNL     1      -0.829  10.375  23.046  0.00  0.00    +0.000 A 
ATOM     28  C   UNL     1      -0.281  10.049  21.806  0.00  0.00    +0.000 A 
ENDBRANCH  22  23
BRANCH  22  29
ATOM     29  C   UNL     1       0.803  11.819  18.890  0.00  0.00    +0.000 C 
BRANCH  29  30
ATOM     30  O   UNL     1       1.900  12.168  19.728  0.00  0.00    +0.000 OA
ATOM     31  C   UNL     1       1.840  13.520  20.153  0.00  0.00    +0.000 C 
ENDBRANCH  29  30
ENDBRANCH  22  29
ENDBRANCH   7  22
TORSDOF 7
ENDMDL
MODEL 5
REMARK VINA RESULT:      -7.4      2.565      8.779
REMARK  Name = 
REMARK  10 active torsions:
REMARK  status: ('A' for Active; 'I' for Inactive)
REMARK    1  A    between atoms: C_1  and  O_2
REMARK    2  A    between atoms: O_2  and  C_3
REMARK    3  A    between atoms: C_3  and  C_4
REMARK    4  A    between atoms: N_10  and  C_11
REMARK    5  A    between atoms: C_11  and  C_12
REMARK    6  A    between atoms: C_11  and  C_15
REMARK    7  A    between atoms: C_12  and  O_13
REMARK    8  A    between atoms: O_13  and  C_14
REMARK    9  A    between atoms: C_25  and  O_26
REMARK   10  A    between atoms: O_26  and  C_27
REMARK                            x       y       z     vdW  Elec       q    Type
REMARK                         _______ _______ _______ _____ _____    ______ ____
ROOT
ATOM      1  C   UNL     1      -1.628  10.345  18.117  0.00  0.00    +0.000 A 
ATOM      2  N   UNL     1      -0.573   9.604  17.636  0.00  0.00    +0.000 NA
ATOM      3  C   UNL     1       0.647   9.707  18.202  0.00  0.00    +0.000 A 
ATOM      4  N   UNL     1       1.623   8.884  17.632  0.00  0.00    +0.000 N 
ATOM      5  C   UNL     1       2.393   8.040  18.410  0.00  0.00    +0.000 C 
ATOM      6  O   UNL     1       2.264   7.910  19.618  0.00  0.00    +0.000 OA
ATOM      7  N   UNL     1       3.313   7.375  17.635  0.00  0.00    +0.000 N 
ATOM      8  C   UNL     1       0.974  10.594  19.214  0.00  0.00    +0.000 A 
ATOM      9  C   UNL     1      -0.073  11.420  19.617  0.00  0.00    +0.000 A 
ATOM     10  N   UNL     1      -0.112  12.432  20.532  0.00  0.00    +0.000 N 
ATOM     11  N   UNL     1      -1.320  12.992  20.682  0.00  0.00    +0.000 NA
ATOM     12  C   UNL     1      -2.079  12.318  19.810  0.00  0.00    +0.000 A 
ATOM     13  C   UNL     1      -1.365  11.322  19.101  0.00  0.00    +0.000 A 
ATOM     14  H   UNL     1       1.306   8.486  16.765  0.00  0.00    +0.000 HD
ATOM     15  H   UNL     1       3.087   7.349  16.654  0.00  0.00    +0.000 HD
ATOM     16  H   UNL     1       0.656  12.793  21.089  0.00  0.00    +0.000 HD
ENDROOT
BRANCH  12  17
ATOM     17  O   UNL     1      -3.393  12.622  19.713  0.00  0.00    +0.000 OA
ATOM     18  C   UNL     1      -4.043  12.755  20.976  0.00  0.00    +0.000 C 
ENDBRANCH  12  17
BRANCH   1  19
ATOM     19  C   UNL     1      -2.989   9.970  17.589  0.00  0.00    +0.000 C 
BRANCH  19  21
ATOM     20  C   UNL     1      -3.086  10.685  15.359  0.00  0.00    +0.000 C 
ATOM     21  O   UNL     1      -3.505  10.951  16.693  0.00  0.00    +0.000 OA
ENDBRANCH  19  21
ENDBRANCH   1  19
BRANCH   7  22
ATOM     22  C   UNL     1       4.203   6.302  18.103  0.00  0.00    +0.000 C 
BRANCH  22  23
ATOM     23  C   UNL     1       3.486   4.956  17.934  0.00  0.00    +0.000 A 
ATOM     24  C   UNL     1       2.086   4.889  17.900  0.00  0.00    +0.000 A 
ATOM     25  C   UNL     1       1.437   3.650  17.865  0.00  0.00    +0.000 A 
ATOM     26  C   UNL     1       2.176   2.467  17.852  0.00  0.00    +0.000 A 
ATOM     27  C   UNL     1       3.566   2.517  17.872  0.00  0.00    +0.000 A 
ATOM     28  C   UNL     1       4.214   3.750  17.925  0.00  0.00    +0.000 A 
ENDBRANCH  22  23
BRANCH  22  29
ATOM     29  C   UNL     1       5.554   6.171  17.350  0.00  0.00    +0.000 C 
BRANCH  29  30
ATOM     30  O   UNL     1       5.474   6.562  15.983  0.00  0.00    +0.000 OA
ATOM     31  C   UNL     1       5.709   5.475  15.101  0.00  0.00    +0.000 C 
ENDBRANCH  29  30
ENDBRANCH  22  29
ENDBRANCH   7  22
TORSDOF 7
ENDMDL
MODEL 6
REMARK VINA RESULT:      -7.4      2.846      8.726
REMARK  Name = 
REMARK  10 active torsions:
REMARK  status: ('A' for Active; 'I' for Inactive)
REMARK    1  A    between atoms: C_1  and  O_2
REMARK    2  A    between atoms: O_2  and  C_3
REMARK    3  A    between atoms: C_3  and  C_4
REMARK    4  A    between atoms: N_10  and  C_11
REMARK    5  A    between atoms: C_11  and  C_12
REMARK    6  A    between atoms: C_11  and  C_15
REMARK    7  A    between atoms: C_12  and  O_13
REMARK    8  A    between atoms: O_13  and  C_14
REMARK    9  A    between atoms: C_25  and  O_26
REMARK   10  A    between atoms: O_26  and  C_27
REMARK                            x       y       z     vdW  Elec       q    Type
REMARK                         _______ _______ _______ _____ _____    ______ ____
ROOT
ATOM      1  C   UNL     1      -1.443  10.723  18.611  0.00  0.00    +0.000 A 
ATOM      2  N   UNL     1      -0.408   9.876  18.291  0.00  0.00    +0.000 NA
ATOM      3  C   UNL     1       0.637   9.728  19.131  0.00  0.00    +0.000 A 
ATOM      4  N   UNL     1       1.608   8.821  18.697  0.00  0.00    +0.000 N 
ATOM      5  C   UNL     1       2.045   7.793  19.511  0.00  0.00    +0.000 C 
ATOM      6  O   UNL     1       1.606   7.568  20.628  0.00  0.00    +0.000 OA
ATOM      7  N   UNL     1       3.033   7.070  18.887  0.00  0.00    +0.000 N 
ATOM      8  C   UNL     1       0.817  10.449  20.300  0.00  0.00    +0.000 A 
ATOM      9  C   UNL     1      -0.180  11.387  20.558  0.00  0.00    +0.000 A 
ATOM     10  N   UNL     1      -0.311  12.298  21.566  0.00  0.00    +0.000 N 
ATOM     11  N   UNL     1      -1.435  13.025  21.507  0.00  0.00    +0.000 NA
ATOM     12  C   UNL     1      -2.037  12.568  20.403  0.00  0.00    +0.000 A 
ATOM     13  C   UNL     1      -1.307  11.545  19.751  0.00  0.00    +0.000 A 
ATOM     14  H   UNL     1       1.466   8.565  17.735  0.00  0.00    +0.000 HD
ATOM     15  H   UNL     1       3.055   7.176  17.886  0.00  0.00    +0.000 HD
ATOM     16  H   UNL     1       0.336  12.476  22.327  0.00  0.00    +0.000 HD
ENDROOT
BRANCH  12  17
ATOM     17  O   UNL     1      -3.236  13.084  20.047  0.00  0.00    +0.000 OA
ATOM     18  C   UNL     1      -3.685  14.130  20.909  0.00  0.00    +0.000 C 
ENDBRANCH  12  17
BRANCH   1  19
ATOM     19  C   UNL     1      -2.669  10.623  17.740  0.00  0.00    +0.000 C 
BRANCH  19  21
ATOM     20  C   UNL     1      -2.828  10.468  15.407  0.00  0.00    +0.000 C 
ATOM     21  O   UNL     1      -2.451   9.794  16.602  0.00  0.00    +0.000 OA
ENDBRANCH  19  21
ENDBRANCH   1  19
BRANCH   7  22
ATOM     22  C   UNL     1       3.633   5.829  19.400  0.00  0.00    +0.000 C 
BRANCH  22  23
ATOM     23  C   UNL     1       2.667   4.667  19.132  0.00  0.00    +0.000 A 
ATOM     24  C   UNL     1       1.711   4.294  20.087  0.00  0.00    +0.000 A 
ATOM     25  C   UNL     1       0.916   3.160  19.887  0.00  0.00    +0.000 A 
ATOM     26  C   UNL     1       1.057   2.395  18.730  0.00  0.00    +0.000 A 
ATOM     27  C   UNL     1       1.993   2.759  17.767  0.00  0.00    +0.000 A 
ATOM     28  C   UNL     1       2.799   3.877  17.972  0.00  0.00    +0.000 A 
ENDBRANCH  22  23
BRANCH  22  29
ATOM     29  C   UNL     1       4.989   5.422  18.762  0.00  0.00    +0.000 C 
BRANCH  29  30
ATOM     30  O   UNL     1       6.021   5.217  19.722  0.00  0.00    +0.000 OA
ATOM     31  C   UNL     1       7.292   5.620  19.236  0.00  0.00    +0.000 C 
ENDBRANCH  29  30
ENDBRANCH  22  29
ENDBRANCH   7  22
TORSDOF 7
ENDMDL
MODEL 7
REMARK VINA RESULT:      -7.3      2.596      8.543
REMARK  Name = 
REMARK  10 active torsions:
REMARK  status: ('A' for Active; 'I' for Inactive)
REMARK    1  A    between atoms: C_1  and  O_2
REMARK    2  A    between atoms: O_2  and  C_3
REMARK    3  A    between atoms: C_3  and  C_4
REMARK    4  A    between atoms: N_10  and  C_11
REMARK    5  A    between atoms: C_11  and  C_12
REMARK    6  A    between atoms: C_11  and  C_15
REMARK    7  A    between atoms: C_12  and  O_13
REMARK    8  A    between atoms: O_13  and  C_14
REMARK    9  A    between atoms: C_25  and  O_26
REMARK   10  A    between atoms: O_26  and  C_27
REMARK                            x       y       z     vdW  Elec       q    Type
REMARK                         _______ _______ _______ _____ _____    ______ ____
ROOT
ATOM      1  C   UNL     1      -1.425  10.492  18.057  0.00  0.00    +0.000 A 
ATOM      2  N   UNL     1      -0.367   9.687  17.703  0.00  0.00    +0.000 NA
ATOM      3  C   UNL     1       0.743   9.644  18.468  0.00  0.00    +0.000 A 
ATOM      4  N   UNL     1       1.732   8.770  18.008  0.00  0.00    +0.000 N 
ATOM      5  C   UNL     1       2.288   7.814  18.839  0.00  0.00    +0.000 C 
ATOM      6  O   UNL     1       1.945   7.627  19.995  0.00  0.00    +0.000 OA
ATOM      7  N   UNL     1       3.270   7.114  18.179  0.00  0.00    +0.000 N 
ATOM      8  C   UNL     1       0.965  10.437  19.582  0.00  0.00    +0.000 A 
ATOM      9  C   UNL     1      -0.066  11.331  19.867  0.00  0.00    +0.000 A 
ATOM     10  N   UNL     1      -0.178  12.287  20.835  0.00  0.00    +0.000 N 
ATOM     11  N   UNL     1      -1.344  12.946  20.824  0.00  0.00    +0.000 NA
ATOM     12  C   UNL     1      -1.996  12.397  19.793  0.00  0.00    +0.000 A 
ATOM     13  C   UNL     1      -1.255  11.382  19.140  0.00  0.00    +0.000 A 
ATOM     14  H   UNL     1       1.536   8.454  17.074  0.00  0.00    +0.000 HD
ATOM     15  H   UNL     1       3.212   7.166  17.175  0.00  0.00    +0.000 HD
ATOM     16  H   UNL     1       0.511  12.542  21.535  0.00  0.00    +0.000 HD
ENDROOT
BRANCH  12  17
ATOM     17  O   UNL     1      -3.246  12.825  19.503  0.00  0.00    +0.000 OA
ATOM     18  C   UNL     1      -4.148  12.740  20.606  0.00  0.00    +0.000 C 
ENDBRANCH  12  17
BRANCH   1  19
ATOM     19  C   UNL     1      -2.703  10.276  17.287  0.00  0.00    +0.000 C 
BRANCH  19  21
ATOM     20  C   UNL     1      -3.308  10.266  15.023  0.00  0.00    +0.000 C 
ATOM     21  O   UNL     1      -2.733  11.029  16.077  0.00  0.00    +0.000 OA
ENDBRANCH  19  21
ENDBRANCH   1  19
BRANCH   7  22
ATOM     22  C   UNL     1       3.977   5.938  18.707  0.00  0.00    +0.000 C 
BRANCH  22  23
ATOM     23  C   UNL     1       2.953   4.832  18.991  0.00  0.00    +0.000 A 
ATOM     24  C   UNL     1       2.164   4.303  17.960  0.00  0.00    +0.000 A 
ATOM     25  C   UNL     1       1.150   3.382  18.245  0.00  0.00    +0.000 A 
ATOM     26  C   UNL     1       0.921   2.970  19.557  0.00  0.00    +0.000 A 
ATOM     27  C   UNL     1       1.703   3.475  20.590  0.00  0.00    +0.000 A 
ATOM     28  C   UNL     1       2.702   4.407  20.311  0.00  0.00    +0.000 A 
ENDBRANCH  22  23
BRANCH  22  29
ATOM     29  C   UNL     1       5.041   5.313  17.764  0.00  0.00    +0.000 C 
BRANCH  29  30
ATOM     30  O   UNL     1       4.926   5.757  16.416  0.00  0.00    +0.000 OA
ATOM     31  C   UNL     1       5.402   4.792  15.492  0.00  0.00    +0.000 C 
ENDBRANCH  29  30
ENDBRANCH  22  29
ENDBRANCH   7  22
TORSDOF 7
ENDMDL
MODEL 8
REMARK VINA RESULT:      -7.3      1.512      2.229
REMARK  Name = 
REMARK  10 active torsions:
REMARK  status: ('A' for Active; 'I' for Inactive)
REMARK    1  A    between atoms: C_1  and  O_2
REMARK    2  A    between atoms: O_2  and  C_3
REMARK    3  A    between atoms: C_3  and  C_4
REMARK    4  A    between atoms: N_10  and  C_11
REMARK    5  A    between atoms: C_11  and  C_12
REMARK    6  A    between atoms: C_11  and  C_15
REMARK    7  A    between atoms: C_12  and  O_13
REMARK    8  A    between atoms: O_13  and  C_14
REMARK    9  A    between atoms: C_25  and  O_26
REMARK   10  A    between atoms: O_26  and  C_27
REMARK                            x       y       z     vdW  Elec       q    Type
REMARK                         _______ _______ _______ _____ _____    ______ ____
ROOT
ATOM      1  C   UNL     1       3.361   5.071  17.339  0.00  0.00    +0.000 A 
ATOM      2  N   UNL     1       2.596   5.960  18.059  0.00  0.00    +0.000 NA
ATOM      3  C   UNL     1       3.017   7.227  18.245  0.00  0.00    +0.000 A 
ATOM      4  N   UNL     1       2.136   8.031  18.974  0.00  0.00    +0.000 N 
ATOM      5  C   UNL     1       1.722   9.260  18.493  0.00  0.00    +0.000 C 
ATOM      6  O   UNL     1       2.045   9.717  17.408  0.00  0.00    +0.000 OA
ATOM      7  N   UNL     1       0.904   9.883  19.405  0.00  0.00    +0.000 N 
ATOM      8  C   UNL     1       4.246   7.718  17.836  0.00  0.00    +0.000 A 
ATOM      9  C   UNL     1       5.062   6.778  17.209  0.00  0.00    +0.000 A 
ATOM     10  N   UNL     1       6.336   6.879  16.728  0.00  0.00    +0.000 N 
ATOM     11  N   UNL     1       6.795   5.761  16.151  0.00  0.00    +0.000 NA
ATOM     12  C   UNL     1       5.775   4.906  16.286  0.00  0.00    +0.000 A 
ATOM     13  C   UNL     1       4.657   5.470  16.945  0.00  0.00    +0.000 A 
ATOM     14  H   UNL     1       1.413   7.483  19.407  0.00  0.00    +0.000 HD
ATOM     15  H   UNL     1       0.489   9.263  20.082  0.00  0.00    +0.000 HD
ATOM     16  H   UNL     1       6.949   7.686  16.766  0.00  0.00    +0.000 HD
ENDROOT
BRANCH  12  17
ATOM     17  O   UNL     1       5.896   3.655  15.783  0.00  0.00    +0.000 OA
ATOM     18  C   UNL     1       6.106   3.626  14.372  0.00  0.00    +0.000 C 
ENDBRANCH  12  17
BRANCH   1  19
ATOM     19  C   UNL     1       2.690   3.772  16.972  0.00  0.00    +0.000 C 
BRANCH  19  21
ATOM     20  C   UNL     1       1.332   2.653  18.521  0.00  0.00    +0.000 C 
ATOM     21  O   UNL     1       1.381   3.669  17.527  0.00  0.00    +0.000 OA
ENDBRANCH  19  21
ENDBRANCH   1  19
BRANCH   7  22
ATOM     22  C   UNL     1       0.174  11.139  19.174  0.00  0.00    +0.000 C 
BRANCH  22  23
ATOM     23  C   UNL     1      -1.191  10.810  18.556  0.00  0.00    +0.000 A 
ATOM     24  C   UNL     1      -1.302   9.874  17.518  0.00  0.00    +0.000 A 
ATOM     25  C   UNL     1      -2.529   9.667  16.878  0.00  0.00    +0.000 A 
ATOM     26  C   UNL     1      -3.660  10.380  17.275  0.00  0.00    +0.000 A 
ATOM     27  C   UNL     1      -3.570  11.303  18.312  0.00  0.00    +0.000 A 
ATOM     28  C   UNL     1      -2.344  11.525  18.938  0.00  0.00    +0.000 A 
ENDBRANCH  22  23
BRANCH  22  29
ATOM     29  C   UNL     1      -0.117  11.991  20.438  0.00  0.00    +0.000 C 
BRANCH  29  30
ATOM     30  O   UNL     1       1.064  12.416  21.112  0.00  0.00    +0.000 OA
ATOM     31  C   UNL     1       1.124  13.827  21.247  0.00  0.00    +0.000 C 
ENDBRANCH  29  30
ENDBRANCH  22  29
ENDBRANCH   7  22
TORSDOF 7
ENDMDL
MODEL 9
REMARK VINA RESULT:      -7.3      1.853      2.515
REMARK  Name = 
REMARK  10 active torsions:
REMARK  status: ('A' for Active; 'I' for Inactive)
REMARK    1  A    between atoms: C_1  and  O_2
REMARK    2  A    between atoms: O_2  and  C_3
REMARK    3  A    between atoms: C_3  and  C_4
REMARK    4  A    between atoms: N_10  and  C_11
REMARK    5  A    between atoms: C_11  and  C_12
REMARK    6  A    between atoms: C_11  and  C_15
REMARK    7  A    between atoms: C_12  and  O_13
REMARK    8  A    between atoms: O_13  and  C_14
REMARK    9  A    between atoms: C_25  and  O_26
REMARK   10  A    between atoms: O_26  and  C_27
REMARK                            x       y       z     vdW  Elec       q    Type
REMARK                         _______ _______ _______ _____ _____    ______ ____
ROOT
ATOM      1  C   UNL     1       1.816   4.508  19.447  0.00  0.00    +0.000 A 
ATOM      2  N   UNL     1       1.586   5.738  20.020  0.00  0.00    +0.000 NA
ATOM      3  C   UNL     1       2.136   6.850  19.491  0.00  0.00    +0.000 A 
ATOM      4  N   UNL     1       1.805   8.035  20.155  0.00  0.00    +0.000 N 
ATOM      5  C   UNL     1       1.297   9.123  19.471  0.00  0.00    +0.000 C 
ATOM      6  O   UNL     1       1.061   9.131  18.273  0.00  0.00    +0.000 OA
ATOM      7  N   UNL     1       1.099  10.181  20.326  0.00  0.00    +0.000 N 
ATOM      8  C   UNL     1       3.024   6.862  18.428  0.00  0.00    +0.000 A 
ATOM      9  C   UNL     1       3.340   5.600  17.927  0.00  0.00    +0.000 A 
ATOM     10  N   UNL     1       4.200   5.221  16.937  0.00  0.00    +0.000 N 
ATOM     11  N   UNL     1       4.221   3.902  16.704  0.00  0.00    +0.000 NA
ATOM     12  C   UNL     1       3.349   3.419  17.595  0.00  0.00    +0.000 A 
ATOM     13  C   UNL     1       2.761   4.424  18.402  0.00  0.00    +0.000 A 
ATOM     14  H   UNL     1       1.362   7.848  21.038  0.00  0.00    +0.000 HD
ATOM     15  H   UNL     1       1.038   9.923  21.297  0.00  0.00    +0.000 HD
ATOM     16  H   UNL     1       4.806   5.817  16.382  0.00  0.00    +0.000 HD
ENDROOT
BRANCH  12  17
ATOM     17  O   UNL     1       3.107   2.089  17.624  0.00  0.00    +0.000 OA
ATOM     18  C   UNL     1       3.876   1.390  18.602  0.00  0.00    +0.000 C 
ENDBRANCH  12  17
BRANCH   1  19
ATOM     19  C   UNL     1       0.958   3.377  19.953  0.00  0.00    +0.000 C 
BRANCH  19  21
ATOM     20  C   UNL     1       2.424   2.685  21.646  0.00  0.00    +0.000 C 
ATOM     21  O   UNL     1       1.118   3.167  21.353  0.00  0.00    +0.000 OA
ENDBRANCH  19  21
ENDBRANCH   1  19
BRANCH   7  22
ATOM     22  C   UNL     1       0.447  11.450  19.971  0.00  0.00    +0.000 C 
BRANCH  22  23
ATOM     23  C   UNL     1      -0.663  11.738  20.992  0.00  0.00    +0.000 A 
ATOM     24  C   UNL     1      -1.585  12.771  20.776  0.00  0.00    +0.000 A 
ATOM     25  C   UNL     1      -2.518  13.105  21.763  0.00  0.00    +0.000 A 
ATOM     26  C   UNL     1      -2.549  12.406  22.970  0.00  0.00    +0.000 A 
ATOM     27  C   UNL     1      -1.648  11.370  23.194  0.00  0.00    +0.000 A 
ATOM     28  C   UNL     1      -0.706  11.047  22.219  0.00  0.00    +0.000 A 
ENDBRANCH  22  23
BRANCH  22  29
ATOM     29  C   UNL     1       1.366  12.701  19.967  0.00  0.00    +0.000 C 
BRANCH  29  30
ATOM     30  O   UNL     1       2.089  12.871  21.183  0.00  0.00    +0.000 OA
ATOM     31  C   UNL     1       3.119  13.840  21.063  0.00  0.00    +0.000 C 
ENDBRANCH  29  30
ENDBRANCH  22  29
ENDBRANCH   7  22
TORSDOF 7
ENDMDL
