MODEL 1
REMARK VINA RESULT:      -8.5      0.000      0.000
REMARK  Name = 
REMARK  4 active torsions:
REMARK  status: ('A' for Active; 'I' for Inactive)
REMARK    1  A    between atoms: C_1  and  O_2
REMARK    2  A    between atoms: O_2  and  C_3
REMARK    3  A    between atoms: C_8  and  C_9
REMARK    4  A    between atoms: N_11  and  C_12
REMARK                            x       y       z     vdW  Elec       q    Type
REMARK                         _______ _______ _______ _____ _____    ______ ____
ROOT
ATOM      1  C   UNL     1       3.176   5.977  18.734  0.00  0.00    +0.000 C 
ATOM      2  O   UNL     1       2.588   4.903  18.659  0.00  0.00    +0.000 OA
ATOM      3  N   UNL     1       4.529   6.105  18.529  0.00  0.00    +0.000 N 
ATOM      4  H   UNL     1       5.015   6.956  18.783  0.00  0.00    +0.000 HD
ENDROOT
BRANCH   3   5
ATOM      5  C   UNL     1       5.355   4.941  18.245  0.00  0.00    +0.000 C 
ATOM      6  C   UNL     1       6.800   5.155  18.790  0.00  0.00    +0.000 C 
ATOM      7  O   UNL     1       7.121   5.459  19.928  0.00  0.00    +0.000 OA
ATOM      8  N   UNL     1       7.675   5.036  17.715  0.00  0.00    +0.000 N 
ATOM      9  C   UNL     1       6.988   4.819  16.530  0.00  0.00    +0.000 A 
ATOM     10  C   UNL     1       7.524   4.696  15.266  0.00  0.00    +0.000 A 
ATOM     11  C   UNL     1       6.633   4.488  14.210  0.00  0.00    +0.000 A 
ATOM     12  C   UNL     1       5.248   4.397  14.445  0.00  0.00    +0.000 A 
ATOM     13  C   UNL     1       4.729   4.525  15.738  0.00  0.00    +0.000 A 
ATOM     14  C   UNL     1       5.615   4.755  16.775  0.00  0.00    +0.000 A 
ATOM     15  H   UNL     1       8.674   5.153  17.804  0.00  0.00    +0.000 HD
ENDBRANCH   3   5
BRANCH   1  21
ATOM     16  C   UNL     1      -0.120  10.831  21.482  0.00  0.00    +0.000 A 
ATOM     17  C   UNL     1       0.072   9.829  22.426  0.00  0.00    +0.000 A 
ATOM     18  C   UNL     1       0.739   8.658  22.070  0.00  0.00    +0.000 A 
ATOM     19  C   UNL     1       1.221   8.488  20.760  0.00  0.00    +0.000 A 
ATOM     20  C   UNL     1       1.926   7.332  20.394  0.00  0.00    +0.000 A 
ATOM     21  C   UNL     1       2.421   7.197  19.098  0.00  0.00    +0.000 A 
ATOM     22  C   UNL     1       2.137   8.215  18.200  0.00  0.00    +0.000 A 
ATOM     23  N   UNL     1       1.450   9.343  18.521  0.00  0.00    +0.000 NA
ATOM     24  C   UNL     1       1.006   9.483  19.787  0.00  0.00    +0.000 A 
ATOM     25  C   UNL     1       0.325  10.633  20.169  0.00  0.00    +0.000 A 
BRANCH  16  27
ATOM     26  C   UNL     1      -1.588  12.035  22.887  0.00  0.00    +0.000 C 
ATOM     27  O   UNL     1      -0.764  12.015  21.724  0.00  0.00    +0.000 OA
ENDBRANCH  16  27
ENDBRANCH   1  21
TORSDOF 3
ENDMDL
MODEL 2
REMARK VINA RESULT:      -8.3      1.176      1.753
REMARK  Name = 
REMARK  4 active torsions:
REMARK  status: ('A' for Active; 'I' for Inactive)
REMARK    1  A    between atoms: C_1  and  O_2
REMARK    2  A    between atoms: O_2  and  C_3
REMARK    3  A    between atoms: C_8  and  C_9
REMARK    4  A    between atoms: N_11  and  C_12
REMARK                            x       y       z     vdW  Elec       q    Type
REMARK                         _______ _______ _______ _____ _____    ______ ____
ROOT
ATOM      1  C   UNL     1       3.288   5.596  19.110  0.00  0.00    +0.000 C 
ATOM      2  O   UNL     1       2.800   4.471  19.074  0.00  0.00    +0.000 OA
ATOM      3  N   UNL     1       4.601   5.852  18.790  0.00  0.00    +0.000 N 
ATOM      4  H   UNL     1       5.024   6.745  19.011  0.00  0.00    +0.000 HD
ENDROOT
BRANCH   3   5
ATOM      5  C   UNL     1       5.505   4.773  18.425  0.00  0.00    +0.000 C 
ATOM      6  C   UNL     1       6.958   5.104  18.881  0.00  0.00    +0.000 C 
ATOM      7  O   UNL     1       7.326   5.413  20.004  0.00  0.00    +0.000 OA
ATOM      8  N   UNL     1       7.767   5.085  17.750  0.00  0.00    +0.000 N 
ATOM      9  C   UNL     1       7.026   4.830  16.606  0.00  0.00    +0.000 A 
ATOM     10  C   UNL     1       7.486   4.781  15.308  0.00  0.00    +0.000 A 
ATOM     11  C   UNL     1       6.548   4.514  14.306  0.00  0.00    +0.000 A 
ATOM     12  C   UNL     1       5.195   4.296  14.627  0.00  0.00    +0.000 A 
ATOM     13  C   UNL     1       4.754   4.351  15.953  0.00  0.00    +0.000 A 
ATOM     14  C   UNL     1       5.683   4.639  16.937  0.00  0.00    +0.000 A 
ATOM     15  H   UNL     1       8.756   5.289  17.777  0.00  0.00    +0.000 HD
ENDBRANCH   3   5
BRANCH   1  21
ATOM     16  C   UNL     1      -0.132  11.043  19.886  0.00  0.00    +0.000 A 
ATOM     17  C   UNL     1       0.514  11.092  18.656  0.00  0.00    +0.000 A 
ATOM     18  C   UNL     1       1.339  10.038  18.263  0.00  0.00    +0.000 A 
ATOM     19  C   UNL     1       1.518   8.927  19.105  0.00  0.00    +0.000 A 
ATOM     20  C   UNL     1       2.315   7.842  18.711  0.00  0.00    +0.000 A 
ATOM     21  C   UNL     1       2.455   6.738  19.550  0.00  0.00    +0.000 A 
ATOM     22  C   UNL     1       1.826   6.793  20.784  0.00  0.00    +0.000 A 
ATOM     23  N   UNL     1       1.054   7.831  21.199  0.00  0.00    +0.000 NA
ATOM     24  C   UNL     1       0.893   8.881  20.367  0.00  0.00    +0.000 A 
ATOM     25  C   UNL     1       0.088   9.953  20.736  0.00  0.00    +0.000 A 
BRANCH  16  27
ATOM     26  C   UNL     1      -2.031  12.397  19.508  0.00  0.00    +0.000 C 
ATOM     27  O   UNL     1      -0.958  12.023  20.369  0.00  0.00    +0.000 OA
ENDBRANCH  16  27
ENDBRANCH   1  21
TORSDOF 3
ENDMDL
MODEL 3
REMARK VINA RESULT:      -8.1      3.119      8.731
REMARK  Name = 
REMARK  4 active torsions:
REMARK  status: ('A' for Active; 'I' for Inactive)
REMARK    1  A    between atoms: C_1  and  O_2
REMARK    2  A    between atoms: O_2  and  C_3
REMARK    3  A    between atoms: C_8  and  C_9
REMARK    4  A    between atoms: N_11  and  C_12
REMARK                            x       y       z     vdW  Elec       q    Type
REMARK                         _______ _______ _______ _____ _____    ______ ____
ROOT
ATOM      1  C   UNL     1       1.324   9.787  18.277  0.00  0.00    +0.000 C 
ATOM      2  O   UNL     1       1.968  10.593  17.615  0.00  0.00    +0.000 OA
ATOM      3  N   UNL     1       0.043  10.032  18.714  0.00  0.00    +0.000 N 
ATOM      4  H   UNL     1      -0.389   9.440  19.411  0.00  0.00    +0.000 HD
ENDROOT
BRANCH   3   5
ATOM      5  C   UNL     1      -0.609  11.303  18.440  0.00  0.00    +0.000 C 
ATOM      6  C   UNL     1      -1.026  11.997  19.772  0.00  0.00    +0.000 C 
ATOM      7  O   UNL     1      -0.310  12.247  20.729  0.00  0.00    +0.000 OA
ATOM      8  N   UNL     1      -2.402  12.198  19.727  0.00  0.00    +0.000 N 
ATOM      9  C   UNL     1      -2.947  11.684  18.560  0.00  0.00    +0.000 A 
ATOM     10  C   UNL     1      -4.277  11.666  18.198  0.00  0.00    +0.000 A 
ATOM     11  C   UNL     1      -4.598  11.084  16.969  0.00  0.00    +0.000 A 
ATOM     12  C   UNL     1      -3.592  10.553  16.140  0.00  0.00    +0.000 A 
ATOM     13  C   UNL     1      -2.249  10.584  16.530  0.00  0.00    +0.000 A 
ATOM     14  C   UNL     1      -1.941  11.140  17.759  0.00  0.00    +0.000 A 
ATOM     15  H   UNL     1      -2.922  12.617  20.485  0.00  0.00    +0.000 HD
ENDBRANCH   3   5
BRANCH   1  21
ATOM     16  C   UNL     1       4.663   4.270  18.896  0.00  0.00    +0.000 A 
ATOM     17  C   UNL     1       4.921   4.810  17.641  0.00  0.00    +0.000 A 
ATOM     18  C   UNL     1       4.295   5.996  17.255  0.00  0.00    +0.000 A 
ATOM     19  C   UNL     1       3.408   6.646  18.130  0.00  0.00    +0.000 A 
ATOM     20  C   UNL     1       2.799   7.858  17.772  0.00  0.00    +0.000 A 
ATOM     21  C   UNL     1       1.946   8.502  18.667  0.00  0.00    +0.000 A 
ATOM     22  C   UNL     1       1.697   7.868  19.875  0.00  0.00    +0.000 A 
ATOM     23  N   UNL     1       2.265   6.692  20.249  0.00  0.00    +0.000 NA
ATOM     24  C   UNL     1       3.117   6.093  19.392  0.00  0.00    +0.000 A 
ATOM     25  C   UNL     1       3.746   4.903  19.743  0.00  0.00    +0.000 A 
BRANCH  16  27
ATOM     26  C   UNL     1       4.314   2.224  20.025  0.00  0.00    +0.000 C 
ATOM     27  O   UNL     1       5.219   3.113  19.373  0.00  0.00    +0.000 OA
ENDBRANCH  16  27
ENDBRANCH   1  21
TORSDOF 3
ENDMDL
MODEL 4
REMARK VINA RESULT:      -8.0      2.172      2.688
REMARK  Name = 
REMARK  4 active torsions:
REMARK  status: ('A' for Active; 'I' for Inactive)
REMARK    1  A    between atoms: C_1  and  O_2
REMARK    2  A    between atoms: O_2  and  C_3
REMARK    3  A    between atoms: C_8  and  C_9
REMARK    4  A    between atoms: N_11  and  C_12
REMARK                            x       y       z     vdW  Elec       q    Type
REMARK                         _______ _______ _______ _____ _____    ______ ____
ROOT
ATOM      1  C   UNL     1       2.336   7.997  18.250  0.00  0.00    +0.000 C 
ATOM      2  O   UNL     1       2.508   8.198  17.053  0.00  0.00    +0.000 OA
ATOM      3  N   UNL     1       2.785   6.867  18.892  0.00  0.00    +0.000 N 
ATOM      4  H   UNL     1       2.466   6.639  19.825  0.00  0.00    +0.000 HD
ENDROOT
BRANCH   3   5
ATOM      5  C   UNL     1       3.466   5.812  18.158  0.00  0.00    +0.000 C 
ATOM      6  C   UNL     1       3.425   4.477  18.961  0.00  0.00    +0.000 C 
ATOM      7  O   UNL     1       2.437   3.917  19.409  0.00  0.00    +0.000 OA
ATOM      8  N   UNL     1       4.740   4.075  19.173  0.00  0.00    +0.000 N 
ATOM      9  C   UNL     1       5.637   4.995  18.653  0.00  0.00    +0.000 A 
ATOM     10  C   UNL     1       7.013   4.946  18.716  0.00  0.00    +0.000 A 
ATOM     11  C   UNL     1       7.720   5.998  18.126  0.00  0.00    +0.000 A 
ATOM     12  C   UNL     1       7.039   7.051  17.486  0.00  0.00    +0.000 A 
ATOM     13  C   UNL     1       5.641   7.078  17.436  0.00  0.00    +0.000 A 
ATOM     14  C   UNL     1       4.948   6.046  18.043  0.00  0.00    +0.000 A 
ATOM     15  H   UNL     1       4.984   3.242  19.690  0.00  0.00    +0.000 HD
ENDBRANCH   3   5
BRANCH   1  21
ATOM     16  C   UNL     1      -0.951  11.435  22.650  0.00  0.00    +0.000 A 
ATOM     17  C   UNL     1      -0.748  10.152  23.145  0.00  0.00    +0.000 A 
ATOM     18  C   UNL     1      -0.081   9.205  22.368  0.00  0.00    +0.000 A 
ATOM     19  C   UNL     1       0.390   9.545  21.088  0.00  0.00    +0.000 A 
ATOM     20  C   UNL     1       1.096   8.618  20.307  0.00  0.00    +0.000 A 
ATOM     21  C   UNL     1       1.580   8.985  19.053  0.00  0.00    +0.000 A 
ATOM     22  C   UNL     1       1.286  10.265  18.609  0.00  0.00    +0.000 A 
ATOM     23  N   UNL     1       0.599  11.185  19.336  0.00  0.00    +0.000 NA
ATOM     24  C   UNL     1       0.165  10.833  20.564  0.00  0.00    +0.000 A 
ATOM     25  C   UNL     1      -0.516  11.750  21.357  0.00  0.00    +0.000 A 
BRANCH  16  27
ATOM     26  C   UNL     1      -2.998  12.248  23.505  0.00  0.00    +0.000 C 
ATOM     27  O   UNL     1      -1.596  12.436  23.326  0.00  0.00    +0.000 OA
ENDBRANCH  16  27
ENDBRANCH   1  21
TORSDOF 3
ENDMDL
MODEL 5
REMARK VINA RESULT:      -7.9      2.124      3.023
REMARK  Name = 
REMARK  4 active torsions:
REMARK  status: ('A' for Active; 'I' for Inactive)
REMARK    1  A    between atoms: C_1  and  O_2
REMARK    2  A    between atoms: O_2  and  C_3
REMARK    3  A    between atoms: C_8  and  C_9
REMARK    4  A    between atoms: N_11  and  C_12
REMARK                            x       y       z     vdW  Elec       q    Type
REMARK                         _______ _______ _______ _____ _____    ______ ____
ROOT
ATOM      1  C   UNL     1       2.272   7.959  18.373  0.00  0.00    +0.000 C 
ATOM      2  O   UNL     1       2.402   8.563  17.313  0.00  0.00    +0.000 OA
ATOM      3  N   UNL     1       2.744   6.683  18.570  0.00  0.00    +0.000 N 
ATOM      4  H   UNL     1       2.458   6.143  19.377  0.00  0.00    +0.000 HD
ENDROOT
BRANCH   3   5
ATOM      5  C   UNL     1       3.401   5.955  17.495  0.00  0.00    +0.000 C 
ATOM      6  C   UNL     1       3.157   4.423  17.649  0.00  0.00    +0.000 C 
ATOM      7  O   UNL     1       2.082   3.855  17.760  0.00  0.00    +0.000 OA
ATOM      8  N   UNL     1       4.401   3.808  17.742  0.00  0.00    +0.000 N 
ATOM      9  C   UNL     1       5.426   4.742  17.715  0.00  0.00    +0.000 A 
ATOM     10  C   UNL     1       6.779   4.499  17.827  0.00  0.00    +0.000 A 
ATOM     11  C   UNL     1       7.634   5.604  17.782  0.00  0.00    +0.000 A 
ATOM     12  C   UNL     1       7.120   6.904  17.616  0.00  0.00    +0.000 A 
ATOM     13  C   UNL     1       5.743   7.124  17.504  0.00  0.00    +0.000 A 
ATOM     14  C   UNL     1       4.901   6.028  17.573  0.00  0.00    +0.000 A 
ATOM     15  H   UNL     1       4.515   2.813  17.867  0.00  0.00    +0.000 HD
ENDBRANCH   3   5
BRANCH   1  21
ATOM     16  C   UNL     1      -1.350  11.536  22.381  0.00  0.00    +0.000 A 
ATOM     17  C   UNL     1      -1.386  12.109  21.115  0.00  0.00    +0.000 A 
ATOM     18  C   UNL     1      -0.659  11.533  20.072  0.00  0.00    +0.000 A 
ATOM     19  C   UNL     1       0.107  10.377  20.297  0.00  0.00    +0.000 A 
ATOM     20  C   UNL     1       0.815   9.763  19.253  0.00  0.00    +0.000 A 
ATOM     21  C   UNL     1       1.544   8.600  19.491  0.00  0.00    +0.000 A 
ATOM     22  C   UNL     1       1.575   8.126  20.794  0.00  0.00    +0.000 A 
ATOM     23  N   UNL     1       0.908   8.700  21.829  0.00  0.00    +0.000 NA
ATOM     24  C   UNL     1       0.175   9.805  21.583  0.00  0.00    +0.000 A 
ATOM     25  C   UNL     1      -0.549  10.410  22.605  0.00  0.00    +0.000 A 
BRANCH  16  27
ATOM     26  C   UNL     1      -3.345  12.484  23.220  0.00  0.00    +0.000 C 
ATOM     27  O   UNL     1      -2.020  12.021  23.472  0.00  0.00    +0.000 OA
ENDBRANCH  16  27
ENDBRANCH   1  21
TORSDOF 3
ENDMDL
MODEL 6
REMARK VINA RESULT:      -7.9      3.131      8.511
REMARK  Name = 
REMARK  4 active torsions:
REMARK  status: ('A' for Active; 'I' for Inactive)
REMARK    1  A    between atoms: C_1  and  O_2
REMARK    2  A    between atoms: O_2  and  C_3
REMARK    3  A    between atoms: C_8  and  C_9
REMARK    4  A    between atoms: N_11  and  C_12
REMARK                            x       y       z     vdW  Elec       q    Type
REMARK                         _______ _______ _______ _____ _____    ______ ____
ROOT
ATOM      1  C   UNL     1       1.494   9.865  18.207  0.00  0.00    +0.000 C 
ATOM      2  O   UNL     1       2.221  10.843  18.067  0.00  0.00    +0.000 OA
ATOM      3  N   UNL     1       0.123   9.954  18.266  0.00  0.00    +0.000 N 
ATOM      4  H   UNL     1      -0.435   9.167  18.571  0.00  0.00    +0.000 HD
ENDROOT
BRANCH   3   5
ATOM      5  C   UNL     1      -0.544  11.246  18.207  0.00  0.00    +0.000 C 
ATOM      6  C   UNL     1      -0.841  11.770  19.644  0.00  0.00    +0.000 C 
ATOM      7  O   UNL     1      -0.044  11.906  20.559  0.00  0.00    +0.000 OA
ATOM      8  N   UNL     1      -2.215  11.967  19.743  0.00  0.00    +0.000 N 
ATOM      9  C   UNL     1      -2.861  11.596  18.573  0.00  0.00    +0.000 A 
ATOM     10  C   UNL     1      -4.217  11.615  18.327  0.00  0.00    +0.000 A 
ATOM     11  C   UNL     1      -4.646  11.185  17.069  0.00  0.00    +0.000 A 
ATOM     12  C   UNL     1      -3.717  10.764  16.098  0.00  0.00    +0.000 A 
ATOM     13  C   UNL     1      -2.346  10.755  16.372  0.00  0.00    +0.000 A 
ATOM     14  C   UNL     1      -1.930  11.160  17.628  0.00  0.00    +0.000 A 
ATOM     15  H   UNL     1      -2.665  12.288  20.588  0.00  0.00    +0.000 HD
ENDBRANCH   3   5
BRANCH   1  21
ATOM     16  C   UNL     1       3.341   3.867  19.817  0.00  0.00    +0.000 A 
ATOM     17  C   UNL     1       2.423   4.320  20.757  0.00  0.00    +0.000 A 
ATOM     18  C   UNL     1       1.890   5.605  20.644  0.00  0.00    +0.000 A 
ATOM     19  C   UNL     1       2.277   6.441  19.583  0.00  0.00    +0.000 A 
ATOM     20  C   UNL     1       1.724   7.721  19.433  0.00  0.00    +0.000 A 
ATOM     21  C   UNL     1       2.100   8.522  18.356  0.00  0.00    +0.000 A 
ATOM     22  C   UNL     1       3.063   8.019  17.496  0.00  0.00    +0.000 A 
ATOM     23  N   UNL     1       3.624   6.787  17.617  0.00  0.00    +0.000 NA
ATOM     24  C   UNL     1       3.228   6.003  18.641  0.00  0.00    +0.000 A 
ATOM     25  C   UNL     1       3.752   4.723  18.788  0.00  0.00    +0.000 A 
BRANCH  16  27
ATOM     26  C   UNL     1       3.559   1.763  18.764  0.00  0.00    +0.000 C 
ATOM     27  O   UNL     1       3.926   2.629  19.835  0.00  0.00    +0.000 OA
ENDBRANCH  16  27
ENDBRANCH   1  21
TORSDOF 3
ENDMDL
MODEL 7
REMARK VINA RESULT:      -7.9      2.933      8.436
REMARK  Name = 
REMARK  4 active torsions:
REMARK  status: ('A' for Active; 'I' for Inactive)
REMARK    1  A    between atoms: C_1  and  O_2
REMARK    2  A    between atoms: O_2  and  C_3
REMARK    3  A    between atoms: C_8  and  C_9
REMARK    4  A    between atoms: N_11  and  C_12
REMARK                            x       y       z     vdW  Elec       q    Type
REMARK                         _______ _______ _______ _____ _____    ______ ____
ROOT
ATOM      1  C   UNL     1       1.777   9.559  18.305  0.00  0.00    +0.000 C 
ATOM      2  O   UNL     1       2.219  10.301  17.434  0.00  0.00    +0.000 OA
ATOM      3  N   UNL     1       0.813   9.951  19.203  0.00  0.00    +0.000 N 
ATOM      4  H   UNL     1       0.608   9.392  20.021  0.00  0.00    +0.000 HD
ENDROOT
BRANCH   3   5
ATOM      5  C   UNL     1       0.288  11.308  19.190  0.00  0.00    +0.000 C 
ATOM      6  C   UNL     1       0.185  11.865  20.642  0.00  0.00    +0.000 C 
ATOM      7  O   UNL     1       1.075  11.914  21.477  0.00  0.00    +0.000 OA
ATOM      8  N   UNL     1      -1.143  12.211  20.866  0.00  0.00    +0.000 N 
ATOM      9  C   UNL     1      -1.932  11.911  19.766  0.00  0.00    +0.000 A 
ATOM     10  C   UNL     1      -3.296  12.078  19.647  0.00  0.00    +0.000 A 
ATOM     11  C   UNL     1      -3.885  11.695  18.439  0.00  0.00    +0.000 A 
ATOM     12  C   UNL     1      -3.103  11.173  17.392  0.00  0.00    +0.000 A 
ATOM     13  C   UNL     1      -1.721  11.014  17.537  0.00  0.00    +0.000 A 
ATOM     14  C   UNL     1      -1.148  11.373  18.744  0.00  0.00    +0.000 A 
ATOM     15  H   UNL     1      -1.475  12.581  21.745  0.00  0.00    +0.000 HD
ENDBRANCH   3   5
BRANCH   1  21
ATOM     16  C   UNL     1       3.323   3.454  19.824  0.00  0.00    +0.000 A 
ATOM     17  C   UNL     1       2.414   3.931  20.761  0.00  0.00    +0.000 A 
ATOM     18  C   UNL     1       1.943   5.241  20.666  0.00  0.00    +0.000 A 
ATOM     19  C   UNL     1       2.382   6.078  19.625  0.00  0.00    +0.000 A 
ATOM     20  C   UNL     1       1.891   7.385  19.493  0.00  0.00    +0.000 A 
ATOM     21  C   UNL     1       2.318   8.187  18.436  0.00  0.00    +0.000 A 
ATOM     22  C   UNL     1       3.269   7.656  17.579  0.00  0.00    +0.000 A 
ATOM     23  N   UNL     1       3.771   6.397  17.684  0.00  0.00    +0.000 NA
ATOM     24  C   UNL     1       3.326   5.614  18.688  0.00  0.00    +0.000 A 
ATOM     25  C   UNL     1       3.787   4.309  18.817  0.00  0.00    +0.000 A 
BRANCH  16  27
ATOM     26  C   UNL     1       3.594   1.418  18.656  0.00  0.00    +0.000 C 
ATOM     27  O   UNL     1       3.851   2.190  19.827  0.00  0.00    +0.000 OA
ENDBRANCH  16  27
ENDBRANCH   1  21
TORSDOF 3
ENDMDL
MODEL 8
REMARK VINA RESULT:      -7.8      5.597      7.264
REMARK  Name = 
REMARK  4 active torsions:
REMARK  status: ('A' for Active; 'I' for Inactive)
REMARK    1  A    between atoms: C_1  and  O_2
REMARK    2  A    between atoms: O_2  and  C_3
REMARK    3  A    between atoms: C_8  and  C_9
REMARK    4  A    between atoms: N_11  and  C_12
REMARK                            x       y       z     vdW  Elec       q    Type
REMARK                         _______ _______ _______ _____ _____    ______ ____
ROOT
ATOM      1  C   UNL     1       8.104   7.686  18.250  0.00  0.00    +0.000 C 
ATOM      2  O   UNL     1       8.541   6.989  19.160  0.00  0.00    +0.000 OA
ATOM      3  N   UNL     1       7.376   7.177  17.201  0.00  0.00    +0.000 N 
ATOM      4  H   UNL     1       7.195   7.735  16.376  0.00  0.00    +0.000 HD
ENDROOT
BRANCH   3   5
ATOM      5  C   UNL     1       7.116   5.750  17.095  0.00  0.00    +0.000 C 
ATOM      6  C   UNL     1       6.871   5.351  15.608  0.00  0.00    +0.000 C 
ATOM      7  O   UNL     1       7.599   5.577  14.655  0.00  0.00    +0.000 OA
ATOM      8  N   UNL     1       5.609   4.770  15.533  0.00  0.00    +0.000 N 
ATOM      9  C   UNL     1       4.978   4.778  16.767  0.00  0.00    +0.000 A 
ATOM     10  C   UNL     1       3.708   4.326  17.058  0.00  0.00    +0.000 A 
ATOM     11  C   UNL     1       3.273   4.443  18.381  0.00  0.00    +0.000 A 
ATOM     12  C   UNL     1       4.115   4.991  19.368  0.00  0.00    +0.000 A 
ATOM     13  C   UNL     1       5.399   5.442  19.048  0.00  0.00    +0.000 A 
ATOM     14  C   UNL     1       5.814   5.345  17.731  0.00  0.00    +0.000 A 
ATOM     15  H   UNL     1       5.206   4.442  14.667  0.00  0.00    +0.000 HD
ENDBRANCH   3   5
BRANCH   1  21
ATOM     16  C   UNL     1      10.235  13.749  19.072  0.00  0.00    +0.000 A 
ATOM     17  C   UNL     1      10.866  12.924  19.997  0.00  0.00    +0.000 A 
ATOM     18  C   UNL     1      10.555  11.565  20.039  0.00  0.00    +0.000 A 
ATOM     19  C   UNL     1       9.610  11.026  19.149  0.00  0.00    +0.000 A 
ATOM     20  C   UNL     1       9.312   9.656  19.152  0.00  0.00    +0.000 A 
ATOM     21  C   UNL     1       8.394   9.138  18.241  0.00  0.00    +0.000 A 
ATOM     22  C   UNL     1       7.766  10.036  17.392  0.00  0.00    +0.000 A 
ATOM     23  N   UNL     1       8.026  11.370  17.368  0.00  0.00    +0.000 NA
ATOM     24  C   UNL     1       8.943  11.858  18.228  0.00  0.00    +0.000 A 
ATOM     25  C   UNL     1       9.263  13.211  18.220  0.00  0.00    +0.000 A 
BRANCH  16  27
ATOM     26  C   UNL     1       9.694  15.754  17.945  0.00  0.00    +0.000 C 
ATOM     27  O   UNL     1      10.462  15.094  18.949  0.00  0.00    +0.000 OA
ENDBRANCH  16  27
ENDBRANCH   1  21
TORSDOF 3
ENDMDL
MODEL 9
REMARK VINA RESULT:      -7.7      2.179      2.886
REMARK  Name = 
REMARK  4 active torsions:
REMARK  status: ('A' for Active; 'I' for Inactive)
REMARK    1  A    between atoms: C_1  and  O_2
REMARK    2  A    between atoms: O_2  and  C_3
REMARK    3  A    between atoms: C_8  and  C_9
REMARK    4  A    between atoms: N_11  and  C_12
REMARK                            x       y       z     vdW  Elec       q    Type
REMARK                         _______ _______ _______ _____ _____    ______ ____
ROOT
ATOM      1  C   UNL     1       2.198   7.477  19.043  0.00  0.00    +0.000 C 
ATOM      2  O   UNL     1       2.060   7.667  17.840  0.00  0.00    +0.000 OA
ATOM      3  N   UNL     1       2.952   6.449  19.558  0.00  0.00    +0.000 N 
ATOM      4  H   UNL     1       2.893   6.202  20.537  0.00  0.00    +0.000 HD
ENDROOT
BRANCH   3   5
ATOM      5  C   UNL     1       3.604   5.490  18.679  0.00  0.00    +0.000 C 
ATOM      6  C   UNL     1       3.929   4.177  19.454  0.00  0.00    +0.000 C 
ATOM      7  O   UNL     1       3.151   3.489  20.097  0.00  0.00    +0.000 OA
ATOM      8  N   UNL     1       5.302   3.971  19.373  0.00  0.00    +0.000 N 
ATOM      9  C   UNL     1       5.925   5.002  18.686  0.00  0.00    +0.000 A 
ATOM     10  C   UNL     1       7.275   5.151  18.451  0.00  0.00    +0.000 A 
ATOM     11  C   UNL     1       7.679   6.283  17.737  0.00  0.00    +0.000 A 
ATOM     12  C   UNL     1       6.733   7.216  17.273  0.00  0.00    +0.000 A 
ATOM     13  C   UNL     1       5.368   7.041  17.524  0.00  0.00    +0.000 A 
ATOM     14  C   UNL     1       4.977   5.931  18.252  0.00  0.00    +0.000 A 
ATOM     15  H   UNL     1       5.768   3.191  19.814  0.00  0.00    +0.000 HD
ENDBRANCH   3   5
BRANCH   1  21
ATOM     16  C   UNL     1      -1.203  11.981  22.227  0.00  0.00    +0.000 A 
ATOM     17  C   UNL     1      -1.159  12.322  20.880  0.00  0.00    +0.000 A 
ATOM     18  C   UNL     1      -0.459  11.516  19.982  0.00  0.00    +0.000 A 
ATOM     19  C   UNL     1       0.200  10.360  20.434  0.00  0.00    +0.000 A 
ATOM     20  C   UNL     1       0.878   9.518  19.540  0.00  0.00    +0.000 A 
ATOM     21  C   UNL     1       1.500   8.361  20.005  0.00  0.00    +0.000 A 
ATOM     22  C   UNL     1       1.460   8.123  21.370  0.00  0.00    +0.000 A 
ATOM     23  N   UNL     1       0.819   8.921  22.264  0.00  0.00    +0.000 NA
ATOM     24  C   UNL     1       0.188  10.021  21.801  0.00  0.00    +0.000 A 
ATOM     25  C   UNL     1      -0.506  10.851  22.673  0.00  0.00    +0.000 A 
BRANCH  16  27
ATOM     26  C   UNL     1      -3.161  12.235  23.524  0.00  0.00    +0.000 C 
ATOM     27  O   UNL     1      -1.856  12.702  23.191  0.00  0.00    +0.000 OA
ENDBRANCH  16  27
ENDBRANCH   1  21
TORSDOF 3
ENDMDL
