MODEL 1
REMARK VINA RESULT:      -7.3      0.000      0.000
REMARK  Name = 
REMARK  7 active torsions:
REMARK  status: ('A' for Active; 'I' for Inactive)
REMARK    1  A    between atoms: C_1  and  O_2
REMARK    2  A    between atoms: O_2  and  C_3
REMARK    3  A    between atoms: N_10  and  O_11
REMARK    4  A    between atoms: O_11  and  C_12
REMARK    5  A    between atoms: C_12  and  C_13
REMARK    6  A    between atoms: C_13  and  N_14
REMARK    7  A    between atoms: C_21  and  N_22
REMARK                            x       y       z     vdW  Elec       q    Type
REMARK                         _______ _______ _______ _____ _____    ______ ____
ROOT
ATOM      1  C   UNL     1       1.649  10.462  18.304  0.00  0.00    +0.000 A 
ATOM      2  C   UNL     1       2.692  10.053  17.477  0.00  0.00    +0.000 A 
ATOM      3  C   UNL     1       3.248   8.787  17.619  0.00  0.00    +0.000 A 
ATOM      4  C   UNL     1       2.688   7.863  18.482  0.00  0.00    +0.000 A 
ATOM      5  C   UNL     1       1.652   8.279  19.324  0.00  0.00    +0.000 A 
ATOM      6  C   UNL     1       1.137   9.573  19.258  0.00  0.00    +0.000 A 
ATOM      7  C   UNL     1       1.357   7.126  20.226  0.00  0.00    +0.000 C 
ATOM      8  N   UNL     1       0.535   7.056  21.229  0.00  0.00    +0.000 NA
ATOM      9  C   UNL     1       2.262   5.997  19.814  0.00  0.00    +0.000 A 
ATOM     10  C   UNL     1       3.040   6.476  18.737  0.00  0.00    +0.000 A 
ATOM     11  C   UNL     1       3.997   5.639  18.167  0.00  0.00    +0.000 A 
ATOM     12  N   UNL     1       4.223   4.427  18.727  0.00  0.00    +0.000 NA
ATOM     13  C   UNL     1       3.488   3.979  19.769  0.00  0.00    +0.000 A 
ATOM     14  C   UNL     1       3.808   2.738  20.305  0.00  0.00    +0.000 A 
ATOM     15  C   UNL     1       3.079   2.169  21.352  0.00  0.00    +0.000 A 
ATOM     16  C   UNL     1       1.985   2.848  21.872  0.00  0.00    +0.000 A 
ATOM     17  C   UNL     1       1.659   4.111  21.376  0.00  0.00    +0.000 A 
ATOM     18  C   UNL     1       2.423   4.706  20.338  0.00  0.00    +0.000 A 
ENDROOT
BRANCH  11  19
ATOM     19  N   UNL     1       4.780   5.989  17.081  0.00  0.00    +0.000 N 
ATOM     20  C   UNL     1       5.908   6.911  17.279  0.00  0.00    +0.000 C 
ATOM     21  C   UNL     1       7.260   6.288  16.867  0.00  0.00    +0.000 C 
ATOM     22  N   UNL     1       7.244   5.668  15.528  0.00  0.00    +0.000 NA
ATOM     23  C   UNL     1       6.214   4.619  15.524  0.00  0.00    +0.000 C 
ATOM     24  C   UNL     1       4.823   5.173  15.858  0.00  0.00    +0.000 C 
ATOM     25  H   UNL     1       8.152   5.250  15.336  0.00  0.00    +0.000 HD
ENDBRANCH  11  19
BRANCH   1  27
ATOM     26  C   UNL     1       2.007  12.797  18.481  0.00  0.00    +0.000 C 
ATOM     27  O   UNL     1       1.097  11.716  18.280  0.00  0.00    +0.000 OA
ENDBRANCH   1  27
BRANCH   8  28
ATOM     28  O   UNL     1      -0.141   8.266  21.422  0.00  0.00    +0.000 OA
BRANCH  28  29
ATOM     29  C   UNL     1       0.348   8.936  22.586  0.00  0.00    +0.000 C 
BRANCH  29  30
ATOM     30  C   UNL     1      -0.763   9.882  23.078  0.00  0.00    +0.000 C 
BRANCH  30  31
ATOM     31  N   UNL     1      -0.449  11.327  23.016  0.00  0.00    +0.000 NA
ATOM     32  C   UNL     1      -1.622  12.183  23.249  0.00  0.00    +0.000 C 
ATOM     33  C   UNL     1      -2.314  12.257  21.905  0.00  0.00    +0.000 C 
ATOM     34  C   UNL     1      -1.143  12.398  20.952  0.00  0.00    +0.000 C 
ATOM     35  C   UNL     1       0.019  11.698  21.658  0.00  0.00    +0.000 C 
ENDBRANCH  30  31
ENDBRANCH  29  30
ENDBRANCH  28  29
ENDBRANCH   8  28
TORSDOF 6
ENDMDL
MODEL 2
REMARK VINA RESULT:      -7.1      6.536      9.994
REMARK  Name = 
REMARK  7 active torsions:
REMARK  status: ('A' for Active; 'I' for Inactive)
REMARK    1  A    between atoms: C_1  and  O_2
REMARK    2  A    between atoms: O_2  and  C_3
REMARK    3  A    between atoms: N_10  and  O_11
REMARK    4  A    between atoms: O_11  and  C_12
REMARK    5  A    between atoms: C_12  and  C_13
REMARK    6  A    between atoms: C_13  and  N_14
REMARK    7  A    between atoms: C_21  and  N_22
REMARK                            x       y       z     vdW  Elec       q    Type
REMARK                         _______ _______ _______ _____ _____    ______ ____
ROOT
ATOM      1  C   UNL     1      -1.587  14.498  23.909  0.00  0.00    +0.000 A 
ATOM      2  C   UNL     1      -2.940  14.781  23.732  0.00  0.00    +0.000 A 
ATOM      3  C   UNL     1      -3.616  14.312  22.613  0.00  0.00    +0.000 A 
ATOM      4  C   UNL     1      -3.003  13.442  21.730  0.00  0.00    +0.000 A 
ATOM      5  C   UNL     1      -1.641  13.172  21.898  0.00  0.00    +0.000 A 
ATOM      6  C   UNL     1      -0.921  13.703  22.968  0.00  0.00    +0.000 A 
ATOM      7  C   UNL     1      -1.233  12.334  20.731  0.00  0.00    +0.000 C 
ATOM      8  N   UNL     1      -0.053  11.903  20.401  0.00  0.00    +0.000 NA
ATOM      9  C   UNL     1      -2.466  12.098  19.902  0.00  0.00    +0.000 A 
ATOM     10  C   UNL     1      -3.524  12.769  20.552  0.00  0.00    +0.000 A 
ATOM     11  C   UNL     1      -4.796  12.743  19.982  0.00  0.00    +0.000 A 
ATOM     12  N   UNL     1      -4.958  12.161  18.770  0.00  0.00    +0.000 NA
ATOM     13  C   UNL     1      -3.937  11.535  18.142  0.00  0.00    +0.000 A 
ATOM     14  C   UNL     1      -4.181  10.994  16.887  0.00  0.00    +0.000 A 
ATOM     15  C   UNL     1      -3.205  10.288  16.178  0.00  0.00    +0.000 A 
ATOM     16  C   UNL     1      -1.951  10.100  16.744  0.00  0.00    +0.000 A 
ATOM     17  C   UNL     1      -1.666  10.660  17.990  0.00  0.00    +0.000 A 
ATOM     18  C   UNL     1      -2.646  11.410  18.694  0.00  0.00    +0.000 A 
ENDROOT
BRANCH  11  19
ATOM     19  N   UNL     1      -5.911  13.326  20.557  0.00  0.00    +0.000 N 
ATOM     20  C   UNL     1      -6.567  12.654  21.690  0.00  0.00    +0.000 C 
ATOM     21  C   UNL     1      -6.606  13.535  22.958  0.00  0.00    +0.000 C 
ATOM     22  N   UNL     1      -7.117  14.899  22.716  0.00  0.00    +0.000 NA
ATOM     23  C   UNL     1      -6.250  15.539  21.716  0.00  0.00    +0.000 C 
ATOM     24  C   UNL     1      -6.212  14.757  20.398  0.00  0.00    +0.000 C 
ATOM     25  H   UNL     1      -7.084  15.432  23.582  0.00  0.00    +0.000 HD
ENDBRANCH  11  19
BRANCH   1  27
ATOM     26  C   UNL     1      -1.532  15.765  25.910  0.00  0.00    +0.000 C 
ATOM     27  O   UNL     1      -0.831  14.984  24.943  0.00  0.00    +0.000 OA
ENDBRANCH   1  27
BRANCH   8  28
ATOM     28  O   UNL     1       0.918  12.313  21.321  0.00  0.00    +0.000 OA
BRANCH  28  29
ATOM     29  C   UNL     1       1.983  12.997  20.659  0.00  0.00    +0.000 C 
BRANCH  29  30
ATOM     30  C   UNL     1       1.963  14.461  21.136  0.00  0.00    +0.000 C 
BRANCH  30  31
ATOM     31  N   UNL     1       1.840  15.482  20.071  0.00  0.00    +0.000 NA
ATOM     32  C   UNL     1       0.951  16.594  20.438  0.00  0.00    +0.000 C 
ATOM     33  C   UNL     1      -0.443  16.085  20.135  0.00  0.00    +0.000 C 
ATOM     34  C   UNL     1      -0.236  15.357  18.822  0.00  0.00    +0.000 C 
ATOM     35  C   UNL     1       1.221  14.894  18.859  0.00  0.00    +0.000 C 
ENDBRANCH  30  31
ENDBRANCH  29  30
ENDBRANCH  28  29
ENDBRANCH   8  28
TORSDOF 6
ENDMDL
MODEL 3
REMARK VINA RESULT:      -6.8      4.787      9.602
REMARK  Name = 
REMARK  7 active torsions:
REMARK  status: ('A' for Active; 'I' for Inactive)
REMARK    1  A    between atoms: C_1  and  O_2
REMARK    2  A    between atoms: O_2  and  C_3
REMARK    3  A    between atoms: N_10  and  O_11
REMARK    4  A    between atoms: O_11  and  C_12
REMARK    5  A    between atoms: C_12  and  C_13
REMARK    6  A    between atoms: C_13  and  N_14
REMARK    7  A    between atoms: C_21  and  N_22
REMARK                            x       y       z     vdW  Elec       q    Type
REMARK                         _______ _______ _______ _____ _____    ______ ____
ROOT
ATOM      1  C   UNL     1       0.500  10.128  18.099  0.00  0.00    +0.000 A 
ATOM      2  C   UNL     1      -0.829   9.882  17.760  0.00  0.00    +0.000 A 
ATOM      3  C   UNL     1      -1.857  10.534  18.427  0.00  0.00    +0.000 A 
ATOM      4  C   UNL     1      -1.584  11.539  19.338  0.00  0.00    +0.000 A 
ATOM      5  C   UNL     1      -0.252  11.774  19.690  0.00  0.00    +0.000 A 
ATOM      6  C   UNL     1       0.793  11.069  19.094  0.00  0.00    +0.000 A 
ATOM      7  C   UNL     1      -0.280  12.795  20.780  0.00  0.00    +0.000 C 
ATOM      8  N   UNL     1       0.699  13.272  21.486  0.00  0.00    +0.000 NA
ATOM      9  C   UNL     1      -1.721  13.170  20.998  0.00  0.00    +0.000 A 
ATOM     10  C   UNL     1      -2.480  12.401  20.089  0.00  0.00    +0.000 A 
ATOM     11  C   UNL     1      -3.869  12.526  20.089  0.00  0.00    +0.000 A 
ATOM     12  N   UNL     1      -4.455  13.304  21.030  0.00  0.00    +0.000 NA
ATOM     13  C   UNL     1      -3.725  14.024  21.911  0.00  0.00    +0.000 A 
ATOM     14  C   UNL     1      -4.407  14.769  22.864  0.00  0.00    +0.000 A 
ATOM     15  C   UNL     1      -3.744  15.582  23.787  0.00  0.00    +0.000 A 
ATOM     16  C   UNL     1      -2.359  15.669  23.751  0.00  0.00    +0.000 A 
ATOM     17  C   UNL     1      -1.644  14.907  22.826  0.00  0.00    +0.000 A 
ATOM     18  C   UNL     1      -2.316  14.052  21.911  0.00  0.00    +0.000 A 
ENDROOT
BRANCH  11  19
ATOM     19  N   UNL     1      -4.703  11.858  19.212  0.00  0.00    +0.000 N 
ATOM     20  C   UNL     1      -5.920  11.213  19.730  0.00  0.00    +0.000 C 
ATOM     21  C   UNL     1      -7.205  11.760  19.072  0.00  0.00    +0.000 C 
ATOM     22  N   UNL     1      -7.148  11.792  17.597  0.00  0.00    +0.000 NA
ATOM     23  C   UNL     1      -6.013  12.640  17.204  0.00  0.00    +0.000 C 
ATOM     24  C   UNL     1      -4.683  12.121  17.765  0.00  0.00    +0.000 C 
ATOM     25  H   UNL     1      -8.010  12.192  17.232  0.00  0.00    +0.000 HD
ENDBRANCH  11  19
BRANCH   1  27
ATOM     26  C   UNL     1       2.158   8.455  18.350  0.00  0.00    +0.000 C 
ATOM     27  O   UNL     1       1.568   9.474  17.543  0.00  0.00    +0.000 OA
ENDBRANCH   1  27
BRANCH   8  28
ATOM     28  O   UNL     1       1.924  12.711  21.107  0.00  0.00    +0.000 OA
BRANCH  28  29
ATOM     29  C   UNL     1       2.937  13.716  21.036  0.00  0.00    +0.000 C 
BRANCH  29  30
ATOM     30  C   UNL     1       3.195  14.012  19.546  0.00  0.00    +0.000 C 
BRANCH  30  31
ATOM     31  N   UNL     1       3.914  15.272  19.258  0.00  0.00    +0.000 NA
ATOM     32  C   UNL     1       3.147  16.472  19.628  0.00  0.00    +0.000 C 
ATOM     33  C   UNL     1       2.221  16.710  18.454  0.00  0.00    +0.000 C 
ATOM     34  C   UNL     1       3.126  16.423  17.273  0.00  0.00    +0.000 C 
ATOM     35  C   UNL     1       4.146  15.414  17.800  0.00  0.00    +0.000 C 
ENDBRANCH  30  31
ENDBRANCH  29  30
ENDBRANCH  28  29
ENDBRANCH   8  28
TORSDOF 6
ENDMDL
MODEL 4
REMARK VINA RESULT:      -6.8      7.129      9.190
REMARK  Name = 
REMARK  7 active torsions:
REMARK  status: ('A' for Active; 'I' for Inactive)
REMARK    1  A    between atoms: C_1  and  O_2
REMARK    2  A    between atoms: O_2  and  C_3
REMARK    3  A    between atoms: N_10  and  O_11
REMARK    4  A    between atoms: O_11  and  C_12
REMARK    5  A    between atoms: C_12  and  C_13
REMARK    6  A    between atoms: C_13  and  N_14
REMARK    7  A    between atoms: C_21  and  N_22
REMARK                            x       y       z     vdW  Elec       q    Type
REMARK                         _______ _______ _______ _____ _____    ______ ____
ROOT
ATOM      1  C   UNL     1      -3.363  11.278  17.251  0.00  0.00    +0.000 A 
ATOM      2  C   UNL     1      -2.045  11.717  17.147  0.00  0.00    +0.000 A 
ATOM      3  C   UNL     1      -1.449  12.408  18.195  0.00  0.00    +0.000 A 
ATOM      4  C   UNL     1      -2.098  12.549  19.408  0.00  0.00    +0.000 A 
ATOM      5  C   UNL     1      -3.426  12.123  19.507  0.00  0.00    +0.000 A 
ATOM      6  C   UNL     1      -4.072  11.504  18.437  0.00  0.00    +0.000 A 
ATOM      7  C   UNL     1      -3.897  12.531  20.864  0.00  0.00    +0.000 C 
ATOM      8  N   UNL     1      -5.080  12.430  21.389  0.00  0.00    +0.000 NA
ATOM      9  C   UNL     1      -2.731  13.179  21.561  0.00  0.00    +0.000 A 
ATOM     10  C   UNL     1      -1.651  13.152  20.652  0.00  0.00    +0.000 A 
ATOM     11  C   UNL     1      -0.434  13.718  21.028  0.00  0.00    +0.000 A 
ATOM     12  N   UNL     1      -0.353  14.367  22.214  0.00  0.00    +0.000 NA
ATOM     13  C   UNL     1      -1.396  14.407  23.074  0.00  0.00    +0.000 A 
ATOM     14  C   UNL     1      -1.239  15.123  24.253  0.00  0.00    +0.000 A 
ATOM     15  C   UNL     1      -2.240  15.184  25.226  0.00  0.00    +0.000 A 
ATOM     16  C   UNL     1      -3.430  14.498  25.026  0.00  0.00    +0.000 A 
ATOM     17  C   UNL     1      -3.630  13.796  23.836  0.00  0.00    +0.000 A 
ATOM     18  C   UNL     1      -2.627  13.765  22.831  0.00  0.00    +0.000 A 
ENDROOT
BRANCH  11  19
ATOM     19  N   UNL     1       0.700  13.705  20.236  0.00  0.00    +0.000 N 
ATOM     20  C   UNL     1       0.893  14.773  19.244  0.00  0.00    +0.000 C 
ATOM     21  C   UNL     1       2.198  15.566  19.475  0.00  0.00    +0.000 C 
ATOM     22  N   UNL     1       3.388  14.712  19.648  0.00  0.00    +0.000 NA
ATOM     23  C   UNL     1       3.154  13.832  20.802  0.00  0.00    +0.000 C 
ATOM     24  C   UNL     1       1.907  12.957  20.618  0.00  0.00    +0.000 C 
ATOM     25  H   UNL     1       4.202  15.295  19.829  0.00  0.00    +0.000 HD
ENDBRANCH  11  19
BRANCH   1  27
ATOM     26  C   UNL     1      -3.311  10.441  15.036  0.00  0.00    +0.000 C 
ATOM     27  O   UNL     1      -4.047  10.657  16.239  0.00  0.00    +0.000 OA
ENDBRANCH   1  27
BRANCH   8  28
ATOM     28  O   UNL     1      -5.984  11.836  20.501  0.00  0.00    +0.000 OA
BRANCH  28  29
ATOM     29  C   UNL     1      -7.217  12.559  20.479  0.00  0.00    +0.000 C 
BRANCH  29  30
ATOM     30  C   UNL     1      -7.489  12.967  19.019  0.00  0.00    +0.000 C 
BRANCH  30  31
ATOM     31  N   UNL     1      -6.499  13.886  18.414  0.00  0.00    +0.000 NA
ATOM     32  C   UNL     1      -6.565  15.248  18.965  0.00  0.00    +0.000 C 
ATOM     33  C   UNL     1      -7.684  15.917  18.195  0.00  0.00    +0.000 C 
ATOM     34  C   UNL     1      -7.443  15.416  16.785  0.00  0.00    +0.000 C 
ATOM     35  C   UNL     1      -6.768  14.057  16.966  0.00  0.00    +0.000 C 
ENDBRANCH  30  31
ENDBRANCH  29  30
ENDBRANCH  28  29
ENDBRANCH   8  28
TORSDOF 6
ENDMDL
MODEL 5
REMARK VINA RESULT:      -6.8      2.236      5.394
REMARK  Name = 
REMARK  7 active torsions:
REMARK  status: ('A' for Active; 'I' for Inactive)
REMARK    1  A    between atoms: C_1  and  O_2
REMARK    2  A    between atoms: O_2  and  C_3
REMARK    3  A    between atoms: N_10  and  O_11
REMARK    4  A    between atoms: O_11  and  C_12
REMARK    5  A    between atoms: C_12  and  C_13
REMARK    6  A    between atoms: C_13  and  N_14
REMARK    7  A    between atoms: C_21  and  N_22
REMARK                            x       y       z     vdW  Elec       q    Type
REMARK                         _______ _______ _______ _____ _____    ______ ____
ROOT
ATOM      1  C   UNL     1      -0.215   9.858  21.114  0.00  0.00    +0.000 A 
ATOM      2  C   UNL     1      -0.297   8.572  21.645  0.00  0.00    +0.000 A 
ATOM      3  C   UNL     1       0.418   7.528  21.072  0.00  0.00    +0.000 A 
ATOM      4  C   UNL     1       1.327   7.766  20.058  0.00  0.00    +0.000 A 
ATOM      5  C   UNL     1       1.396   9.053  19.514  0.00  0.00    +0.000 A 
ATOM      6  C   UNL     1       0.623  10.098  20.018  0.00  0.00    +0.000 A 
ATOM      7  C   UNL     1       2.344   8.970  18.362  0.00  0.00    +0.000 C 
ATOM      8  N   UNL     1       2.668   9.883  17.497  0.00  0.00    +0.000 NA
ATOM      9  C   UNL     1       2.855   7.556  18.309  0.00  0.00    +0.000 A 
ATOM     10  C   UNL     1       2.231   6.861  19.368  0.00  0.00    +0.000 A 
ATOM     11  C   UNL     1       2.502   5.505  19.543  0.00  0.00    +0.000 A 
ATOM     12  N   UNL     1       3.277   4.870  18.631  0.00  0.00    +0.000 NA
ATOM     13  C   UNL     1       3.858   5.536  17.608  0.00  0.00    +0.000 A 
ATOM     14  C   UNL     1       4.609   4.802  16.699  0.00  0.00    +0.000 A 
ATOM     15  C   UNL     1       5.286   5.404  15.635  0.00  0.00    +0.000 A 
ATOM     16  C   UNL     1       5.228   6.783  15.480  0.00  0.00    +0.000 A 
ATOM     17  C   UNL     1       4.454   7.543  16.358  0.00  0.00    +0.000 A 
ATOM     18  C   UNL     1       3.735   6.927  17.417  0.00  0.00    +0.000 A 
ENDROOT
BRANCH  11  19
ATOM     19  N   UNL     1       1.984   4.741  20.573  0.00  0.00    +0.000 N 
ATOM     20  C   UNL     1       0.693   4.062  20.382  0.00  0.00    +0.000 C 
ATOM     21  C   UNL     1       0.801   2.530  20.548  0.00  0.00    +0.000 C 
ATOM     22  N   UNL     1       1.499   2.115  21.781  0.00  0.00    +0.000 NA
ATOM     23  C   UNL     1       2.852   2.689  21.752  0.00  0.00    +0.000 C 
ATOM     24  C   UNL     1       2.830   4.219  21.657  0.00  0.00    +0.000 C 
ATOM     25  H   UNL     1       1.563   1.100  21.810  0.00  0.00    +0.000 HD
ENDBRANCH  11  19
BRANCH   1  27
ATOM     26  C   UNL     1      -1.073  11.022  22.990  0.00  0.00    +0.000 C 
ATOM     27  O   UNL     1      -0.943  10.925  21.572  0.00  0.00    +0.000 OA
ENDBRANCH   1  27
BRANCH   8  28
ATOM     28  O   UNL     1       2.005  11.088  17.752  0.00  0.00    +0.000 OA
BRANCH  28  29
ATOM     29  C   UNL     1       2.942  12.159  17.888  0.00  0.00    +0.000 C 
BRANCH  29  30
ATOM     30  C   UNL     1       2.355  13.164  18.896  0.00  0.00    +0.000 C 
BRANCH  30  31
ATOM     31  N   UNL     1       3.242  14.288  19.271  0.00  0.00    +0.000 NA
ATOM     32  C   UNL     1       2.505  15.515  19.612  0.00  0.00    +0.000 C 
ATOM     33  C   UNL     1       2.213  16.168  18.277  0.00  0.00    +0.000 C 
ATOM     34  C   UNL     1       3.513  15.953  17.528  0.00  0.00    +0.000 C 
ATOM     35  C   UNL     1       4.101  14.675  18.127  0.00  0.00    +0.000 C 
ENDBRANCH  30  31
ENDBRANCH  29  30
ENDBRANCH  28  29
ENDBRANCH   8  28
TORSDOF 6
ENDMDL
MODEL 6
REMARK VINA RESULT:      -6.7      6.389      9.887
REMARK  Name = 
REMARK  7 active torsions:
REMARK  status: ('A' for Active; 'I' for Inactive)
REMARK    1  A    between atoms: C_1  and  O_2
REMARK    2  A    between atoms: O_2  and  C_3
REMARK    3  A    between atoms: N_10  and  O_11
REMARK    4  A    between atoms: O_11  and  C_12
REMARK    5  A    between atoms: C_12  and  C_13
REMARK    6  A    between atoms: C_13  and  N_14
REMARK    7  A    between atoms: C_21  and  N_22
REMARK                            x       y       z     vdW  Elec       q    Type
REMARK                         _______ _______ _______ _____ _____    ______ ____
ROOT
ATOM      1  C   UNL     1      -0.159  15.363  23.027  0.00  0.00    +0.000 A 
ATOM      2  C   UNL     1      -1.532  15.572  23.133  0.00  0.00    +0.000 A 
ATOM      3  C   UNL     1      -2.412  14.907  22.288  0.00  0.00    +0.000 A 
ATOM      4  C   UNL     1      -1.958  13.925  21.427  0.00  0.00    +0.000 A 
ATOM      5  C   UNL     1      -0.579  13.727  21.309  0.00  0.00    +0.000 A 
ATOM      6  C   UNL     1       0.328  14.446  22.086  0.00  0.00    +0.000 A 
ATOM      7  C   UNL     1      -0.391  12.723  20.219  0.00  0.00    +0.000 C 
ATOM      8  N   UNL     1       0.708  12.281  19.688  0.00  0.00    +0.000 NA
ATOM      9  C   UNL     1      -1.762  12.318  19.749  0.00  0.00    +0.000 A 
ATOM     10  C   UNL     1      -2.688  13.054  20.521  0.00  0.00    +0.000 A 
ATOM     11  C   UNL     1      -4.051  12.897  20.278  0.00  0.00    +0.000 A 
ATOM     12  N   UNL     1      -4.445  12.121  19.240  0.00  0.00    +0.000 NA
ATOM     13  C   UNL     1      -3.554  11.433  18.490  0.00  0.00    +0.000 A 
ATOM     14  C   UNL     1      -4.040  10.687  17.424  0.00  0.00    +0.000 A 
ATOM     15  C   UNL     1      -3.206   9.906  16.621  0.00  0.00    +0.000 A 
ATOM     16  C   UNL     1      -1.847   9.851  16.896  0.00  0.00    +0.000 A 
ATOM     17  C   UNL     1      -1.324  10.614  17.941  0.00  0.00    +0.000 A 
ATOM     18  C   UNL     1      -2.166  11.438  18.735  0.00  0.00    +0.000 A 
ENDROOT
BRANCH  11  19
ATOM     19  N   UNL     1      -5.043  13.530  21.004  0.00  0.00    +0.000 N 
ATOM     20  C   UNL     1      -5.813  14.613  20.374  0.00  0.00    +0.000 C 
ATOM     21  C   UNL     1      -7.328  14.316  20.335  0.00  0.00    +0.000 C 
ATOM     22  N   UNL     1      -7.882  13.890  21.634  0.00  0.00    +0.000 NA
ATOM     23  C   UNL     1      -7.169  12.676  22.058  0.00  0.00    +0.000 C 
ATOM     24  C   UNL     1      -5.658  12.909  22.187  0.00  0.00    +0.000 C 
ATOM     25  H   UNL     1      -8.872  13.679  21.529  0.00  0.00    +0.000 HD
ENDBRANCH  11  19
BRANCH   1  27
ATOM     26  C   UNL     1       0.446  17.375  24.122  0.00  0.00    +0.000 C 
ATOM     27  O   UNL     1       0.779  16.033  23.769  0.00  0.00    +0.000 OA
ENDBRANCH   1  27
BRANCH   8  28
ATOM     28  O   UNL     1       1.833  12.865  20.282  0.00  0.00    +0.000 OA
BRANCH  28  29
ATOM     29  C   UNL     1       2.663  13.477  19.293  0.00  0.00    +0.000 C 
BRANCH  29  30
ATOM     30  C   UNL     1       3.092  14.854  19.834  0.00  0.00    +0.000 C 
BRANCH  30  31
ATOM     31  N   UNL     1       2.730  16.016  18.992  0.00  0.00    +0.000 NA
ATOM     32  C   UNL     1       3.072  17.305  19.611  0.00  0.00    +0.000 C 
ATOM     33  C   UNL     1       1.916  17.598  20.545  0.00  0.00    +0.000 C 
ATOM     34  C   UNL     1       0.722  17.169  19.717  0.00  0.00    +0.000 C 
ATOM     35  C   UNL     1       1.261  16.075  18.795  0.00  0.00    +0.000 C 
ENDBRANCH  30  31
ENDBRANCH  29  30
ENDBRANCH  28  29
ENDBRANCH   8  28
TORSDOF 6
ENDMDL
MODEL 7
REMARK VINA RESULT:      -6.7      6.349     10.134
REMARK  Name = 
REMARK  7 active torsions:
REMARK  status: ('A' for Active; 'I' for Inactive)
REMARK    1  A    between atoms: C_1  and  O_2
REMARK    2  A    between atoms: O_2  and  C_3
REMARK    3  A    between atoms: N_10  and  O_11
REMARK    4  A    between atoms: O_11  and  C_12
REMARK    5  A    between atoms: C_12  and  C_13
REMARK    6  A    between atoms: C_13  and  N_14
REMARK    7  A    between atoms: C_21  and  N_22
REMARK                            x       y       z     vdW  Elec       q    Type
REMARK                         _______ _______ _______ _____ _____    ______ ____
ROOT
ATOM      1  C   UNL     1      -2.795  10.696  17.340  0.00  0.00    +0.000 A 
ATOM      2  C   UNL     1      -4.119  11.125  17.411  0.00  0.00    +0.000 A 
ATOM      3  C   UNL     1      -4.560  11.864  18.501  0.00  0.00    +0.000 A 
ATOM      4  C   UNL     1      -3.671  12.307  19.462  0.00  0.00    +0.000 A 
ATOM      5  C   UNL     1      -2.346  11.863  19.399  0.00  0.00    +0.000 A 
ATOM      6  C   UNL     1      -1.901  11.048  18.359  0.00  0.00    +0.000 A 
ATOM      7  C   UNL     1      -1.672  12.380  20.628  0.00  0.00    +0.000 C 
ATOM      8  N   UNL     1      -0.466  12.162  21.057  0.00  0.00    +0.000 NA
ATOM      9  C   UNL     1      -2.688  13.196  21.380  0.00  0.00    +0.000 A 
ATOM     10  C   UNL     1      -3.883  13.145  20.630  0.00  0.00    +0.000 A 
ATOM     11  C   UNL     1      -5.015  13.800  21.112  0.00  0.00    +0.000 A 
ATOM     12  N   UNL     1      -4.964  14.380  22.335  0.00  0.00    +0.000 NA
ATOM     13  C   UNL     1      -3.822  14.410  23.059  0.00  0.00    +0.000 A 
ATOM     14  C   UNL     1      -3.866  14.995  24.318  0.00  0.00    +0.000 A 
ATOM     15  C   UNL     1      -2.730  15.116  25.122  0.00  0.00    +0.000 A 
ATOM     16  C   UNL     1      -1.508  14.656  24.653  0.00  0.00    +0.000 A 
ATOM     17  C   UNL     1      -1.438  14.034  23.405  0.00  0.00    +0.000 A 
ATOM     18  C   UNL     1      -2.600  13.877  22.603  0.00  0.00    +0.000 A 
ENDROOT
BRANCH  11  19
ATOM     19  N   UNL     1      -6.220  13.855  20.437  0.00  0.00    +0.000 N 
ATOM     20  C   UNL     1      -6.377  14.807  19.326  0.00  0.00    +0.000 C 
ATOM     21  C   UNL     1      -6.729  14.109  17.994  0.00  0.00    +0.000 C 
ATOM     22  N   UNL     1      -7.849  13.155  18.103  0.00  0.00    +0.000 NA
ATOM     23  C   UNL     1      -7.482  12.133  19.095  0.00  0.00    +0.000 C 
ATOM     24  C   UNL     1      -7.183  12.743  20.470  0.00  0.00    +0.000 C 
ATOM     25  H   UNL     1      -8.005  12.709  17.202  0.00  0.00    +0.000 HD
ENDBRANCH  11  19
BRANCH   1  27
ATOM     26  C   UNL     1      -2.860  10.114  15.044  0.00  0.00    +0.000 C 
ATOM     27  O   UNL     1      -2.298   9.902  16.339  0.00  0.00    +0.000 OA
ENDBRANCH   1  27
BRANCH   8  28
ATOM     28  O   UNL     1       0.244  11.326  20.188  0.00  0.00    +0.000 OA
BRANCH  28  29
ATOM     29  C   UNL     1       1.392  11.999  19.668  0.00  0.00    +0.000 C 
BRANCH  29  30
ATOM     30  C   UNL     1       1.646  13.234  20.552  0.00  0.00    +0.000 C 
BRANCH  30  31
ATOM     31  N   UNL     1       1.784  14.521  19.834  0.00  0.00    +0.000 NA
ATOM     32  C   UNL     1       1.431  15.684  20.661  0.00  0.00    +0.000 C 
ATOM     33  C   UNL     1      -0.077  15.774  20.569  0.00  0.00    +0.000 C 
ATOM     34  C   UNL     1      -0.324  15.473  19.104  0.00  0.00    +0.000 C 
ATOM     35  C   UNL     1       0.844  14.579  18.689  0.00  0.00    +0.000 C 
ENDBRANCH  30  31
ENDBRANCH  29  30
ENDBRANCH  28  29
ENDBRANCH   8  28
TORSDOF 6
ENDMDL
MODEL 8
REMARK VINA RESULT:      -6.6      7.419      9.187
REMARK  Name = 
REMARK  7 active torsions:
REMARK  status: ('A' for Active; 'I' for Inactive)
REMARK    1  A    between atoms: C_1  and  O_2
REMARK    2  A    between atoms: O_2  and  C_3
REMARK    3  A    between atoms: N_10  and  O_11
REMARK    4  A    between atoms: O_11  and  C_12
REMARK    5  A    between atoms: C_12  and  C_13
REMARK    6  A    between atoms: C_13  and  N_14
REMARK    7  A    between atoms: C_21  and  N_22
REMARK                            x       y       z     vdW  Elec       q    Type
REMARK                         _______ _______ _______ _____ _____    ______ ____
ROOT
ATOM      1  C   UNL     1      -2.496  11.624  17.829  0.00  0.00    +0.000 A 
ATOM      2  C   UNL     1      -1.235  12.208  17.733  0.00  0.00    +0.000 A 
ATOM      3  C   UNL     1      -0.726  12.959  18.784  0.00  0.00    +0.000 A 
ATOM      4  C   UNL     1      -1.392  13.025  19.994  0.00  0.00    +0.000 A 
ATOM      5  C   UNL     1      -2.665  12.453  20.085  0.00  0.00    +0.000 A 
ATOM      6  C   UNL     1      -3.233  11.768  19.012  0.00  0.00    +0.000 A 
ATOM      7  C   UNL     1      -3.186  12.804  21.440  0.00  0.00    +0.000 C 
ATOM      8  N   UNL     1      -4.354  12.571  21.958  0.00  0.00    +0.000 NA
ATOM      9  C   UNL     1      -2.104  13.577  22.145  0.00  0.00    +0.000 A 
ATOM     10  C   UNL     1      -1.023  13.672  21.241  0.00  0.00    +0.000 A 
ATOM     11  C   UNL     1       0.121  14.370  21.624  0.00  0.00    +0.000 A 
ATOM     12  N   UNL     1       0.123  15.022  22.811  0.00  0.00    +0.000 NA
ATOM     13  C   UNL     1      -0.922  14.944  23.665  0.00  0.00    +0.000 A 
ATOM     14  C   UNL     1      -0.853  15.671  24.846  0.00  0.00    +0.000 A 
ATOM     15  C   UNL     1      -1.860  15.619  25.813  0.00  0.00    +0.000 A 
ATOM     16  C   UNL     1      -2.964  14.804  25.607  0.00  0.00    +0.000 A 
ATOM     17  C   UNL     1      -3.079  14.087  24.415  0.00  0.00    +0.000 A 
ATOM     18  C   UNL     1      -2.072  14.169  23.416  0.00  0.00    +0.000 A 
ENDROOT
BRANCH  11  19
ATOM     19  N   UNL     1       1.254  14.485  20.839  0.00  0.00    +0.000 N 
ATOM     20  C   UNL     1       1.591  15.792  20.255  0.00  0.00    +0.000 C 
ATOM     21  C   UNL     1       2.982  16.296  20.697  0.00  0.00    +0.000 C 
ATOM     22  N   UNL     1       4.054  15.294  20.538  0.00  0.00    +0.000 NA
ATOM     23  C   UNL     1       3.697  14.114  21.338  0.00  0.00    +0.000 C 
ATOM     24  C   UNL     1       2.353  13.510  20.911  0.00  0.00    +0.000 C 
ATOM     25  H   UNL     1       4.933  15.679  20.878  0.00  0.00    +0.000 HD
ENDBRANCH  11  19
BRANCH   1  27
ATOM     26  C   UNL     1      -4.508  11.136  16.677  0.00  0.00    +0.000 C 
ATOM     27  O   UNL     1      -3.102  10.932  16.813  0.00  0.00    +0.000 OA
ENDBRANCH   1  27
BRANCH   8  28
ATOM     28  O   UNL     1      -5.181  11.881  21.065  0.00  0.00    +0.000 OA
BRANCH  28  29
ATOM     29  C   UNL     1      -6.460  12.511  20.975  0.00  0.00    +0.000 C 
BRANCH  29  30
ATOM     30  C   UNL     1      -6.845  12.986  22.388  0.00  0.00    +0.000 C 
BRANCH  30  31
ATOM     31  N   UNL     1      -7.491  14.316  22.464  0.00  0.00    +0.000 NA
ATOM     32  C   UNL     1      -6.830  15.327  21.626  0.00  0.00    +0.000 C 
ATOM     33  C   UNL     1      -5.671  15.821  22.466  0.00  0.00    +0.000 C 
ATOM     34  C   UNL     1      -6.296  15.913  23.844  0.00  0.00    +0.000 C 
ATOM     35  C   UNL     1      -7.401  14.857  23.842  0.00  0.00    +0.000 C 
ENDBRANCH  30  31
ENDBRANCH  29  30
ENDBRANCH  28  29
ENDBRANCH   8  28
TORSDOF 6
ENDMDL
MODEL 9
REMARK VINA RESULT:      -6.6      4.796      9.759
REMARK  Name = 
REMARK  7 active torsions:
REMARK  status: ('A' for Active; 'I' for Inactive)
REMARK    1  A    between atoms: C_1  and  O_2
REMARK    2  A    between atoms: O_2  and  C_3
REMARK    3  A    between atoms: N_10  and  O_11
REMARK    4  A    between atoms: O_11  and  C_12
REMARK    5  A    between atoms: C_12  and  C_13
REMARK    6  A    between atoms: C_13  and  N_14
REMARK    7  A    between atoms: C_21  and  N_22
REMARK                            x       y       z     vdW  Elec       q    Type
REMARK                         _______ _______ _______ _____ _____    ______ ____
ROOT
ATOM      1  C   UNL     1       0.485  10.173  18.261  0.00  0.00    +0.000 A 
ATOM      2  C   UNL     1      -0.836   9.924  17.896  0.00  0.00    +0.000 A 
ATOM      3  C   UNL     1      -1.878  10.588  18.531  0.00  0.00    +0.000 A 
ATOM      4  C   UNL     1      -1.623  11.605  19.432  0.00  0.00    +0.000 A 
ATOM      5  C   UNL     1      -0.298  11.843  19.811  0.00  0.00    +0.000 A 
ATOM      6  C   UNL     1       0.759  11.127  19.248  0.00  0.00    +0.000 A 
ATOM      7  C   UNL     1      -0.348  12.880  20.884  0.00  0.00    +0.000 C 
ATOM      8  N   UNL     1       0.617  13.366  21.604  0.00  0.00    +0.000 NA
ATOM      9  C   UNL     1      -1.793  13.261  21.065  0.00  0.00    +0.000 A 
ATOM     10  C   UNL     1      -2.533  12.480  20.151  0.00  0.00    +0.000 A 
ATOM     11  C   UNL     1      -3.921  12.607  20.119  0.00  0.00    +0.000 A 
ATOM     12  N   UNL     1      -4.526  13.400  21.035  0.00  0.00    +0.000 NA
ATOM     13  C   UNL     1      -3.814  14.132  21.921  0.00  0.00    +0.000 A 
ATOM     14  C   UNL     1      -4.515  14.892  22.848  0.00  0.00    +0.000 A 
ATOM     15  C   UNL     1      -3.871  15.717  23.774  0.00  0.00    +0.000 A 
ATOM     16  C   UNL     1      -2.485  15.802  23.766  0.00  0.00    +0.000 A 
ATOM     17  C   UNL     1      -1.752  15.024  22.868  0.00  0.00    +0.000 A 
ATOM     18  C   UNL     1      -2.405  14.157  21.952  0.00  0.00    +0.000 A 
ENDROOT
BRANCH  11  19
ATOM     19  N   UNL     1      -4.738  11.928  19.234  0.00  0.00    +0.000 N 
ATOM     20  C   UNL     1      -5.988  11.329  19.726  0.00  0.00    +0.000 C 
ATOM     21  C   UNL     1      -7.234  11.882  19.001  0.00  0.00    +0.000 C 
ATOM     22  N   UNL     1      -7.121  11.861  17.529  0.00  0.00    +0.000 NA
ATOM     23  C   UNL     1      -5.952  12.668  17.151  0.00  0.00    +0.000 C 
ATOM     24  C   UNL     1      -4.656  12.140  17.780  0.00  0.00    +0.000 C 
ATOM     25  H   UNL     1      -7.959  12.267  17.118  0.00  0.00    +0.000 HD
ENDBRANCH  11  19
BRANCH   1  27
ATOM     26  C   UNL     1       2.070   8.432  18.527  0.00  0.00    +0.000 C 
ATOM     27  O   UNL     1       1.564   9.508  17.738  0.00  0.00    +0.000 OA
ENDBRANCH   1  27
BRANCH   8  28
ATOM     28  O   UNL     1       1.848  12.797  21.261  0.00  0.00    +0.000 OA
BRANCH  28  29
ATOM     29  C   UNL     1       2.846  13.809  21.109  0.00  0.00    +0.000 C 
BRANCH  29  30
ATOM     30  C   UNL     1       3.170  13.920  19.608  0.00  0.00    +0.000 C 
BRANCH  30  31
ATOM     31  N   UNL     1       3.648  15.245  19.152  0.00  0.00    +0.000 NA
ATOM     32  C   UNL     1       4.108  15.242  17.755  0.00  0.00    +0.000 C 
ATOM     33  C   UNL     1       5.532  14.732  17.824  0.00  0.00    +0.000 C 
ATOM     34  C   UNL     1       6.064  15.440  19.053  0.00  0.00    +0.000 C 
ATOM     35  C   UNL     1       4.835  15.666  19.934  0.00  0.00    +0.000 C 
ENDBRANCH  30  31
ENDBRANCH  29  30
ENDBRANCH  28  29
ENDBRANCH   8  28
TORSDOF 6
ENDMDL
