MODEL 1
REMARK VINA RESULT:      -7.0      0.000      0.000
REMARK  Name = 
REMARK  10 active torsions:
REMARK  status: ('A' for Active; 'I' for Inactive)
REMARK    1  A    between atoms: C_1  and  C_2
REMARK    2  A    between atoms: C_2  and  N_3
REMARK    3  A    between atoms: C_4  and  C_5
REMARK    4  A    between atoms: C_5  and  C_6
REMARK    5  A    between atoms: C_14  and  S_15
REMARK    6  A    between atoms: S_15  and  C_16
REMARK    7  A    between atoms: C_16  and  C_17
REMARK    8  A    between atoms: N_19  and  C_20
REMARK    9  A    between atoms: C_23  and  S_24
REMARK   10  A    between atoms: S_24  and  N_25
REMARK                            x       y       z     vdW  Elec       q    Type
REMARK                         _______ _______ _______ _____ _____    ______ ____
ROOT
ATOM      1  C   UNL     1       2.225   3.656  21.444  0.00  0.00    +0.000 C 
ENDROOT
BRANCH   1   2
ATOM      2  C   UNL     1       1.516   4.866  20.847  0.00  0.00    +0.000 C 
ATOM      3  O   UNL     1       0.364   4.766  20.429  0.00  0.00    +0.000 OA
ATOM      4  N   UNL     1       2.303   6.013  20.787  0.00  0.00    +0.000 N 
ATOM      5  H   UNL     1       3.290   5.902  20.984  0.00  0.00    +0.000 HD
BRANCH   4   6
ATOM      6  C   UNL     1       1.887   7.288  20.334  0.00  0.00    +0.000 A 
ATOM      7  C   UNL     1       2.141   7.759  19.042  0.00  0.00    +0.000 A 
ATOM      8  C   UNL     1       1.705   9.022  18.637  0.00  0.00    +0.000 A 
ATOM      9  C   UNL     1       0.994   9.823  19.524  0.00  0.00    +0.000 A 
ATOM     10  C   UNL     1       0.733   9.380  20.824  0.00  0.00    +0.000 A 
ATOM     11  C   UNL     1       1.172   8.108  21.220  0.00  0.00    +0.000 A 
BRANCH   9  12
ATOM     12  S   UNL     1       0.453  11.421  18.999  0.00  0.00    +0.000 S 
ATOM     13  O   UNL     1      -0.302  12.032  20.064  0.00  0.00    +0.000 OA
ATOM     14  O   UNL     1       1.533  12.096  18.316  0.00  0.00    +0.000 OA
BRANCH  12  15
ATOM     15  N   UNL     1      -0.668  11.027  17.813  0.00  0.00    +0.000 NA
ATOM     16  H   UNL     1      -0.816  11.827  17.196  0.00  0.00    +0.000 HD
ATOM     17  H   UNL     1      -0.382  10.177  17.331  0.00  0.00    +0.000 HD
ENDBRANCH  12  15
ENDBRANCH   9  12
ENDBRANCH   4   6
ENDBRANCH   1   2
BRANCH   1  18
ATOM     18  S   UNL     1       1.937   2.255  20.341  0.00  0.00    +0.000 S 
BRANCH  18  23
ATOM     19  N   UNL     1       3.652   3.242  18.418  0.00  0.00    +0.000 N 
ATOM     20  C   UNL     1       3.551   3.554  17.065  0.00  0.00    +0.000 A 
ATOM     21  N   UNL     1       2.295   3.402  16.688  0.00  0.00    +0.000 NA
ATOM     22  N   UNL     1       1.570   2.965  17.765  0.00  0.00    +0.000 NA
ATOM     23  C   UNL     1       2.385   2.856  18.787  0.00  0.00    +0.000 A 
BRANCH  19  25
ATOM     24  C   UNL     1       5.380   4.621  19.756  0.00  0.00    +0.000 C 
ATOM     25  C   UNL     1       4.898   3.305  19.159  0.00  0.00    +0.000 C 
ENDBRANCH  19  25
BRANCH  20  26
ATOM     26  C   UNL     1       4.691   3.873  16.142  0.00  0.00    +0.000 C 
BRANCH  26  27
ATOM     27  C   UNL     1       5.457   5.147  16.442  0.00  0.00    +0.000 A 
ATOM     28  C   UNL     1       4.769   6.347  16.688  0.00  0.00    +0.000 A 
ATOM     29  C   UNL     1       5.458   7.499  17.078  0.00  0.00    +0.000 A 
ATOM     30  C   UNL     1       6.842   7.467  17.236  0.00  0.00    +0.000 A 
ATOM     31  C   UNL     1       7.537   6.283  16.998  0.00  0.00    +0.000 A 
ATOM     32  C   UNL     1       6.850   5.131  16.605  0.00  0.00    +0.000 A 
ENDBRANCH  26  27
ENDBRANCH  20  26
ENDBRANCH  18  23
ENDBRANCH   1  18
TORSDOF 9
ENDMDL
MODEL 2
REMARK VINA RESULT:      -7.0      3.506      5.029
REMARK  Name = 
REMARK  10 active torsions:
REMARK  status: ('A' for Active; 'I' for Inactive)
REMARK    1  A    between atoms: C_1  and  C_2
REMARK    2  A    between atoms: C_2  and  N_3
REMARK    3  A    between atoms: C_4  and  C_5
REMARK    4  A    between atoms: C_5  and  C_6
REMARK    5  A    between atoms: C_14  and  S_15
REMARK    6  A    between atoms: S_15  and  C_16
REMARK    7  A    between atoms: C_16  and  C_17
REMARK    8  A    between atoms: N_19  and  C_20
REMARK    9  A    between atoms: C_23  and  S_24
REMARK   10  A    between atoms: S_24  and  N_25
REMARK                            x       y       z     vdW  Elec       q    Type
REMARK                         _______ _______ _______ _____ _____    ______ ____
ROOT
ATOM      1  C   UNL     1       0.097   9.494  20.283  0.00  0.00    +0.000 C 
ENDROOT
BRANCH   1   2
ATOM      2  C   UNL     1       0.753  10.866  20.388  0.00  0.00    +0.000 C 
ATOM      3  O   UNL     1       1.210  11.255  21.461  0.00  0.00    +0.000 OA
ATOM      4  N   UNL     1       0.724  11.602  19.206  0.00  0.00    +0.000 N 
ATOM      5  H   UNL     1       0.146  11.242  18.457  0.00  0.00    +0.000 HD
BRANCH   4   6
ATOM      6  C   UNL     1       1.305  12.876  19.001  0.00  0.00    +0.000 A 
ATOM      7  C   UNL     1       2.555  13.057  18.402  0.00  0.00    +0.000 A 
ATOM      8  C   UNL     1       3.085  14.336  18.213  0.00  0.00    +0.000 A 
ATOM      9  C   UNL     1       2.354  15.450  18.613  0.00  0.00    +0.000 A 
ATOM     10  C   UNL     1       1.105  15.297  19.221  0.00  0.00    +0.000 A 
ATOM     11  C   UNL     1       0.580  14.009  19.403  0.00  0.00    +0.000 A 
BRANCH   9  12
ATOM     12  S   UNL     1       3.040  17.061  18.373  0.00  0.00    +0.000 S 
ATOM     13  O   UNL     1       2.233  18.022  19.083  0.00  0.00    +0.000 OA
ATOM     14  O   UNL     1       4.477  16.998  18.499  0.00  0.00    +0.000 OA
BRANCH  12  15
ATOM     15  N   UNL     1       2.731  17.321  16.743  0.00  0.00    +0.000 NA
ATOM     16  H   UNL     1       2.396  18.276  16.601  0.00  0.00    +0.000 HD
ATOM     17  H   UNL     1       3.550  17.082  16.189  0.00  0.00    +0.000 HD
ENDBRANCH  12  15
ENDBRANCH   9  12
ENDBRANCH   4   6
ENDBRANCH   1   2
BRANCH   1  18
ATOM     18  S   UNL     1       1.181   8.306  21.106  0.00  0.00    +0.000 S 
BRANCH  18  23
ATOM     19  N   UNL     1       2.388   6.227  19.750  0.00  0.00    +0.000 N 
ATOM     20  C   UNL     1       2.954   6.061  18.490  0.00  0.00    +0.000 A 
ATOM     21  N   UNL     1       2.964   7.229  17.873  0.00  0.00    +0.000 NA
ATOM     22  N   UNL     1       2.385   8.158  18.697  0.00  0.00    +0.000 NA
ATOM     23  C   UNL     1       2.030   7.553  19.806  0.00  0.00    +0.000 A 
BRANCH  19  25
ATOM     24  C   UNL     1       1.091   4.135  20.539  0.00  0.00    +0.000 C 
ATOM     25  C   UNL     1       2.223   5.141  20.699  0.00  0.00    +0.000 C 
ENDBRANCH  19  25
BRANCH  20  26
ATOM     26  C   UNL     1       3.359   4.758  17.865  0.00  0.00    +0.000 C 
BRANCH  26  27
ATOM     27  C   UNL     1       4.749   4.710  17.262  0.00  0.00    +0.000 A 
ATOM     28  C   UNL     1       5.883   4.851  18.081  0.00  0.00    +0.000 A 
ATOM     29  C   UNL     1       7.169   4.694  17.555  0.00  0.00    +0.000 A 
ATOM     30  C   UNL     1       7.341   4.385  16.208  0.00  0.00    +0.000 A 
ATOM     31  C   UNL     1       6.227   4.239  15.384  0.00  0.00    +0.000 A 
ATOM     32  C   UNL     1       4.940   4.399  15.908  0.00  0.00    +0.000 A 
ENDBRANCH  26  27
ENDBRANCH  20  26
ENDBRANCH  18  23
ENDBRANCH   1  18
TORSDOF 9
ENDMDL
MODEL 3
REMARK VINA RESULT:      -6.9      3.449      5.136
REMARK  Name = 
REMARK  10 active torsions:
REMARK  status: ('A' for Active; 'I' for Inactive)
REMARK    1  A    between atoms: C_1  and  C_2
REMARK    2  A    between atoms: C_2  and  N_3
REMARK    3  A    between atoms: C_4  and  C_5
REMARK    4  A    between atoms: C_5  and  C_6
REMARK    5  A    between atoms: C_14  and  S_15
REMARK    6  A    between atoms: S_15  and  C_16
REMARK    7  A    between atoms: C_16  and  C_17
REMARK    8  A    between atoms: N_19  and  C_20
REMARK    9  A    between atoms: C_23  and  S_24
REMARK   10  A    between atoms: S_24  and  N_25
REMARK                            x       y       z     vdW  Elec       q    Type
REMARK                         _______ _______ _______ _____ _____    ______ ____
ROOT
ATOM      1  C   UNL     1      -0.142   9.531  20.812  0.00  0.00    +0.000 C 
ENDROOT
BRANCH   1   2
ATOM      2  C   UNL     1       0.382  10.962  20.775  0.00  0.00    +0.000 C 
ATOM      3  O   UNL     1       0.636  11.557  21.821  0.00  0.00    +0.000 OA
ATOM      4  N   UNL     1       0.482  11.499  19.494  0.00  0.00    +0.000 N 
ATOM      5  H   UNL     1       0.057  10.970  18.742  0.00  0.00    +0.000 HD
BRANCH   4   6
ATOM      6  C   UNL     1       0.988  12.778  19.161  0.00  0.00    +0.000 A 
ATOM      7  C   UNL     1       0.246  13.954  19.311  0.00  0.00    +0.000 A 
ATOM      8  C   UNL     1       0.790  15.196  18.976  0.00  0.00    +0.000 A 
ATOM      9  C   UNL     1       2.094  15.271  18.498  0.00  0.00    +0.000 A 
ATOM     10  C   UNL     1       2.854  14.110  18.330  0.00  0.00    +0.000 A 
ATOM     11  C   UNL     1       2.301  12.867  18.674  0.00  0.00    +0.000 A 
BRANCH   9  12
ATOM     12  S   UNL     1       2.767  16.848  18.072  0.00  0.00    +0.000 S 
ATOM     13  O   UNL     1       2.881  16.935  16.638  0.00  0.00    +0.000 OA
ATOM     14  O   UNL     1       2.139  17.873  18.874  0.00  0.00    +0.000 OA
BRANCH  12  15
ATOM     15  N   UNL     1       4.339  16.712  18.647  0.00  0.00    +0.000 NA
ATOM     16  H   UNL     1       4.805  15.921  18.200  0.00  0.00    +0.000 HD
ATOM     17  H   UNL     1       4.828  17.598  18.540  0.00  0.00    +0.000 HD
ENDBRANCH  12  15
ENDBRANCH   9  12
ENDBRANCH   4   6
ENDBRANCH   1   2
BRANCH   1  18
ATOM     18  S   UNL     1       1.194   8.475  21.412  0.00  0.00    +0.000 S 
BRANCH  18  23
ATOM     19  N   UNL     1       2.277   6.538  19.772  0.00  0.00    +0.000 N 
ATOM     20  C   UNL     1       2.696   6.483  18.446  0.00  0.00    +0.000 A 
ATOM     21  N   UNL     1       2.611   7.693  17.924  0.00  0.00    +0.000 NA
ATOM     22  N   UNL     1       2.113   8.541  18.877  0.00  0.00    +0.000 NA
ATOM     23  C   UNL     1       1.901   7.846  19.969  0.00  0.00    +0.000 A 
BRANCH  19  25
ATOM     24  C   UNL     1       1.137   4.344  20.524  0.00  0.00    +0.000 C 
ATOM     25  C   UNL     1       2.246   5.380  20.647  0.00  0.00    +0.000 C 
ENDBRANCH  19  25
BRANCH  20  26
ATOM     26  C   UNL     1       3.053   5.241  17.680  0.00  0.00    +0.000 C 
BRANCH  26  27
ATOM     27  C   UNL     1       4.533   4.967  17.504  0.00  0.00    +0.000 A 
ATOM     28  C   UNL     1       4.999   4.294  16.362  0.00  0.00    +0.000 A 
ATOM     29  C   UNL     1       6.369   4.137  16.133  0.00  0.00    +0.000 A 
ATOM     30  C   UNL     1       7.293   4.658  17.036  0.00  0.00    +0.000 A 
ATOM     31  C   UNL     1       6.846   5.331  18.172  0.00  0.00    +0.000 A 
ATOM     32  C   UNL     1       5.476   5.486  18.404  0.00  0.00    +0.000 A 
ENDBRANCH  26  27
ENDBRANCH  20  26
ENDBRANCH  18  23
ENDBRANCH   1  18
TORSDOF 9
ENDMDL
MODEL 4
REMARK VINA RESULT:      -6.9      3.713      4.878
REMARK  Name = 
REMARK  10 active torsions:
REMARK  status: ('A' for Active; 'I' for Inactive)
REMARK    1  A    between atoms: C_1  and  C_2
REMARK    2  A    between atoms: C_2  and  N_3
REMARK    3  A    between atoms: C_4  and  C_5
REMARK    4  A    between atoms: C_5  and  C_6
REMARK    5  A    between atoms: C_14  and  S_15
REMARK    6  A    between atoms: S_15  and  C_16
REMARK    7  A    between atoms: C_16  and  C_17
REMARK    8  A    between atoms: N_19  and  C_20
REMARK    9  A    between atoms: C_23  and  S_24
REMARK   10  A    between atoms: S_24  and  N_25
REMARK                            x       y       z     vdW  Elec       q    Type
REMARK                         _______ _______ _______ _____ _____    ______ ____
ROOT
ATOM      1  C   UNL     1       2.366   8.846  17.914  0.00  0.00    +0.000 C 
ENDROOT
BRANCH   1   2
ATOM      2  C   UNL     1       1.053   9.374  18.483  0.00  0.00    +0.000 C 
ATOM      3  O   UNL     1       0.873   9.409  19.699  0.00  0.00    +0.000 OA
ATOM      4  N   UNL     1       0.121   9.739  17.515  0.00  0.00    +0.000 N 
ATOM      5  H   UNL     1       0.326   9.475  16.560  0.00  0.00    +0.000 HD
BRANCH   4   6
ATOM      6  C   UNL     1      -1.153  10.309  17.755  0.00  0.00    +0.000 A 
ATOM      7  C   UNL     1      -1.359  11.367  18.646  0.00  0.00    +0.000 A 
ATOM      8  C   UNL     1      -2.633  11.903  18.845  0.00  0.00    +0.000 A 
ATOM      9  C   UNL     1      -3.715  11.390  18.137  0.00  0.00    +0.000 A 
ATOM     10  C   UNL     1      -3.538  10.327  17.246  0.00  0.00    +0.000 A 
ATOM     11  C   UNL     1      -2.253   9.798  17.050  0.00  0.00    +0.000 A 
BRANCH   9  12
ATOM     12  S   UNL     1      -5.322  12.074  18.404  0.00  0.00    +0.000 S 
ATOM     13  O   UNL     1      -5.320  12.799  19.650  0.00  0.00    +0.000 OA
ATOM     14  O   UNL     1      -5.818  12.637  17.170  0.00  0.00    +0.000 OA
BRANCH  12  15
ATOM     15  N   UNL     1      -6.236  10.693  18.681  0.00  0.00    +0.000 NA
ATOM     16  H   UNL     1      -5.961   9.958  18.028  0.00  0.00    +0.000 HD
ATOM     17  H   UNL     1      -6.173  10.423  19.661  0.00  0.00    +0.000 HD
ENDBRANCH  12  15
ENDBRANCH   9  12
ENDBRANCH   4   6
ENDBRANCH   1   2
BRANCH   1  18
ATOM     18  S   UNL     1       2.505   7.108  18.388  0.00  0.00    +0.000 S 
BRANCH  18  23
ATOM     19  N   UNL     1       4.278   5.258  17.362  0.00  0.00    +0.000 N 
ATOM     20  C   UNL     1       5.428   5.314  16.580  0.00  0.00    +0.000 A 
ATOM     21  N   UNL     1       5.745   6.581  16.384  0.00  0.00    +0.000 NA
ATOM     22  N   UNL     1       4.804   7.363  17.000  0.00  0.00    +0.000 NA
ATOM     23  C   UNL     1       3.925   6.571  17.566  0.00  0.00    +0.000 A 
BRANCH  19  25
ATOM     24  C   UNL     1       4.128   3.281  19.019  0.00  0.00    +0.000 C 
ATOM     25  C   UNL     1       3.652   4.014  17.772  0.00  0.00    +0.000 C 
ENDBRANCH  19  25
BRANCH  20  26
ATOM     26  C   UNL     1       6.122   4.147  15.941  0.00  0.00    +0.000 C 
BRANCH  26  27
ATOM     27  C   UNL     1       6.459   4.293  14.471  0.00  0.00    +0.000 A 
ATOM     28  C   UNL     1       7.495   5.151  14.062  0.00  0.00    +0.000 A 
ATOM     29  C   UNL     1       7.890   5.207  12.722  0.00  0.00    +0.000 A 
ATOM     30  C   UNL     1       7.263   4.403  11.773  0.00  0.00    +0.000 A 
ATOM     31  C   UNL     1       6.236   3.546  12.163  0.00  0.00    +0.000 A 
ATOM     32  C   UNL     1       5.837   3.490  13.503  0.00  0.00    +0.000 A 
ENDBRANCH  26  27
ENDBRANCH  20  26
ENDBRANCH  18  23
ENDBRANCH   1  18
TORSDOF 9
ENDMDL
MODEL 5
REMARK VINA RESULT:      -6.9      2.048      2.824
REMARK  Name = 
REMARK  10 active torsions:
REMARK  status: ('A' for Active; 'I' for Inactive)
REMARK    1  A    between atoms: C_1  and  C_2
REMARK    2  A    between atoms: C_2  and  N_3
REMARK    3  A    between atoms: C_4  and  C_5
REMARK    4  A    between atoms: C_5  and  C_6
REMARK    5  A    between atoms: C_14  and  S_15
REMARK    6  A    between atoms: S_15  and  C_16
REMARK    7  A    between atoms: C_16  and  C_17
REMARK    8  A    between atoms: N_19  and  C_20
REMARK    9  A    between atoms: C_23  and  S_24
REMARK   10  A    between atoms: S_24  and  N_25
REMARK                            x       y       z     vdW  Elec       q    Type
REMARK                         _______ _______ _______ _____ _____    ______ ____
ROOT
ATOM      1  C   UNL     1       2.606   2.788  20.441  0.00  0.00    +0.000 C 
ENDROOT
BRANCH   1   2
ATOM      2  C   UNL     1       1.987   4.065  19.885  0.00  0.00    +0.000 C 
ATOM      3  O   UNL     1       1.075   4.006  19.062  0.00  0.00    +0.000 OA
ATOM      4  N   UNL     1       2.582   5.235  20.352  0.00  0.00    +0.000 N 
ATOM      5  H   UNL     1       3.445   5.133  20.871  0.00  0.00    +0.000 HD
BRANCH   4   6
ATOM      6  C   UNL     1       2.178   6.557  20.048  0.00  0.00    +0.000 A 
ATOM      7  C   UNL     1       1.467   7.362  20.943  0.00  0.00    +0.000 A 
ATOM      8  C   UNL     1       1.096   8.664  20.602  0.00  0.00    +0.000 A 
ATOM      9  C   UNL     1       1.448   9.178  19.359  0.00  0.00    +0.000 A 
ATOM     10  C   UNL     1       2.151   8.391  18.441  0.00  0.00    +0.000 A 
ATOM     11  C   UNL     1       2.524   7.086  18.795  0.00  0.00    +0.000 A 
BRANCH   9  12
ATOM     12  S   UNL     1       0.966  10.825  18.939  0.00  0.00    +0.000 S 
ATOM     13  O   UNL     1      -0.298  10.780  18.247  0.00  0.00    +0.000 OA
ATOM     14  O   UNL     1       1.217  11.702  20.058  0.00  0.00    +0.000 OA
BRANCH  12  15
ATOM     15  N   UNL     1       2.108  11.225  17.774  0.00  0.00    +0.000 NA
ATOM     16  H   UNL     1       1.685  11.185  16.845  0.00  0.00    +0.000 HD
ATOM     17  H   UNL     1       2.536  12.121  17.998  0.00  0.00    +0.000 HD
ENDBRANCH  12  15
ENDBRANCH   9  12
ENDBRANCH   4   6
ENDBRANCH   1   2
BRANCH   1  18
ATOM     18  S   UNL     1       4.390   2.884  20.175  0.00  0.00    +0.000 S 
BRANCH  18  23
ATOM     19  N   UNL     1       5.257   4.591  18.188  0.00  0.00    +0.000 N 
ATOM     20  C   UNL     1       5.162   4.627  16.799  0.00  0.00    +0.000 A 
ATOM     21  N   UNL     1       4.394   3.630  16.402  0.00  0.00    +0.000 NA
ATOM     22  N   UNL     1       4.004   2.918  17.505  0.00  0.00    +0.000 NA
ATOM     23  C   UNL     1       4.533   3.485  18.563  0.00  0.00    +0.000 A 
BRANCH  19  25
ATOM     24  C   UNL     1       7.548   5.491  18.976  0.00  0.00    +0.000 C 
ATOM     25  C   UNL     1       6.027   5.551  18.959  0.00  0.00    +0.000 C 
ENDBRANCH  19  25
BRANCH  20  26
ATOM     26  C   UNL     1       5.914   5.549  15.884  0.00  0.00    +0.000 C 
BRANCH  26  27
ATOM     27  C   UNL     1       6.229   5.008  14.503  0.00  0.00    +0.000 A 
ATOM     28  C   UNL     1       7.397   5.411  13.833  0.00  0.00    +0.000 A 
ATOM     29  C   UNL     1       7.756   4.833  12.612  0.00  0.00    +0.000 A 
ATOM     30  C   UNL     1       6.960   3.839  12.047  0.00  0.00    +0.000 A 
ATOM     31  C   UNL     1       5.801   3.427  12.701  0.00  0.00    +0.000 A 
ATOM     32  C   UNL     1       5.438   4.007  13.921  0.00  0.00    +0.000 A 
ENDBRANCH  26  27
ENDBRANCH  20  26
ENDBRANCH  18  23
ENDBRANCH   1  18
TORSDOF 9
ENDMDL
MODEL 6
REMARK VINA RESULT:      -6.8      6.191      8.198
REMARK  Name = 
REMARK  10 active torsions:
REMARK  status: ('A' for Active; 'I' for Inactive)
REMARK    1  A    between atoms: C_1  and  C_2
REMARK    2  A    between atoms: C_2  and  N_3
REMARK    3  A    between atoms: C_4  and  C_5
REMARK    4  A    between atoms: C_5  and  C_6
REMARK    5  A    between atoms: C_14  and  S_15
REMARK    6  A    between atoms: S_15  and  C_16
REMARK    7  A    between atoms: C_16  and  C_17
REMARK    8  A    between atoms: N_19  and  C_20
REMARK    9  A    between atoms: C_23  and  S_24
REMARK   10  A    between atoms: S_24  and  N_25
REMARK                            x       y       z     vdW  Elec       q    Type
REMARK                         _______ _______ _______ _____ _____    ______ ____
ROOT
ATOM      1  C   UNL     1       8.761   8.481  18.752  0.00  0.00    +0.000 C 
ENDROOT
BRANCH   1   2
ATOM      2  C   UNL     1       9.061   9.939  19.081  0.00  0.00    +0.000 C 
ATOM      3  O   UNL     1       9.175  10.300  20.251  0.00  0.00    +0.000 OA
ATOM      4  N   UNL     1       9.130  10.770  17.966  0.00  0.00    +0.000 N 
ATOM      5  H   UNL     1       8.824  10.379  17.084  0.00  0.00    +0.000 HD
BRANCH   4   6
ATOM      6  C   UNL     1       9.447  12.150  17.971  0.00  0.00    +0.000 A 
ATOM      7  C   UNL     1       8.476  13.155  17.996  0.00  0.00    +0.000 A 
ATOM      8  C   UNL     1       8.836  14.505  18.008  0.00  0.00    +0.000 A 
ATOM      9  C   UNL     1      10.181  14.859  18.009  0.00  0.00    +0.000 A 
ATOM     10  C   UNL     1      11.172  13.874  17.975  0.00  0.00    +0.000 A 
ATOM     11  C   UNL     1      10.800  12.521  17.968  0.00  0.00    +0.000 A 
BRANCH   9  12
ATOM     12  S   UNL     1      10.621  16.570  18.018  0.00  0.00    +0.000 S 
ATOM     13  O   UNL     1      10.113  17.189  16.820  0.00  0.00    +0.000 OA
ATOM     14  O   UNL     1      10.405  17.118  19.337  0.00  0.00    +0.000 OA
BRANCH  12  15
ATOM     15  N   UNL     1      12.287  16.492  17.820  0.00  0.00    +0.000 NA
ATOM     16  H   UNL     1      12.642  17.397  17.506  0.00  0.00    +0.000 HD
ATOM     17  H   UNL     1      12.725  16.145  18.670  0.00  0.00    +0.000 HD
ENDBRANCH  12  15
ENDBRANCH   9  12
ENDBRANCH   4   6
ENDBRANCH   1   2
BRANCH   1  18
ATOM     18  S   UNL     1       7.398   8.457  17.567  0.00  0.00    +0.000 S 
BRANCH  18  23
ATOM     19  N   UNL     1       5.698   6.320  17.173  0.00  0.00    +0.000 N 
ATOM     20  C   UNL     1       5.838   4.935  17.137  0.00  0.00    +0.000 A 
ATOM     21  N   UNL     1       7.081   4.626  17.456  0.00  0.00    +0.000 NA
ATOM     22  N   UNL     1       7.773   5.789  17.674  0.00  0.00    +0.000 NA
ATOM     23  C   UNL     1       6.950   6.793  17.488  0.00  0.00    +0.000 A 
BRANCH  19  25
ATOM     24  C   UNL     1       3.362   7.123  17.932  0.00  0.00    +0.000 C 
ATOM     25  C   UNL     1       4.452   7.003  16.876  0.00  0.00    +0.000 C 
ENDBRANCH  19  25
BRANCH  20  26
ATOM     26  C   UNL     1       4.801   3.952  16.676  0.00  0.00    +0.000 C 
BRANCH  26  27
ATOM     27  C   UNL     1       3.833   3.458  17.733  0.00  0.00    +0.000 A 
ATOM     28  C   UNL     1       2.513   3.124  17.386  0.00  0.00    +0.000 A 
ATOM     29  C   UNL     1       1.646   2.560  18.327  0.00  0.00    +0.000 A 
ATOM     30  C   UNL     1       2.088   2.313  19.625  0.00  0.00    +0.000 A 
ATOM     31  C   UNL     1       3.396   2.635  19.983  0.00  0.00    +0.000 A 
ATOM     32  C   UNL     1       4.262   3.203  19.044  0.00  0.00    +0.000 A 
ENDBRANCH  26  27
ENDBRANCH  20  26
ENDBRANCH  18  23
ENDBRANCH   1  18
TORSDOF 9
ENDMDL
MODEL 7
REMARK VINA RESULT:      -6.8      6.193      8.114
REMARK  Name = 
REMARK  10 active torsions:
REMARK  status: ('A' for Active; 'I' for Inactive)
REMARK    1  A    between atoms: C_1  and  C_2
REMARK    2  A    between atoms: C_2  and  N_3
REMARK    3  A    between atoms: C_4  and  C_5
REMARK    4  A    between atoms: C_5  and  C_6
REMARK    5  A    between atoms: C_14  and  S_15
REMARK    6  A    between atoms: S_15  and  C_16
REMARK    7  A    between atoms: C_16  and  C_17
REMARK    8  A    between atoms: N_19  and  C_20
REMARK    9  A    between atoms: C_23  and  S_24
REMARK   10  A    between atoms: S_24  and  N_25
REMARK                            x       y       z     vdW  Elec       q    Type
REMARK                         _______ _______ _______ _____ _____    ______ ____
ROOT
ATOM      1  C   UNL     1       8.672   8.234  18.794  0.00  0.00    +0.000 C 
ENDROOT
BRANCH   1   2
ATOM      2  C   UNL     1       8.872   9.744  18.863  0.00  0.00    +0.000 C 
ATOM      3  O   UNL     1       8.513  10.460  17.930  0.00  0.00    +0.000 OA
ATOM      4  N   UNL     1       9.521  10.179  20.015  0.00  0.00    +0.000 N 
ATOM      5  H   UNL     1       9.934   9.467  20.605  0.00  0.00    +0.000 HD
BRANCH   4   6
ATOM      6  C   UNL     1       9.787  11.524  20.366  0.00  0.00    +0.000 A 
ATOM      7  C   UNL     1       8.983  12.256  21.246  0.00  0.00    +0.000 A 
ATOM      8  C   UNL     1       9.290  13.580  21.569  0.00  0.00    +0.000 A 
ATOM      9  C   UNL     1      10.419  14.179  21.022  0.00  0.00    +0.000 A 
ATOM     10  C   UNL     1      11.235  13.473  20.134  0.00  0.00    +0.000 A 
ATOM     11  C   UNL     1      10.922  12.142  19.818  0.00  0.00    +0.000 A 
BRANCH   9  12
ATOM     12  S   UNL     1      10.791  15.857  21.435  0.00  0.00    +0.000 S 
ATOM     13  O   UNL     1      10.863  15.979  22.870  0.00  0.00    +0.000 OA
ATOM     14  O   UNL     1      11.820  16.355  20.553  0.00  0.00    +0.000 OA
BRANCH  12  15
ATOM     15  N   UNL     1       9.376  16.638  20.981  0.00  0.00    +0.000 NA
ATOM     16  H   UNL     1       8.910  17.020  21.806  0.00  0.00    +0.000 HD
ATOM     17  H   UNL     1       9.574  17.327  20.259  0.00  0.00    +0.000 HD
ENDBRANCH  12  15
ENDBRANCH   9  12
ENDBRANCH   4   6
ENDBRANCH   1   2
BRANCH   1  18
ATOM     18  S   UNL     1       7.531   7.895  17.435  0.00  0.00    +0.000 S 
BRANCH  18  23
ATOM     19  N   UNL     1       5.516   6.015  17.562  0.00  0.00    +0.000 N 
ATOM     20  C   UNL     1       5.406   4.709  18.033  0.00  0.00    +0.000 A 
ATOM     21  N   UNL     1       6.539   4.375  18.622  0.00  0.00    +0.000 NA
ATOM     22  N   UNL     1       7.407   5.430  18.522  0.00  0.00    +0.000 NA
ATOM     23  C   UNL     1       6.799   6.396  17.876  0.00  0.00    +0.000 A 
BRANCH  19  25
ATOM     24  C   UNL     1       3.431   7.540  17.627  0.00  0.00    +0.000 C 
ATOM     25  C   UNL     1       4.446   6.702  16.862  0.00  0.00    +0.000 C 
ENDBRANCH  19  25
BRANCH  20  26
ATOM     26  C   UNL     1       4.254   3.776  17.794  0.00  0.00    +0.000 C 
BRANCH  26  27
ATOM     27  C   UNL     1       3.192   3.736  18.875  0.00  0.00    +0.000 A 
ATOM     28  C   UNL     1       2.321   2.638  18.974  0.00  0.00    +0.000 A 
ATOM     29  C   UNL     1       1.414   2.537  20.034  0.00  0.00    +0.000 A 
ATOM     30  C   UNL     1       1.372   3.525  21.014  0.00  0.00    +0.000 A 
ATOM     31  C   UNL     1       2.232   4.619  20.932  0.00  0.00    +0.000 A 
ATOM     32  C   UNL     1       3.136   4.723  19.870  0.00  0.00    +0.000 A 
ENDBRANCH  26  27
ENDBRANCH  20  26
ENDBRANCH  18  23
ENDBRANCH   1  18
TORSDOF 9
ENDMDL
MODEL 8
REMARK VINA RESULT:      -6.7      3.077      4.001
REMARK  Name = 
REMARK  10 active torsions:
REMARK  status: ('A' for Active; 'I' for Inactive)
REMARK    1  A    between atoms: C_1  and  C_2
REMARK    2  A    between atoms: C_2  and  N_3
REMARK    3  A    between atoms: C_4  and  C_5
REMARK    4  A    between atoms: C_5  and  C_6
REMARK    5  A    between atoms: C_14  and  S_15
REMARK    6  A    between atoms: S_15  and  C_16
REMARK    7  A    between atoms: C_16  and  C_17
REMARK    8  A    between atoms: N_19  and  C_20
REMARK    9  A    between atoms: C_23  and  S_24
REMARK   10  A    between atoms: S_24  and  N_25
REMARK                            x       y       z     vdW  Elec       q    Type
REMARK                         _______ _______ _______ _____ _____    ______ ____
ROOT
ATOM      1  C   UNL     1       2.571   6.414  20.038  0.00  0.00    +0.000 C 
ENDROOT
BRANCH   1   2
ATOM      2  C   UNL     1       1.886   7.774  20.099  0.00  0.00    +0.000 C 
ATOM      3  O   UNL     1       1.801   8.472  19.090  0.00  0.00    +0.000 OA
ATOM      4  N   UNL     1       1.444   8.131  21.371  0.00  0.00    +0.000 N 
ATOM      5  H   UNL     1       1.751   7.552  22.142  0.00  0.00    +0.000 HD
BRANCH   4   6
ATOM      6  C   UNL     1       0.729   9.306  21.707  0.00  0.00    +0.000 A 
ATOM      7  C   UNL     1       0.842  10.499  20.987  0.00  0.00    +0.000 A 
ATOM      8  C   UNL     1       0.111  11.632  21.352  0.00  0.00    +0.000 A 
ATOM      9  C   UNL     1      -0.755  11.573  22.439  0.00  0.00    +0.000 A 
ATOM     10  C   UNL     1      -0.880  10.395  23.181  0.00  0.00    +0.000 A 
ATOM     11  C   UNL     1      -0.145   9.261  22.804  0.00  0.00    +0.000 A 
BRANCH   9  12
ATOM     12  S   UNL     1      -1.668  13.016  22.893  0.00  0.00    +0.000 S 
ATOM     13  O   UNL     1      -3.058  12.661  23.042  0.00  0.00    +0.000 OA
ATOM     14  O   UNL     1      -0.935  13.758  23.892  0.00  0.00    +0.000 OA
BRANCH  12  15
ATOM     15  N   UNL     1      -1.580  13.929  21.485  0.00  0.00    +0.000 NA
ATOM     16  H   UNL     1      -0.689  13.757  21.016  0.00  0.00    +0.000 HD
ATOM     17  H   UNL     1      -2.397  13.754  20.904  0.00  0.00    +0.000 HD
ENDBRANCH  12  15
ENDBRANCH   9  12
ENDBRANCH   4   6
ENDBRANCH   1   2
BRANCH   1  18
ATOM     18  S   UNL     1       2.326   5.753  18.375  0.00  0.00    +0.000 S 
BRANCH  18  23
ATOM     19  N   UNL     1       4.812   5.088  17.379  0.00  0.00    +0.000 N 
ATOM     20  C   UNL     1       5.791   5.743  16.638  0.00  0.00    +0.000 A 
ATOM     21  N   UNL     1       5.427   7.001  16.474  0.00  0.00    +0.000 NA
ATOM     22  N   UNL     1       4.207   7.180  17.071  0.00  0.00    +0.000 NA
ATOM     23  C   UNL     1       3.838   6.034  17.594  0.00  0.00    +0.000 A 
BRANCH  19  25
ATOM     24  C   UNL     1       3.743   2.735  17.445  0.00  0.00    +0.000 C 
ATOM     25  C   UNL     1       4.895   3.686  17.746  0.00  0.00    +0.000 C 
ENDBRANCH  19  25
BRANCH  20  26
ATOM     26  C   UNL     1       6.994   5.108  16.003  0.00  0.00    +0.000 C 
BRANCH  26  27
ATOM     27  C   UNL     1       6.866   4.756  14.534  0.00  0.00    +0.000 A 
ATOM     28  C   UNL     1       7.750   5.308  13.592  0.00  0.00    +0.000 A 
ATOM     29  C   UNL     1       7.716   4.902  12.255  0.00  0.00    +0.000 A 
ATOM     30  C   UNL     1       6.804   3.934  11.841  0.00  0.00    +0.000 A 
ATOM     31  C   UNL     1       5.922   3.375  12.764  0.00  0.00    +0.000 A 
ATOM     32  C   UNL     1       5.953   3.782  14.102  0.00  0.00    +0.000 A 
ENDBRANCH  26  27
ENDBRANCH  20  26
ENDBRANCH  18  23
ENDBRANCH   1  18
TORSDOF 9
ENDMDL
MODEL 9
REMARK VINA RESULT:      -6.7      4.445      9.581
REMARK  Name = 
REMARK  10 active torsions:
REMARK  status: ('A' for Active; 'I' for Inactive)
REMARK    1  A    between atoms: C_1  and  C_2
REMARK    2  A    between atoms: C_2  and  N_3
REMARK    3  A    between atoms: C_4  and  C_5
REMARK    4  A    between atoms: C_5  and  C_6
REMARK    5  A    between atoms: C_14  and  S_15
REMARK    6  A    between atoms: S_15  and  C_16
REMARK    7  A    between atoms: C_16  and  C_17
REMARK    8  A    between atoms: N_19  and  C_20
REMARK    9  A    between atoms: C_23  and  S_24
REMARK   10  A    between atoms: S_24  and  N_25
REMARK                            x       y       z     vdW  Elec       q    Type
REMARK                         _______ _______ _______ _____ _____    ______ ____
ROOT
ATOM      1  C   UNL     1       0.237  10.413  21.317  0.00  0.00    +0.000 C 
ENDROOT
BRANCH   1   2
ATOM      2  C   UNL     1       1.125   9.174  21.310  0.00  0.00    +0.000 C 
ATOM      3  O   UNL     1       1.727   8.836  22.328  0.00  0.00    +0.000 OA
ATOM      4  N   UNL     1       1.210   8.542  20.071  0.00  0.00    +0.000 N 
ATOM      5  H   UNL     1       0.822   9.037  19.278  0.00  0.00    +0.000 HD
BRANCH   4   6
ATOM      6  C   UNL     1       1.914   7.347  19.790  0.00  0.00    +0.000 A 
ATOM      7  C   UNL     1       2.822   7.228  18.733  0.00  0.00    +0.000 A 
ATOM      8  C   UNL     1       3.500   6.030  18.498  0.00  0.00    +0.000 A 
ATOM      9  C   UNL     1       3.283   4.940  19.334  0.00  0.00    +0.000 A 
ATOM     10  C   UNL     1       2.375   5.029  20.392  0.00  0.00    +0.000 A 
ATOM     11  C   UNL     1       1.702   6.239  20.623  0.00  0.00    +0.000 A 
BRANCH   9  12
ATOM     12  S   UNL     1       4.143   3.428  19.020  0.00  0.00    +0.000 S 
ATOM     13  O   UNL     1       4.040   2.582  20.182  0.00  0.00    +0.000 OA
ATOM     14  O   UNL     1       3.840   2.968  17.685  0.00  0.00    +0.000 OA
BRANCH  12  15
ATOM     15  N   UNL     1       5.739   3.950  18.977  0.00  0.00    +0.000 NA
ATOM     16  H   UNL     1       5.917   4.450  18.104  0.00  0.00    +0.000 HD
ATOM     17  H   UNL     1       5.954   4.487  19.814  0.00  0.00    +0.000 HD
ENDBRANCH  12  15
ENDBRANCH   9  12
ENDBRANCH   4   6
ENDBRANCH   1   2
BRANCH   1  18
ATOM     18  S   UNL     1       0.427  11.230  19.717  0.00  0.00    +0.000 S 
BRANCH  18  23
ATOM     19  N   UNL     1      -2.219  11.744  19.126  0.00  0.00    +0.000 N 
ATOM     20  C   UNL     1      -3.153  11.230  18.231  0.00  0.00    +0.000 A 
ATOM     21  N   UNL     1      -2.616  10.200  17.603  0.00  0.00    +0.000 NA
ATOM     22  N   UNL     1      -1.330  10.044  18.049  0.00  0.00    +0.000 NA
ATOM     23  C   UNL     1      -1.094  10.976  18.942  0.00  0.00    +0.000 A 
BRANCH  19  25
ATOM     24  C   UNL     1      -2.797  12.687  21.461  0.00  0.00    +0.000 C 
ATOM     25  C   UNL     1      -2.481  12.885  19.985  0.00  0.00    +0.000 C 
ENDBRANCH  19  25
BRANCH  20  26
ATOM     26  C   UNL     1      -4.498  11.820  17.918  0.00  0.00    +0.000 C 
BRANCH  26  27
ATOM     27  C   UNL     1      -5.640  11.398  18.820  0.00  0.00    +0.000 A 
ATOM     28  C   UNL     1      -6.187  10.107  18.716  0.00  0.00    +0.000 A 
ATOM     29  C   UNL     1      -7.160   9.668  19.618  0.00  0.00    +0.000 A 
ATOM     30  C   UNL     1      -7.596  10.506  20.641  0.00  0.00    +0.000 A 
ATOM     31  C   UNL     1      -7.060  11.788  20.759  0.00  0.00    +0.000 A 
ATOM     32  C   UNL     1      -6.089  12.230  19.856  0.00  0.00    +0.000 A 
ENDBRANCH  26  27
ENDBRANCH  20  26
ENDBRANCH  18  23
ENDBRANCH   1  18
TORSDOF 9
ENDMDL
