MODEL 1
REMARK VINA RESULT:      -8.0      0.000      0.000
REMARK  Name = 
REMARK  1 active torsions:
REMARK  status: ('A' for Active; 'I' for Inactive)
REMARK    1  A    between atoms: C_2  and  C_4
REMARK                            x       y       z     vdW  Elec       q    Type
REMARK                         _______ _______ _______ _____ _____    ______ ____
ROOT
ATOM      1  C   UNL     1       6.911   4.411  16.263  0.00  0.00    +0.000 C 
ATOM      2  C   UNL     1       7.405   5.113  15.003  0.00  0.00    +0.000 C 
ATOM      3  C   UNL     1       6.591   4.431  13.906  0.00  0.00    +0.000 C 
ATOM      4  C   UNL     1       5.253   4.076  14.566  0.00  0.00    +0.000 C 
ATOM      5  N   UNL     1       5.476   4.281  15.989  0.00  0.00    +0.000 N 
ATOM      6  C   UNL     1       4.468   4.318  16.905  0.00  0.00    +0.000 A 
ATOM      7  N   UNL     1       3.654   3.328  17.086  0.00  0.00    +0.000 NA
ATOM      8  C   UNL     1       2.708   3.446  18.098  0.00  0.00    +0.000 A 
ATOM      9  C   UNL     1       1.861   2.372  18.374  0.00  0.00    +0.000 A 
ATOM     10  C   UNL     1       0.909   2.460  19.394  0.00  0.00    +0.000 A 
ATOM     11  C   UNL     1       0.802   3.627  20.150  0.00  0.00    +0.000 A 
ATOM     12  C   UNL     1       1.651   4.701  19.888  0.00  0.00    +0.000 A 
ATOM     13  C   UNL     1       2.598   4.597  18.860  0.00  0.00    +0.000 A 
ATOM     14  C   UNL     1       3.523   5.693  18.564  0.00  0.00    +0.000 A 
ATOM     15  O   UNL     1       3.472   6.739  19.201  0.00  0.00    +0.000 OA
ATOM     16  O   UNL     1       4.440   5.485  17.592  0.00  0.00    +0.000 OA
ENDROOT
BRANCH   1  18
ATOM     17  N   UNL     1       7.246   6.496  17.503  0.00  0.00    +0.000 N 
ATOM     18  C   UNL     1       7.266   5.123  17.570  0.00  0.00    +0.000 C 
ATOM     19  O   UNL     1       7.476   4.556  18.634  0.00  0.00    +0.000 OA
ATOM     20  H   UNL     1       7.599   6.997  18.309  0.00  0.00    +0.000 HD
ATOM     21  H   UNL     1       7.213   6.981  16.620  0.00  0.00    +0.000 HD
ENDBRANCH   1  18
TORSDOF 1
ENDMDL
MODEL 2
REMARK VINA RESULT:      -7.9      1.502      5.526
REMARK  Name = 
REMARK  1 active torsions:
REMARK  status: ('A' for Active; 'I' for Inactive)
REMARK    1  A    between atoms: C_2  and  C_4
REMARK                            x       y       z     vdW  Elec       q    Type
REMARK                         _______ _______ _______ _____ _____    ______ ____
ROOT
ATOM      1  C   UNL     1       1.470   4.367  19.236  0.00  0.00    +0.000 C 
ATOM      2  C   UNL     1       0.794   3.378  20.180  0.00  0.00    +0.000 C 
ATOM      3  C   UNL     1       0.581   2.161  19.283  0.00  0.00    +0.000 C 
ATOM      4  C   UNL     1       1.758   2.180  18.299  0.00  0.00    +0.000 C 
ATOM      5  N   UNL     1       2.367   3.489  18.477  0.00  0.00    +0.000 N 
ATOM      6  C   UNL     1       3.590   3.817  17.973  0.00  0.00    +0.000 A 
ATOM      7  N   UNL     1       3.859   3.766  16.708  0.00  0.00    +0.000 NA
ATOM      8  C   UNL     1       5.117   4.193  16.297  0.00  0.00    +0.000 A 
ATOM      9  C   UNL     1       5.421   4.224  14.936  0.00  0.00    +0.000 A 
ATOM     10  C   UNL     1       6.674   4.660  14.496  0.00  0.00    +0.000 A 
ATOM     11  C   UNL     1       7.633   5.074  15.420  0.00  0.00    +0.000 A 
ATOM     12  C   UNL     1       7.334   5.057  16.781  0.00  0.00    +0.000 A 
ATOM     13  C   UNL     1       6.074   4.615  17.206  0.00  0.00    +0.000 A 
ATOM     14  C   UNL     1       5.712   4.599  18.624  0.00  0.00    +0.000 A 
ATOM     15  O   UNL     1       6.517   4.956  19.477  0.00  0.00    +0.000 OA
ATOM     16  O   UNL     1       4.455   4.208  18.938  0.00  0.00    +0.000 OA
ENDROOT
BRANCH   1  18
ATOM     17  N   UNL     1       2.614   5.287  21.197  0.00  0.00    +0.000 N 
ATOM     18  C   UNL     1       2.147   5.551  19.930  0.00  0.00    +0.000 C 
ATOM     19  O   UNL     1       2.350   6.638  19.408  0.00  0.00    +0.000 OA
ATOM     20  H   UNL     1       2.950   6.078  21.732  0.00  0.00    +0.000 HD
ATOM     21  H   UNL     1       2.341   4.456  21.697  0.00  0.00    +0.000 HD
ENDBRANCH   1  18
TORSDOF 1
ENDMDL
MODEL 3
REMARK VINA RESULT:      -7.1      2.287      3.198
REMARK  Name = 
REMARK  1 active torsions:
REMARK  status: ('A' for Active; 'I' for Inactive)
REMARK    1  A    between atoms: C_2  and  C_4
REMARK                            x       y       z     vdW  Elec       q    Type
REMARK                         _______ _______ _______ _____ _____    ______ ____
ROOT
ATOM      1  C   UNL     1       5.874   6.966  17.757  0.00  0.00    +0.000 C 
ATOM      2  C   UNL     1       7.332   6.913  17.314  0.00  0.00    +0.000 C 
ATOM      3  C   UNL     1       8.041   6.427  18.576  0.00  0.00    +0.000 C 
ATOM      4  C   UNL     1       7.025   5.516  19.277  0.00  0.00    +0.000 C 
ATOM      5  N   UNL     1       5.770   5.761  18.585  0.00  0.00    +0.000 N 
ATOM      6  C   UNL     1       4.670   4.970  18.733  0.00  0.00    +0.000 A 
ATOM      7  N   UNL     1       4.102   4.773  19.879  0.00  0.00    +0.000 NA
ATOM      8  C   UNL     1       2.942   4.006  19.902  0.00  0.00    +0.000 A 
ATOM      9  C   UNL     1       2.258   3.832  21.106  0.00  0.00    +0.000 A 
ATOM     10  C   UNL     1       1.083   3.075  21.155  0.00  0.00    +0.000 A 
ATOM     11  C   UNL     1       0.582   2.490  19.993  0.00  0.00    +0.000 A 
ATOM     12  C   UNL     1       1.253   2.667  18.784  0.00  0.00    +0.000 A 
ATOM     13  C   UNL     1       2.430   3.427  18.752  0.00  0.00    +0.000 A 
ATOM     14  C   UNL     1       3.156   3.655  17.502  0.00  0.00    +0.000 A 
ATOM     15  O   UNL     1       2.756   3.165  16.452  0.00  0.00    +0.000 OA
ATOM     16  O   UNL     1       4.252   4.445  17.557  0.00  0.00    +0.000 OA
ENDROOT
BRANCH   1  18
ATOM     17  N   UNL     1       5.273   6.490  15.430  0.00  0.00    +0.000 N 
ATOM     18  C   UNL     1       4.863   7.063  16.612  0.00  0.00    +0.000 C 
ATOM     19  O   UNL     1       3.738   7.530  16.717  0.00  0.00    +0.000 OA
ATOM     20  H   UNL     1       4.687   6.648  14.621  0.00  0.00    +0.000 HD
ATOM     21  H   UNL     1       6.234   6.226  15.277  0.00  0.00    +0.000 HD
ENDBRANCH   1  18
TORSDOF 1
ENDMDL
MODEL 4
REMARK VINA RESULT:      -7.0      2.664      5.834
REMARK  Name = 
REMARK  1 active torsions:
REMARK  status: ('A' for Active; 'I' for Inactive)
REMARK    1  A    between atoms: C_2  and  C_4
REMARK                            x       y       z     vdW  Elec       q    Type
REMARK                         _______ _______ _______ _____ _____    ______ ____
ROOT
ATOM      1  C   UNL     1       2.176   2.805  19.309  0.00  0.00    +0.000 C 
ATOM      2  C   UNL     1       0.891   2.791  20.132  0.00  0.00    +0.000 C 
ATOM      3  C   UNL     1       1.412   2.949  21.558  0.00  0.00    +0.000 C 
ATOM      4  C   UNL     1       2.677   3.808  21.427  0.00  0.00    +0.000 C 
ATOM      5  N   UNL     1       2.961   3.833  20.000  0.00  0.00    +0.000 N 
ATOM      6  C   UNL     1       3.855   4.690  19.432  0.00  0.00    +0.000 A 
ATOM      7  N   UNL     1       5.104   4.720  19.771  0.00  0.00    +0.000 NA
ATOM      8  C   UNL     1       5.941   5.585  19.075  0.00  0.00    +0.000 A 
ATOM      9  C   UNL     1       7.308   5.594  19.359  0.00  0.00    +0.000 A 
ATOM     10  C   UNL     1       8.173   6.444  18.665  0.00  0.00    +0.000 A 
ATOM     11  C   UNL     1       7.675   7.292  17.676  0.00  0.00    +0.000 A 
ATOM     12  C   UNL     1       6.313   7.282  17.378  0.00  0.00    +0.000 A 
ATOM     13  C   UNL     1       5.459   6.425  18.084  0.00  0.00    +0.000 A 
ATOM     14  C   UNL     1       4.026   6.367  17.790  0.00  0.00    +0.000 A 
ATOM     15  O   UNL     1       3.538   7.089  16.928  0.00  0.00    +0.000 OA
ATOM     16  O   UNL     1       3.286   5.472  18.484  0.00  0.00    +0.000 OA
ENDROOT
BRANCH   1  18
ATOM     17  N   UNL     1       1.093   4.049  17.497  0.00  0.00    +0.000 N 
ATOM     18  C   UNL     1       1.970   3.036  17.810  0.00  0.00    +0.000 C 
ATOM     19  O   UNL     1       2.578   2.447  16.928  0.00  0.00    +0.000 OA
ATOM     20  H   UNL     1       0.837   4.143  16.523  0.00  0.00    +0.000 HD
ATOM     21  H   UNL     1       0.482   4.451  18.191  0.00  0.00    +0.000 HD
ENDBRANCH   1  18
TORSDOF 1
ENDMDL
MODEL 5
REMARK VINA RESULT:      -7.0      2.594      3.969
REMARK  Name = 
REMARK  1 active torsions:
REMARK  status: ('A' for Active; 'I' for Inactive)
REMARK    1  A    between atoms: C_2  and  C_4
REMARK                            x       y       z     vdW  Elec       q    Type
REMARK                         _______ _______ _______ _____ _____    ______ ____
ROOT
ATOM      1  C   UNL     1       4.427   4.238  16.297  0.00  0.00    +0.000 C 
ATOM      2  C   UNL     1       5.840   3.682  16.152  0.00  0.00    +0.000 C 
ATOM      3  C   UNL     1       6.636   4.914  15.729  0.00  0.00    +0.000 C 
ATOM      4  C   UNL     1       5.937   6.094  16.416  0.00  0.00    +0.000 C 
ATOM      5  N   UNL     1       4.683   5.546  16.908  0.00  0.00    +0.000 N 
ATOM      6  C   UNL     1       3.880   6.199  17.794  0.00  0.00    +0.000 A 
ATOM      7  N   UNL     1       3.375   7.365  17.547  0.00  0.00    +0.000 NA
ATOM      8  C   UNL     1       2.510   7.908  18.492  0.00  0.00    +0.000 A 
ATOM      9  C   UNL     1       1.887   9.129  18.231  0.00  0.00    +0.000 A 
ATOM     10  C   UNL     1       1.003   9.690  19.158  0.00  0.00    +0.000 A 
ATOM     11  C   UNL     1       0.735   9.027  20.355  0.00  0.00    +0.000 A 
ATOM     12  C   UNL     1       1.344   7.801  20.620  0.00  0.00    +0.000 A 
ATOM     13  C   UNL     1       2.229   7.254  19.681  0.00  0.00    +0.000 A 
ATOM     14  C   UNL     1       2.875   5.960  19.909  0.00  0.00    +0.000 A 
ATOM     15  O   UNL     1       2.671   5.336  20.943  0.00  0.00    +0.000 OA
ATOM     16  O   UNL     1       3.672   5.484  18.924  0.00  0.00    +0.000 OA
ENDROOT
BRANCH   1  18
ATOM     17  N   UNL     1       4.042   2.594  18.072  0.00  0.00    +0.000 N 
ATOM     18  C   UNL     1       3.462   3.333  17.067  0.00  0.00    +0.000 C 
ATOM     19  O   UNL     1       2.252   3.300  16.891  0.00  0.00    +0.000 OA
ATOM     20  H   UNL     1       3.461   1.893  18.515  0.00  0.00    +0.000 HD
ATOM     21  H   UNL     1       5.042   2.498  18.146  0.00  0.00    +0.000 HD
ENDBRANCH   1  18
TORSDOF 1
ENDMDL
MODEL 6
REMARK VINA RESULT:      -6.7      2.407      5.845
REMARK  Name = 
REMARK  1 active torsions:
REMARK  status: ('A' for Active; 'I' for Inactive)
REMARK    1  A    between atoms: C_2  and  C_4
REMARK                            x       y       z     vdW  Elec       q    Type
REMARK                         _______ _______ _______ _____ _____    ______ ____
ROOT
ATOM      1  C   UNL     1       2.750   2.290  19.558  0.00  0.00    +0.000 C 
ATOM      2  C   UNL     1       1.338   2.268  20.135  0.00  0.00    +0.000 C 
ATOM      3  C   UNL     1       1.542   2.862  21.526  0.00  0.00    +0.000 C 
ATOM      4  C   UNL     1       2.697   3.860  21.367  0.00  0.00    +0.000 C 
ATOM      5  N   UNL     1       3.254   3.574  20.054  0.00  0.00    +0.000 N 
ATOM      6  C   UNL     1       4.135   4.399  19.422  0.00  0.00    +0.000 A 
ATOM      7  N   UNL     1       5.279   4.721  19.935  0.00  0.00    +0.000 NA
ATOM      8  C   UNL     1       6.131   5.512  19.171  0.00  0.00    +0.000 A 
ATOM      9  C   UNL     1       7.402   5.820  19.657  0.00  0.00    +0.000 A 
ATOM     10  C   UNL     1       8.282   6.602  18.903  0.00  0.00    +0.000 A 
ATOM     11  C   UNL     1       7.894   7.080  17.651  0.00  0.00    +0.000 A 
ATOM     12  C   UNL     1       6.630   6.768  17.153  0.00  0.00    +0.000 A 
ATOM     13  C   UNL     1       5.759   5.984  17.923  0.00  0.00    +0.000 A 
ATOM     14  C   UNL     1       4.431   5.617  17.430  0.00  0.00    +0.000 A 
ATOM     15  O   UNL     1       4.042   6.008  16.335  0.00  0.00    +0.000 OA
ATOM     16  O   UNL     1       3.679   4.812  18.217  0.00  0.00    +0.000 OA
ENDROOT
BRANCH   1  18
ATOM     17  N   UNL     1       4.023   1.623  17.575  0.00  0.00    +0.000 N 
ATOM     18  C   UNL     1       2.821   2.101  18.041  0.00  0.00    +0.000 C 
ATOM     19  O   UNL     1       1.882   2.273  17.275  0.00  0.00    +0.000 OA
ATOM     20  H   UNL     1       4.148   1.608  16.570  0.00  0.00    +0.000 HD
ATOM     21  H   UNL     1       4.846   1.606  18.156  0.00  0.00    +0.000 HD
ENDBRANCH   1  18
TORSDOF 1
ENDMDL
MODEL 7
REMARK VINA RESULT:      -6.7      1.508      5.465
REMARK  Name = 
REMARK  1 active torsions:
REMARK  status: ('A' for Active; 'I' for Inactive)
REMARK    1  A    between atoms: C_2  and  C_4
REMARK                            x       y       z     vdW  Elec       q    Type
REMARK                         _______ _______ _______ _____ _____    ______ ____
ROOT
ATOM      1  C   UNL     1       1.686   4.870  19.328  0.00  0.00    +0.000 C 
ATOM      2  C   UNL     1       1.243   4.181  20.615  0.00  0.00    +0.000 C 
ATOM      3  C   UNL     1       1.127   2.722  20.183  0.00  0.00    +0.000 C 
ATOM      4  C   UNL     1       2.199   2.541  19.101  0.00  0.00    +0.000 C 
ATOM      5  N   UNL     1       2.629   3.891  18.776  0.00  0.00    +0.000 N 
ATOM      6  C   UNL     1       3.744   4.164  18.041  0.00  0.00    +0.000 A 
ATOM      7  N   UNL     1       3.906   3.727  16.834  0.00  0.00    +0.000 NA
ATOM      8  C   UNL     1       5.050   4.126  16.151  0.00  0.00    +0.000 A 
ATOM      9  C   UNL     1       5.226   3.739  14.822  0.00  0.00    +0.000 A 
ATOM     10  C   UNL     1       6.361   4.136  14.109  0.00  0.00    +0.000 A 
ATOM     11  C   UNL     1       7.328   4.931  14.723  0.00  0.00    +0.000 A 
ATOM     12  C   UNL     1       7.155   5.332  16.047  0.00  0.00    +0.000 A 
ATOM     13  C   UNL     1       6.013   4.923  16.748  0.00  0.00    +0.000 A 
ATOM     14  C   UNL     1       5.782   5.337  18.133  0.00  0.00    +0.000 A 
ATOM     15  O   UNL     1       6.599   6.038  18.718  0.00  0.00    +0.000 OA
ATOM     16  O   UNL     1       4.626   4.940  18.714  0.00  0.00    +0.000 OA
ENDROOT
BRANCH   1  18
ATOM     17  N   UNL     1       2.451   6.984  18.356  0.00  0.00    +0.000 N 
ATOM     18  C   UNL     1       2.245   6.281  19.520  0.00  0.00    +0.000 C 
ATOM     19  O   UNL     1       2.432   6.812  20.607  0.00  0.00    +0.000 OA
ATOM     20  H   UNL     1       2.938   7.868  18.438  0.00  0.00    +0.000 HD
ATOM     21  H   UNL     1       2.438   6.530  17.456  0.00  0.00    +0.000 HD
ENDBRANCH   1  18
TORSDOF 1
ENDMDL
MODEL 8
REMARK VINA RESULT:      -6.7      1.854      2.719
REMARK  Name = 
REMARK  1 active torsions:
REMARK  status: ('A' for Active; 'I' for Inactive)
REMARK    1  A    between atoms: C_2  and  C_4
REMARK                            x       y       z     vdW  Elec       q    Type
REMARK                         _______ _______ _______ _____ _____    ______ ____
ROOT
ATOM      1  C   UNL     1       6.725   5.912  16.738  0.00  0.00    +0.000 C 
ATOM      2  C   UNL     1       7.696   6.995  17.197  0.00  0.00    +0.000 C 
ATOM      3  C   UNL     1       6.773   8.190  17.422  0.00  0.00    +0.000 C 
ATOM      4  C   UNL     1       5.439   7.583  17.876  0.00  0.00    +0.000 C 
ATOM      5  N   UNL     1       5.569   6.160  17.607  0.00  0.00    +0.000 N 
ATOM      6  C   UNL     1       4.705   5.226  18.093  0.00  0.00    +0.000 A 
ATOM      7  N   UNL     1       3.437   5.249  17.835  0.00  0.00    +0.000 NA
ATOM      8  C   UNL     1       2.658   4.205  18.324  0.00  0.00    +0.000 A 
ATOM      9  C   UNL     1       1.301   4.153  18.005  0.00  0.00    +0.000 A 
ATOM     10  C   UNL     1       0.499   3.108  18.474  0.00  0.00    +0.000 A 
ATOM     11  C   UNL     1       1.054   2.103  19.265  0.00  0.00    +0.000 A 
ATOM     12  C   UNL     1       2.412   2.141  19.580  0.00  0.00    +0.000 A 
ATOM     13  C   UNL     1       3.202   3.197  19.103  0.00  0.00    +0.000 A 
ATOM     14  C   UNL     1       4.635   3.266  19.393  0.00  0.00    +0.000 A 
ATOM     15  O   UNL     1       5.173   2.406  20.081  0.00  0.00    +0.000 OA
ATOM     16  O   UNL     1       5.329   4.291  18.847  0.00  0.00    +0.000 OA
ENDROOT
BRANCH   1  18
ATOM     17  N   UNL     1       6.638   3.585  15.979  0.00  0.00    +0.000 N 
ATOM     18  C   UNL     1       7.286   4.489  16.787  0.00  0.00    +0.000 C 
ATOM     19  O   UNL     1       8.281   4.158  17.417  0.00  0.00    +0.000 OA
ATOM     20  H   UNL     1       6.900   2.612  16.083  0.00  0.00    +0.000 HD
ATOM     21  H   UNL     1       5.744   3.794  15.563  0.00  0.00    +0.000 HD
ENDBRANCH   1  18
TORSDOF 1
ENDMDL
MODEL 9
REMARK VINA RESULT:      -6.5      3.200      4.350
REMARK  Name = 
REMARK  1 active torsions:
REMARK  status: ('A' for Active; 'I' for Inactive)
REMARK    1  A    between atoms: C_2  and  C_4
REMARK                            x       y       z     vdW  Elec       q    Type
REMARK                         _______ _______ _______ _____ _____    ______ ____
ROOT
ATOM      1  C   UNL     1       4.801   5.205  17.667  0.00  0.00    +0.000 C 
ATOM      2  C   UNL     1       4.679   4.101  16.623  0.00  0.00    +0.000 C 
ATOM      3  C   UNL     1       3.727   3.115  17.296  0.00  0.00    +0.000 C 
ATOM      4  C   UNL     1       2.799   3.983  18.156  0.00  0.00    +0.000 C 
ATOM      5  N   UNL     1       3.426   5.296  18.168  0.00  0.00    +0.000 N 
ATOM      6  C   UNL     1       2.796   6.420  18.611  0.00  0.00    +0.000 A 
ATOM      7  N   UNL     1       2.335   6.531  19.816  0.00  0.00    +0.000 NA
ATOM      8  C   UNL     1       1.775   7.750  20.183  0.00  0.00    +0.000 A 
ATOM      9  C   UNL     1       1.335   7.936  21.494  0.00  0.00    +0.000 A 
ATOM     10  C   UNL     1       0.779   9.156  21.892  0.00  0.00    +0.000 A 
ATOM     11  C   UNL     1       0.663  10.202  20.977  0.00  0.00    +0.000 A 
ATOM     12  C   UNL     1       1.110  10.028  19.668  0.00  0.00    +0.000 A 
ATOM     13  C   UNL     1       1.663   8.799  19.284  0.00  0.00    +0.000 A 
ATOM     14  C   UNL     1       2.163   8.580  17.926  0.00  0.00    +0.000 A 
ATOM     15  O   UNL     1       2.088   9.468  17.084  0.00  0.00    +0.000 OA
ATOM     16  O   UNL     1       2.730   7.381  17.660  0.00  0.00    +0.000 OA
ENDROOT
BRANCH   1  18
ATOM     17  N   UNL     1       5.028   6.842  15.859  0.00  0.00    +0.000 N 
ATOM     18  C   UNL     1       5.395   6.515  17.144  0.00  0.00    +0.000 C 
ATOM     19  O   UNL     1       6.079   7.281  17.808  0.00  0.00    +0.000 OA
ATOM     20  H   UNL     1       5.501   7.631  15.437  0.00  0.00    +0.000 HD
ATOM     21  H   UNL     1       4.586   6.172  15.250  0.00  0.00    +0.000 HD
ENDBRANCH   1  18
TORSDOF 1
ENDMDL
