MODEL 1
REMARK VINA RESULT:      -7.3      0.000      0.000
REMARK  Name = 
REMARK  4 active torsions:
REMARK  status: ('A' for Active; 'I' for Inactive)
REMARK    1  A    between atoms: N_1  and  C_2
REMARK    2  A    between atoms: C_9  and  O_10
REMARK    3  A    between atoms: N_11  and  C_12
REMARK    4  A    between atoms: C_12  and  C_13
REMARK                            x       y       z     vdW  Elec       q    Type
REMARK                         _______ _______ _______ _____ _____    ______ ____
ROOT
ATOM      1  C   UNL     1       2.109   3.632  21.059  0.00  0.00    +0.000 A 
ATOM      2  N   UNL     1       1.792   4.945  21.077  0.00  0.00    +0.000 NA
ATOM      3  C   UNL     1       2.106   5.697  19.999  0.00  0.00    +0.000 A 
ATOM      4  N   UNL     1       2.714   5.316  18.857  0.00  0.00    +0.000 NA
ATOM      5  C   UNL     1       2.985   3.999  18.878  0.00  0.00    +0.000 A 
ATOM      6  C   UNL     1       2.716   3.104  19.906  0.00  0.00    +0.000 A 
ATOM      7  N   UNL     1       3.134   1.828  19.579  0.00  0.00    +0.000 NA
ATOM      8  C   UNL     1       3.675   1.971  18.396  0.00  0.00    +0.000 A 
ATOM      9  N   UNL     1       3.617   3.251  17.920  0.00  0.00    +0.000 N 
ENDROOT
BRANCH   1  10
ATOM     10  N   UNL     1       1.821   2.872  22.185  0.00  0.00    +0.000 N 
ATOM     11  H   UNL     1       2.240   3.254  23.023  0.00  0.00    +0.000 HD
ATOM     12  H   UNL     1       0.859   2.560  22.235  0.00  0.00    +0.000 HD
ENDBRANCH   1  10
BRANCH   8  13
ATOM     13  O   UNL     1       4.247   0.965  17.764  0.00  0.00    +0.000 OA
ATOM     14  H   UNL     1       4.731   1.427  17.054  0.00  0.00    +0.000 HD
ENDBRANCH   8  13
BRANCH   9  15
ATOM     15  C   UNL     1       4.301   3.758  16.750  0.00  0.00    +0.000 C 
BRANCH  15  16
ATOM     16  C   UNL     1       5.363   4.781  17.071  0.00  0.00    +0.000 A 
ATOM     17  C   UNL     1       5.242   6.101  16.613  0.00  0.00    +0.000 A 
ATOM     18  C   UNL     1       6.167   7.074  16.999  0.00  0.00    +0.000 A 
ATOM     19  C   UNL     1       7.227   6.730  17.834  0.00  0.00    +0.000 A 
ATOM     20 CL   UNL     1       8.338   7.939  18.351  0.00  0.00    +0.000 Cl
ATOM     21  C   UNL     1       7.385   5.416  18.267  0.00  0.00    +0.000 A 
ATOM     22  C   UNL     1       6.459   4.442  17.882  0.00  0.00    +0.000 A 
ENDBRANCH  15  16
ENDBRANCH   9  15
TORSDOF 4
ENDMDL
MODEL 2
REMARK VINA RESULT:      -7.1      0.221      1.129
REMARK  Name = 
REMARK  4 active torsions:
REMARK  status: ('A' for Active; 'I' for Inactive)
REMARK    1  A    between atoms: N_1  and  C_2
REMARK    2  A    between atoms: C_9  and  O_10
REMARK    3  A    between atoms: N_11  and  C_12
REMARK    4  A    between atoms: C_12  and  C_13
REMARK                            x       y       z     vdW  Elec       q    Type
REMARK                         _______ _______ _______ _____ _____    ______ ____
ROOT
ATOM      1  C   UNL     1       1.939   3.507  21.059  0.00  0.00    +0.000 A 
ATOM      2  N   UNL     1       1.606   4.816  21.069  0.00  0.00    +0.000 NA
ATOM      3  C   UNL     1       1.959   5.577  20.010  0.00  0.00    +0.000 A 
ATOM      4  N   UNL     1       2.621   5.209  18.894  0.00  0.00    +0.000 NA
ATOM      5  C   UNL     1       2.907   3.896  18.921  0.00  0.00    +0.000 A 
ATOM      6  C   UNL     1       2.603   2.993  19.932  0.00  0.00    +0.000 A 
ATOM      7  N   UNL     1       3.051   1.724  19.617  0.00  0.00    +0.000 NA
ATOM      8  C   UNL     1       3.642   1.879  18.461  0.00  0.00    +0.000 A 
ATOM      9  N   UNL     1       3.591   3.161  17.989  0.00  0.00    +0.000 N 
ENDROOT
BRANCH   1  10
ATOM     10  N   UNL     1       1.609   2.737  22.167  0.00  0.00    +0.000 N 
ATOM     11  H   UNL     1       1.840   3.200  23.037  0.00  0.00    +0.000 HD
ATOM     12  H   UNL     1       0.710   2.279  22.096  0.00  0.00    +0.000 HD
ENDBRANCH   1  10
BRANCH   8  13
ATOM     13  O   UNL     1       4.254   0.883  17.850  0.00  0.00    +0.000 OA
ATOM     14  H   UNL     1       3.627   0.149  17.990  0.00  0.00    +0.000 HD
ENDBRANCH   8  13
BRANCH   9  15
ATOM     15  C   UNL     1       4.320   3.682  16.853  0.00  0.00    +0.000 C 
BRANCH  15  16
ATOM     16  C   UNL     1       5.240   4.826  17.204  0.00  0.00    +0.000 A 
ATOM     17  C   UNL     1       6.362   4.613  18.019  0.00  0.00    +0.000 A 
ATOM     18  C   UNL     1       7.273   5.646  18.255  0.00  0.00    +0.000 A 
ATOM     19  C   UNL     1       7.061   6.901  17.691  0.00  0.00    +0.000 A 
ATOM     20 CL   UNL     1       8.209   8.159  17.940  0.00  0.00    +0.000 Cl
ATOM     21  C   UNL     1       5.932   7.141  16.911  0.00  0.00    +0.000 A 
ATOM     22  C   UNL     1       5.020   6.108  16.673  0.00  0.00    +0.000 A 
ENDBRANCH  15  16
ENDBRANCH   9  15
TORSDOF 4
ENDMDL
MODEL 3
REMARK VINA RESULT:      -7.1      3.047      5.101
REMARK  Name = 
REMARK  4 active torsions:
REMARK  status: ('A' for Active; 'I' for Inactive)
REMARK    1  A    between atoms: N_1  and  C_2
REMARK    2  A    between atoms: C_9  and  O_10
REMARK    3  A    between atoms: N_11  and  C_12
REMARK    4  A    between atoms: C_12  and  C_13
REMARK                            x       y       z     vdW  Elec       q    Type
REMARK                         _______ _______ _______ _____ _____    ______ ____
ROOT
ATOM      1  C   UNL     1       6.978   4.693  17.100  0.00  0.00    +0.000 A 
ATOM      2  N   UNL     1       7.717   5.265  18.076  0.00  0.00    +0.000 NA
ATOM      3  C   UNL     1       7.108   5.583  19.239  0.00  0.00    +0.000 A 
ATOM      4  N   UNL     1       5.817   5.407  19.588  0.00  0.00    +0.000 NA
ATOM      5  C   UNL     1       5.132   4.814  18.596  0.00  0.00    +0.000 A 
ATOM      6  C   UNL     1       5.623   4.424  17.355  0.00  0.00    +0.000 A 
ATOM      7  N   UNL     1       4.630   3.843  16.588  0.00  0.00    +0.000 NA
ATOM      8  C   UNL     1       3.565   3.922  17.343  0.00  0.00    +0.000 A 
ATOM      9  N   UNL     1       3.800   4.495  18.562  0.00  0.00    +0.000 N 
ENDROOT
BRANCH   1  10
ATOM     10  N   UNL     1       7.598   4.403  15.892  0.00  0.00    +0.000 N 
ATOM     11  H   UNL     1       8.596   4.270  15.996  0.00  0.00    +0.000 HD
ATOM     12  H   UNL     1       7.089   3.745  15.315  0.00  0.00    +0.000 HD
ENDBRANCH   1  10
BRANCH   8  13
ATOM     13  O   UNL     1       2.382   3.514  16.927  0.00  0.00    +0.000 OA
ATOM     14  H   UNL     1       1.957   3.253  17.765  0.00  0.00    +0.000 HD
ENDBRANCH   8  13
BRANCH   9  15
ATOM     15  C   UNL     1       2.797   4.902  19.521  0.00  0.00    +0.000 C 
BRANCH  15  16
ATOM     16  C   UNL     1       2.412   6.357  19.407  0.00  0.00    +0.000 A 
ATOM     17  C   UNL     1       2.533   7.031  18.184  0.00  0.00    +0.000 A 
ATOM     18  C   UNL     1       2.076   8.346  18.050  0.00  0.00    +0.000 A 
ATOM     19  C   UNL     1       1.509   8.997  19.142  0.00  0.00    +0.000 A 
ATOM     20 CL   UNL     1       0.900  10.598  18.964  0.00  0.00    +0.000 Cl
ATOM     21  C   UNL     1       1.417   8.356  20.375  0.00  0.00    +0.000 A 
ATOM     22  C   UNL     1       1.872   7.041  20.509  0.00  0.00    +0.000 A 
ENDBRANCH  15  16
ENDBRANCH   9  15
TORSDOF 4
ENDMDL
MODEL 4
REMARK VINA RESULT:      -7.1      1.652      2.154
REMARK  Name = 
REMARK  4 active torsions:
REMARK  status: ('A' for Active; 'I' for Inactive)
REMARK    1  A    between atoms: N_1  and  C_2
REMARK    2  A    between atoms: C_9  and  O_10
REMARK    3  A    between atoms: N_11  and  C_12
REMARK    4  A    between atoms: C_12  and  C_13
REMARK                            x       y       z     vdW  Elec       q    Type
REMARK                         _______ _______ _______ _____ _____    ______ ____
ROOT
ATOM      1  C   UNL     1       2.156   2.539  21.330  0.00  0.00    +0.000 A 
ATOM      2  N   UNL     1       3.331   2.087  21.819  0.00  0.00    +0.000 NA
ATOM      3  C   UNL     1       4.427   2.167  21.032  0.00  0.00    +0.000 A 
ATOM      4  N   UNL     1       4.528   2.654  19.779  0.00  0.00    +0.000 NA
ATOM      5  C   UNL     1       3.340   3.114  19.349  0.00  0.00    +0.000 A 
ATOM      6  C   UNL     1       2.137   3.105  20.044  0.00  0.00    +0.000 A 
ATOM      7  N   UNL     1       1.122   3.661  19.288  0.00  0.00    +0.000 NA
ATOM      8  C   UNL     1       1.703   3.958  18.155  0.00  0.00    +0.000 A 
ATOM      9  N   UNL     1       3.036   3.654  18.127  0.00  0.00    +0.000 N 
ENDROOT
BRANCH   1  10
ATOM     10  N   UNL     1       1.024   2.419  22.126  0.00  0.00    +0.000 N 
ATOM     11  H   UNL     1       0.817   3.272  22.629  0.00  0.00    +0.000 HD
ATOM     12  H   UNL     1       0.256   1.933  21.679  0.00  0.00    +0.000 HD
ENDBRANCH   1  10
BRANCH   8  13
ATOM     13  O   UNL     1       1.033   4.468  17.139  0.00  0.00    +0.000 OA
ATOM     14  H   UNL     1       0.112   4.382  17.446  0.00  0.00    +0.000 HD
ENDBRANCH   8  13
BRANCH   9  15
ATOM     15  C   UNL     1       3.892   3.675  16.961  0.00  0.00    +0.000 C 
BRANCH  15  16
ATOM     16  C   UNL     1       4.926   4.773  16.995  0.00  0.00    +0.000 A 
ATOM     17  C   UNL     1       4.537   6.119  16.929  0.00  0.00    +0.000 A 
ATOM     18  C   UNL     1       5.483   7.139  17.069  0.00  0.00    +0.000 A 
ATOM     19  C   UNL     1       6.824   6.819  17.261  0.00  0.00    +0.000 A 
ATOM     20 CL   UNL     1       7.981   8.074  17.485  0.00  0.00    +0.000 Cl
ATOM     21  C   UNL     1       7.233   5.488  17.291  0.00  0.00    +0.000 A 
ATOM     22  C   UNL     1       6.288   4.467  17.153  0.00  0.00    +0.000 A 
ENDBRANCH  15  16
ENDBRANCH   9  15
TORSDOF 4
ENDMDL
MODEL 5
REMARK VINA RESULT:      -7.1      2.977      5.195
REMARK  Name = 
REMARK  4 active torsions:
REMARK  status: ('A' for Active; 'I' for Inactive)
REMARK    1  A    between atoms: N_1  and  C_2
REMARK    2  A    between atoms: C_9  and  O_10
REMARK    3  A    between atoms: N_11  and  C_12
REMARK    4  A    between atoms: C_12  and  C_13
REMARK                            x       y       z     vdW  Elec       q    Type
REMARK                         _______ _______ _______ _____ _____    ______ ____
ROOT
ATOM      1  C   UNL     1       6.932   4.760  16.853  0.00  0.00    +0.000 A 
ATOM      2  N   UNL     1       7.762   5.269  17.789  0.00  0.00    +0.000 NA
ATOM      3  C   UNL     1       7.272   5.492  19.029  0.00  0.00    +0.000 A 
ATOM      4  N   UNL     1       6.025   5.270  19.492  0.00  0.00    +0.000 NA
ATOM      5  C   UNL     1       5.247   4.741  18.532  0.00  0.00    +0.000 A 
ATOM      6  C   UNL     1       5.612   4.451  17.223  0.00  0.00    +0.000 A 
ATOM      7  N   UNL     1       4.551   3.913  16.518  0.00  0.00    +0.000 NA
ATOM      8  C   UNL     1       3.568   3.920  17.381  0.00  0.00    +0.000 A 
ATOM      9  N   UNL     1       3.921   4.405  18.609  0.00  0.00    +0.000 N 
ENDROOT
BRANCH   1  10
ATOM     10  N   UNL     1       7.428   4.569  15.570  0.00  0.00    +0.000 N 
ATOM     11  H   UNL     1       7.898   3.679  15.469  0.00  0.00    +0.000 HD
ATOM     12  H   UNL     1       6.793   4.857  14.836  0.00  0.00    +0.000 HD
ENDBRANCH   1  10
BRANCH   8  13
ATOM     13  O   UNL     1       2.352   3.524  17.057  0.00  0.00    +0.000 OA
ATOM     14  H   UNL     1       2.536   2.873  16.355  0.00  0.00    +0.000 HD
ENDBRANCH   8  13
BRANCH   9  15
ATOM     15  C   UNL     1       3.018   4.724  19.693  0.00  0.00    +0.000 C 
BRANCH  15  16
ATOM     16  C   UNL     1       2.440   6.115  19.603  0.00  0.00    +0.000 A 
ATOM     17  C   UNL     1       1.806   6.695  20.711  0.00  0.00    +0.000 A 
ATOM     18  C   UNL     1       1.367   8.021  20.663  0.00  0.00    +0.000 A 
ATOM     19  C   UNL     1       1.546   8.770  19.503  0.00  0.00    +0.000 A 
ATOM     20 CL   UNL     1       1.051  10.418  19.461  0.00  0.00    +0.000 Cl
ATOM     21  C   UNL     1       2.138   8.197  18.380  0.00  0.00    +0.000 A 
ATOM     22  C   UNL     1       2.579   6.871  18.427  0.00  0.00    +0.000 A 
ENDBRANCH  15  16
ENDBRANCH   9  15
TORSDOF 4
ENDMDL
MODEL 6
REMARK VINA RESULT:      -6.9      3.356      5.327
REMARK  Name = 
REMARK  4 active torsions:
REMARK  status: ('A' for Active; 'I' for Inactive)
REMARK    1  A    between atoms: N_1  and  C_2
REMARK    2  A    between atoms: C_9  and  O_10
REMARK    3  A    between atoms: N_11  and  C_12
REMARK    4  A    between atoms: C_12  and  C_13
REMARK                            x       y       z     vdW  Elec       q    Type
REMARK                         _______ _______ _______ _____ _____    ______ ____
ROOT
ATOM      1  C   UNL     1       7.205   4.914  17.430  0.00  0.00    +0.000 A 
ATOM      2  N   UNL     1       7.324   5.800  16.418  0.00  0.00    +0.000 NA
ATOM      3  C   UNL     1       6.237   6.523  16.067  0.00  0.00    +0.000 A 
ATOM      4  N   UNL     1       4.998   6.490  16.599  0.00  0.00    +0.000 NA
ATOM      5  C   UNL     1       4.940   5.613  17.616  0.00  0.00    +0.000 A 
ATOM      6  C   UNL     1       5.970   4.812  18.093  0.00  0.00    +0.000 A 
ATOM      7  N   UNL     1       5.545   4.033  19.152  0.00  0.00    +0.000 NA
ATOM      8  C   UNL     1       4.280   4.338  19.277  0.00  0.00    +0.000 A 
ATOM      9  N   UNL     1       3.854   5.281  18.384  0.00  0.00    +0.000 N 
ENDROOT
BRANCH   1  10
ATOM     10  N   UNL     1       8.314   4.145  17.763  0.00  0.00    +0.000 N 
ATOM     11  H   UNL     1       8.213   3.698  18.665  0.00  0.00    +0.000 HD
ATOM     12  H   UNL     1       8.675   3.592  16.996  0.00  0.00    +0.000 HD
ENDBRANCH   1  10
BRANCH   8  13
ATOM     13  O   UNL     1       3.503   3.748  20.165  0.00  0.00    +0.000 OA
ATOM     14  H   UNL     1       4.158   3.334  20.757  0.00  0.00    +0.000 HD
ENDBRANCH   8  13
BRANCH   9  15
ATOM     15  C   UNL     1       2.482   5.670  18.141  0.00  0.00    +0.000 C 
BRANCH  15  16
ATOM     16  C   UNL     1       2.114   6.994  18.763  0.00  0.00    +0.000 A 
ATOM     17  C   UNL     1       1.965   8.138  17.965  0.00  0.00    +0.000 A 
ATOM     18  C   UNL     1       1.519   9.340  18.523  0.00  0.00    +0.000 A 
ATOM     19  C   UNL     1       1.233   9.408  19.884  0.00  0.00    +0.000 A 
ATOM     20 CL   UNL     1       0.635  10.873  20.561  0.00  0.00    +0.000 Cl
ATOM     21  C   UNL     1       1.413   8.293  20.698  0.00  0.00    +0.000 A 
ATOM     22  C   UNL     1       1.857   7.090  20.140  0.00  0.00    +0.000 A 
ENDBRANCH  15  16
ENDBRANCH   9  15
TORSDOF 4
ENDMDL
MODEL 7
REMARK VINA RESULT:      -6.9      3.212      4.515
REMARK  Name = 
REMARK  4 active torsions:
REMARK  status: ('A' for Active; 'I' for Inactive)
REMARK    1  A    between atoms: N_1  and  C_2
REMARK    2  A    between atoms: C_9  and  O_10
REMARK    3  A    between atoms: N_11  and  C_12
REMARK    4  A    between atoms: C_12  and  C_13
REMARK                            x       y       z     vdW  Elec       q    Type
REMARK                         _______ _______ _______ _____ _____    ______ ____
ROOT
ATOM      1  C   UNL     1       4.233   2.312  19.304  0.00  0.00    +0.000 A 
ATOM      2  N   UNL     1       3.031   1.851  18.893  0.00  0.00    +0.000 NA
ATOM      3  C   UNL     1       2.280   2.641  18.094  0.00  0.00    +0.000 A 
ATOM      4  N   UNL     1       2.563   3.872  17.623  0.00  0.00    +0.000 NA
ATOM      5  C   UNL     1       3.777   4.274  18.039  0.00  0.00    +0.000 A 
ATOM      6  C   UNL     1       4.659   3.572  18.851  0.00  0.00    +0.000 A 
ATOM      7  N   UNL     1       5.816   4.296  19.072  0.00  0.00    +0.000 NA
ATOM      8  C   UNL     1       5.607   5.419  18.435  0.00  0.00    +0.000 A 
ATOM      9  N   UNL     1       4.401   5.469  17.794  0.00  0.00    +0.000 N 
ENDROOT
BRANCH   1  10
ATOM     10  N   UNL     1       4.985   1.515  20.158  0.00  0.00    +0.000 N 
ATOM     11  H   UNL     1       5.970   1.741  20.124  0.00  0.00    +0.000 HD
ATOM     12  H   UNL     1       4.561   1.371  21.066  0.00  0.00    +0.000 HD
ENDBRANCH   1  10
BRANCH   8  13
ATOM     13  O   UNL     1       6.481   6.407  18.457  0.00  0.00    +0.000 OA
ATOM     14  H   UNL     1       6.188   6.948  17.700  0.00  0.00    +0.000 HD
ENDBRANCH   8  13
BRANCH   9  15
ATOM     15  C   UNL     1       3.805   6.638  17.185  0.00  0.00    +0.000 C 
BRANCH  15  16
ATOM     16  C   UNL     1       2.952   7.441  18.136  0.00  0.00    +0.000 A 
ATOM     17  C   UNL     1       2.351   8.637  17.716  0.00  0.00    +0.000 A 
ATOM     18  C   UNL     1       1.474   9.325  18.560  0.00  0.00    +0.000 A 
ATOM     19  C   UNL     1       1.205   8.829  19.833  0.00  0.00    +0.000 A 
ATOM     20 CL   UNL     1       0.086   9.648  20.853  0.00  0.00    +0.000 Cl
ATOM     21  C   UNL     1       1.824   7.664  20.280  0.00  0.00    +0.000 A 
ATOM     22  C   UNL     1       2.700   6.975  19.436  0.00  0.00    +0.000 A 
ENDBRANCH  15  16
ENDBRANCH   9  15
TORSDOF 4
ENDMDL
MODEL 8
REMARK VINA RESULT:      -6.9      3.591      5.733
REMARK  Name = 
REMARK  4 active torsions:
REMARK  status: ('A' for Active; 'I' for Inactive)
REMARK    1  A    between atoms: N_1  and  C_2
REMARK    2  A    between atoms: C_9  and  O_10
REMARK    3  A    between atoms: N_11  and  C_12
REMARK    4  A    between atoms: C_12  and  C_13
REMARK                            x       y       z     vdW  Elec       q    Type
REMARK                         _______ _______ _______ _____ _____    ______ ____
ROOT
ATOM      1  C   UNL     1       7.606   7.009  17.612  0.00  0.00    +0.000 A 
ATOM      2  N   UNL     1       7.913   6.695  18.889  0.00  0.00    +0.000 NA
ATOM      3  C   UNL     1       7.529   5.489  19.364  0.00  0.00    +0.000 A 
ATOM      4  N   UNL     1       6.858   4.510  18.725  0.00  0.00    +0.000 NA
ATOM      5  C   UNL     1       6.599   4.860  17.453  0.00  0.00    +0.000 A 
ATOM      6  C   UNL     1       6.937   6.054  16.828  0.00  0.00    +0.000 A 
ATOM      7  N   UNL     1       6.510   6.066  15.513  0.00  0.00    +0.000 NA
ATOM      8  C   UNL     1       5.899   4.918  15.373  0.00  0.00    +0.000 A 
ATOM      9  N   UNL     1       5.917   4.147  16.502  0.00  0.00    +0.000 N 
ENDROOT
BRANCH   1  10
ATOM     10  N   UNL     1       7.967   8.265  17.140  0.00  0.00    +0.000 N 
ATOM     11  H   UNL     1       7.786   8.369  16.150  0.00  0.00    +0.000 HD
ATOM     12  H   UNL     1       7.705   9.026  17.753  0.00  0.00    +0.000 HD
ENDBRANCH   1  10
BRANCH   8  13
ATOM     13  O   UNL     1       5.299   4.578  14.249  0.00  0.00    +0.000 OA
ATOM     14  H   UNL     1       5.490   3.623  14.202  0.00  0.00    +0.000 HD
ENDBRANCH   8  13
BRANCH   9  15
ATOM     15  C   UNL     1       5.161   2.933  16.720  0.00  0.00    +0.000 C 
BRANCH  15  16
ATOM     16  C   UNL     1       3.961   3.125  17.614  0.00  0.00    +0.000 A 
ATOM     17  C   UNL     1       3.809   2.355  18.776  0.00  0.00    +0.000 A 
ATOM     18  C   UNL     1       2.756   2.606  19.661  0.00  0.00    +0.000 A 
ATOM     19  C   UNL     1       1.842   3.619  19.381  0.00  0.00    +0.000 A 
ATOM     20 CL   UNL     1       0.575   3.961  20.496  0.00  0.00    +0.000 Cl
ATOM     21  C   UNL     1       1.956   4.367  18.213  0.00  0.00    +0.000 A 
ATOM     22  C   UNL     1       3.009   4.118  17.328  0.00  0.00    +0.000 A 
ENDBRANCH  15  16
ENDBRANCH   9  15
TORSDOF 4
ENDMDL
MODEL 9
REMARK VINA RESULT:      -6.9      3.215      4.648
REMARK  Name = 
REMARK  4 active torsions:
REMARK  status: ('A' for Active; 'I' for Inactive)
REMARK    1  A    between atoms: N_1  and  C_2
REMARK    2  A    between atoms: C_9  and  O_10
REMARK    3  A    between atoms: N_11  and  C_12
REMARK    4  A    between atoms: C_12  and  C_13
REMARK                            x       y       z     vdW  Elec       q    Type
REMARK                         _______ _______ _______ _____ _____    ______ ____
ROOT
ATOM      1  C   UNL     1       4.238   2.377  19.284  0.00  0.00    +0.000 A 
ATOM      2  N   UNL     1       3.033   1.942  18.856  0.00  0.00    +0.000 NA
ATOM      3  C   UNL     1       2.302   2.756  18.063  0.00  0.00    +0.000 A 
ATOM      4  N   UNL     1       2.609   3.991  17.614  0.00  0.00    +0.000 NA
ATOM      5  C   UNL     1       3.825   4.366  18.047  0.00  0.00    +0.000 A 
ATOM      6  C   UNL     1       4.689   3.637  18.855  0.00  0.00    +0.000 A 
ATOM      7  N   UNL     1       5.855   4.339  19.098  0.00  0.00    +0.000 NA
ATOM      8  C   UNL     1       5.670   5.475  18.477  0.00  0.00    +0.000 A 
ATOM      9  N   UNL     1       4.471   5.554  17.827  0.00  0.00    +0.000 N 
ENDROOT
BRANCH   1  10
ATOM     10  N   UNL     1       4.970   1.554  20.131  0.00  0.00    +0.000 N 
ATOM     11  H   UNL     1       5.317   2.050  20.942  0.00  0.00    +0.000 HD
ATOM     12  H   UNL     1       4.557   0.640  20.274  0.00  0.00    +0.000 HD
ENDBRANCH   1  10
BRANCH   8  13
ATOM     13  O   UNL     1       6.559   6.448  18.523  0.00  0.00    +0.000 OA
ATOM     14  H   UNL     1       6.577   6.744  17.594  0.00  0.00    +0.000 HD
ENDBRANCH   8  13
BRANCH   9  15
ATOM     15  C   UNL     1       3.899   6.742  17.232  0.00  0.00    +0.000 C 
BRANCH  15  16
ATOM     16  C   UNL     1       2.911   7.447  18.128  0.00  0.00    +0.000 A 
ATOM     17  C   UNL     1       2.679   6.986  19.432  0.00  0.00    +0.000 A 
ATOM     18  C   UNL     1       1.847   7.700  20.300  0.00  0.00    +0.000 A 
ATOM     19  C   UNL     1       1.231   8.871  19.863  0.00  0.00    +0.000 A 
ATOM     20 CL   UNL     1       0.248   9.777  20.947  0.00  0.00    +0.000 Cl
ATOM     21  C   UNL     1       1.420   9.322  18.559  0.00  0.00    +0.000 A 
ATOM     22  C   UNL     1       2.253   8.609  17.692  0.00  0.00    +0.000 A 
ENDBRANCH  15  16
ENDBRANCH   9  15
TORSDOF 4
ENDMDL
