MODEL 1
REMARK VINA RESULT:      -7.7      0.000      0.000
REMARK  Name = 
REMARK  6 active torsions:
REMARK  status: ('A' for Active; 'I' for Inactive)
REMARK    1  A    between atoms: C_1  and  N_2
REMARK    2  A    between atoms: N_2  and  C_3
REMARK    3  A    between atoms: N_2  and  C_7
REMARK    4  A    between atoms: C_3  and  C_4
REMARK    5  A    between atoms: C_7  and  C_8
REMARK    6  A    between atoms: C_12  and  C_13
REMARK                            x       y       z     vdW  Elec       q    Type
REMARK                         _______ _______ _______ _____ _____    ______ ____
ROOT
ATOM      1  C   UNL     1       3.164   4.616  17.529  0.00  0.00    +0.000 A 
ATOM      2  C   UNL     1       4.399   4.875  16.918  0.00  0.00    +0.000 A 
ATOM      3  C   UNL     1       4.862   6.179  16.801  0.00  0.00    +0.000 A 
ATOM      4  C   UNL     1       4.106   7.241  17.311  0.00  0.00    +0.000 A 
ATOM      5  C   UNL     1       2.871   7.017  17.946  0.00  0.00    +0.000 A 
ATOM      6  C   UNL     1       2.401   5.696  18.012  0.00  0.00    +0.000 A 
ENDROOT
BRANCH   5   7
ATOM      7  C   UNL     1       2.150   8.109  18.630  0.00  0.00    +0.000 A 
ATOM      8  C   UNL     1       1.874   9.305  17.966  0.00  0.00    +0.000 A 
ATOM      9  C   UNL     1       1.274  10.361  18.643  0.00  0.00    +0.000 A 
ATOM     10  C   UNL     1       0.933  10.230  19.987  0.00  0.00    +0.000 A 
ATOM     11  N   UNL     1       0.288  11.299  20.594  0.00  0.00    +0.000 N 
ATOM     12  C   UNL     1      -0.519  11.033  21.788  0.00  0.00    +0.000 C 
ATOM     13  C   UNL     1      -1.504  12.214  21.927  0.00  0.00    +0.000 C 
ATOM     14  O   UNL     1      -0.813  13.476  22.034  0.00  0.00    +0.000 OA
ATOM     15  C   UNL     1       0.040  13.693  20.893  0.00  0.00    +0.000 C 
ATOM     16  C   UNL     1       1.054  12.549  20.721  0.00  0.00    +0.000 C 
ATOM     17  N   UNL     1       1.154   9.082  20.647  0.00  0.00    +0.000 NA
ATOM     18  C   UNL     1       1.759   8.066  19.969  0.00  0.00    +0.000 A 
ENDBRANCH   5   7
BRANCH   1  19
ATOM     19  C   UNL     1       2.708   3.195  17.775  0.00  0.00    +0.000 C 
BRANCH  19  21
ATOM     20  C   UNL     1       0.749   2.065  18.662  0.00  0.00    +0.000 C 
ATOM     21  N   UNL     1       1.798   3.061  18.941  0.00  0.00    +0.000 NA
BRANCH  21  22
ATOM     22  C   UNL     1       2.618   2.633  20.113  0.00  0.00    +0.000 C 
BRANCH  22  23
ATOM     23  C   UNL     1       2.218   3.352  21.403  0.00  0.00    +0.000 C 
ATOM     24  N   UNL     1       2.436   4.701  21.416  0.00  0.00    +0.000 N 
ATOM     25  O   UNL     1       1.780   2.769  22.391  0.00  0.00    +0.000 OA
ATOM     26  H   UNL     1       2.543   5.167  20.522  0.00  0.00    +0.000 HD
ATOM     27  H   UNL     1       2.064   5.218  22.200  0.00  0.00    +0.000 HD
ENDBRANCH  22  23
ENDBRANCH  21  22
ENDBRANCH  19  21
ENDBRANCH   1  19
TORSDOF 5
ENDMDL
MODEL 2
REMARK VINA RESULT:      -7.7      3.043      4.073
REMARK  Name = 
REMARK  6 active torsions:
REMARK  status: ('A' for Active; 'I' for Inactive)
REMARK    1  A    between atoms: C_1  and  N_2
REMARK    2  A    between atoms: N_2  and  C_3
REMARK    3  A    between atoms: N_2  and  C_7
REMARK    4  A    between atoms: C_3  and  C_4
REMARK    5  A    between atoms: C_7  and  C_8
REMARK    6  A    between atoms: C_12  and  C_13
REMARK                            x       y       z     vdW  Elec       q    Type
REMARK                         _______ _______ _______ _____ _____    ______ ____
ROOT
ATOM      1  C   UNL     1       4.495   4.647  18.608  0.00  0.00    +0.000 A 
ATOM      2  C   UNL     1       3.716   3.677  17.963  0.00  0.00    +0.000 A 
ATOM      3  C   UNL     1       2.388   3.938  17.650  0.00  0.00    +0.000 A 
ATOM      4  C   UNL     1       1.826   5.181  17.962  0.00  0.00    +0.000 A 
ATOM      5  C   UNL     1       2.581   6.185  18.594  0.00  0.00    +0.000 A 
ATOM      6  C   UNL     1       3.907   5.883  18.942  0.00  0.00    +0.000 A 
ENDROOT
BRANCH   5   7
ATOM      7  C   UNL     1       2.046   7.549  18.776  0.00  0.00    +0.000 A 
ATOM      8  C   UNL     1       2.074   8.470  17.729  0.00  0.00    +0.000 A 
ATOM      9  C   UNL     1       1.651   9.778  17.934  0.00  0.00    +0.000 A 
ATOM     10  C   UNL     1       1.185  10.178  19.184  0.00  0.00    +0.000 A 
ATOM     11  N   UNL     1       0.727  11.483  19.312  0.00  0.00    +0.000 N 
ATOM     12  C   UNL     1      -0.209  11.783  20.400  0.00  0.00    +0.000 C 
ATOM     13  C   UNL     1      -0.939  13.084  20.006  0.00  0.00    +0.000 C 
ATOM     14  O   UNL     1      -0.016  14.173  19.796  0.00  0.00    +0.000 OA
ATOM     15  C   UNL     1       0.951  13.839  18.780  0.00  0.00    +0.000 C 
ATOM     16  C   UNL     1       1.719  12.554  19.135  0.00  0.00    +0.000 C 
ATOM     17  N   UNL     1       1.115   9.310  20.205  0.00  0.00    +0.000 NA
ATOM     18  C   UNL     1       1.552   8.037  19.987  0.00  0.00    +0.000 A 
ENDBRANCH   5   7
BRANCH   1  19
ATOM     19  C   UNL     1       5.972   4.423  18.840  0.00  0.00    +0.000 C 
BRANCH  19  21
ATOM     20  C   UNL     1       7.794   6.029  18.910  0.00  0.00    +0.000 C 
ATOM     21  N   UNL     1       6.839   5.323  18.037  0.00  0.00    +0.000 NA
BRANCH  21  22
ATOM     22  C   UNL     1       7.571   4.484  17.043  0.00  0.00    +0.000 C 
BRANCH  22  23
ATOM     23  C   UNL     1       7.058   4.685  15.615  0.00  0.00    +0.000 C 
ATOM     24  N   UNL     1       6.052   3.845  15.229  0.00  0.00    +0.000 N 
ATOM     25  O   UNL     1       7.539   5.502  14.835  0.00  0.00    +0.000 OA
ATOM     26  H   UNL     1       5.520   3.383  15.958  0.00  0.00    +0.000 HD
ATOM     27  H   UNL     1       5.608   4.038  14.343  0.00  0.00    +0.000 HD
ENDBRANCH  22  23
ENDBRANCH  21  22
ENDBRANCH  19  21
ENDBRANCH   1  19
TORSDOF 5
ENDMDL
MODEL 3
REMARK VINA RESULT:      -7.6      1.312      1.546
REMARK  Name = 
REMARK  6 active torsions:
REMARK  status: ('A' for Active; 'I' for Inactive)
REMARK    1  A    between atoms: C_1  and  N_2
REMARK    2  A    between atoms: N_2  and  C_3
REMARK    3  A    between atoms: N_2  and  C_7
REMARK    4  A    between atoms: C_3  and  C_4
REMARK    5  A    between atoms: C_7  and  C_8
REMARK    6  A    between atoms: C_12  and  C_13
REMARK                            x       y       z     vdW  Elec       q    Type
REMARK                         _______ _______ _______ _____ _____    ______ ____
ROOT
ATOM      1  C   UNL     1       3.555   5.443  18.702  0.00  0.00    +0.000 A 
ATOM      2  C   UNL     1       4.266   5.900  17.583  0.00  0.00    +0.000 A 
ATOM      3  C   UNL     1       4.047   7.180  17.089  0.00  0.00    +0.000 A 
ATOM      4  C   UNL     1       3.128   8.027  17.718  0.00  0.00    +0.000 A 
ATOM      5  C   UNL     1       2.408   7.609  18.852  0.00  0.00    +0.000 A 
ATOM      6  C   UNL     1       2.612   6.296  19.306  0.00  0.00    +0.000 A 
ENDROOT
BRANCH   5   7
ATOM      7  C   UNL     1       1.563   8.548  19.616  0.00  0.00    +0.000 A 
ATOM      8  C   UNL     1       0.988   9.655  18.992  0.00  0.00    +0.000 A 
ATOM      9  C   UNL     1       0.268  10.584  19.736  0.00  0.00    +0.000 A 
ATOM     10  C   UNL     1       0.105  10.410  21.109  0.00  0.00    +0.000 A 
ATOM     11  N   UNL     1      -0.670  11.341  21.787  0.00  0.00    +0.000 N 
ATOM     12  C   UNL     1      -1.276  10.940  23.060  0.00  0.00    +0.000 C 
ATOM     13  C   UNL     1      -2.453  11.907  23.311  0.00  0.00    +0.000 C 
ATOM     14  O   UNL     1      -2.017  13.282  23.349  0.00  0.00    +0.000 OA
ATOM     15  C   UNL     1      -1.351  13.645  22.124  0.00  0.00    +0.000 C 
ATOM     16  C   UNL     1      -0.156  12.719  21.837  0.00  0.00    +0.000 C 
ATOM     17  N   UNL     1       0.617   9.339  21.734  0.00  0.00    +0.000 NA
ATOM     18  C   UNL     1       1.335   8.451  20.989  0.00  0.00    +0.000 A 
ENDBRANCH   5   7
BRANCH   1  19
ATOM     19  C   UNL     1       3.873   4.102  19.324  0.00  0.00    +0.000 C 
BRANCH  19  21
ATOM     20  C   UNL     1       3.528   2.198  17.855  0.00  0.00    +0.000 C 
ATOM     21  N   UNL     1       2.933   3.026  18.919  0.00  0.00    +0.000 NA
BRANCH  21  22
ATOM     22  C   UNL     1       2.649   2.192  20.124  0.00  0.00    +0.000 C 
BRANCH  22  23
ATOM     23  C   UNL     1       1.622   2.838  21.056  0.00  0.00    +0.000 C 
ATOM     24  N   UNL     1       0.522   3.367  20.443  0.00  0.00    +0.000 N 
ATOM     25  O   UNL     1       1.780   2.934  22.270  0.00  0.00    +0.000 OA
ATOM     26  H   UNL     1       0.306   3.043  19.506  0.00  0.00    +0.000 HD
ATOM     27  H   UNL     1      -0.229   3.682  21.040  0.00  0.00    +0.000 HD
ENDBRANCH  22  23
ENDBRANCH  21  22
ENDBRANCH  19  21
ENDBRANCH   1  19
TORSDOF 5
ENDMDL
MODEL 4
REMARK VINA RESULT:      -7.6      2.784      3.702
REMARK  Name = 
REMARK  6 active torsions:
REMARK  status: ('A' for Active; 'I' for Inactive)
REMARK    1  A    between atoms: C_1  and  N_2
REMARK    2  A    between atoms: N_2  and  C_3
REMARK    3  A    between atoms: N_2  and  C_7
REMARK    4  A    between atoms: C_3  and  C_4
REMARK    5  A    between atoms: C_7  and  C_8
REMARK    6  A    between atoms: C_12  and  C_13
REMARK                            x       y       z     vdW  Elec       q    Type
REMARK                         _______ _______ _______ _____ _____    ______ ____
ROOT
ATOM      1  C   UNL     1       4.351   4.721  17.369  0.00  0.00    +0.000 A 
ATOM      2  C   UNL     1       4.328   3.759  18.388  0.00  0.00    +0.000 A 
ATOM      3  C   UNL     1       3.703   4.035  19.598  0.00  0.00    +0.000 A 
ATOM      4  C   UNL     1       3.075   5.270  19.798  0.00  0.00    +0.000 A 
ATOM      5  C   UNL     1       3.064   6.253  18.792  0.00  0.00    +0.000 A 
ATOM      6  C   UNL     1       3.741   5.970  17.595  0.00  0.00    +0.000 A 
ENDROOT
BRANCH   5   7
ATOM      7  C   UNL     1       2.267   7.488  18.933  0.00  0.00    +0.000 A 
ATOM      8  C   UNL     1       2.049   8.323  17.838  0.00  0.00    +0.000 A 
ATOM      9  C   UNL     1       1.374   9.529  17.998  0.00  0.00    +0.000 A 
ATOM     10  C   UNL     1       0.899   9.906  19.252  0.00  0.00    +0.000 A 
ATOM     11  N   UNL     1       0.186  11.095  19.338  0.00  0.00    +0.000 N 
ATOM     12  C   UNL     1      -0.735  11.268  20.464  0.00  0.00    +0.000 C 
ATOM     13  C   UNL     1      -1.739  12.364  20.047  0.00  0.00    +0.000 C 
ATOM     14  O   UNL     1      -1.074  13.602  19.720  0.00  0.00    +0.000 OA
ATOM     15  C   UNL     1      -0.112  13.406  18.666  0.00  0.00    +0.000 C 
ATOM     16  C   UNL     1       0.924  12.333  19.041  0.00  0.00    +0.000 C 
ATOM     17  N   UNL     1       1.063   9.111  20.320  0.00  0.00    +0.000 NA
ATOM     18  C   UNL     1       1.743   7.943  20.144  0.00  0.00    +0.000 A 
ENDBRANCH   5   7
BRANCH   1  19
ATOM     19  C   UNL     1       4.916   4.389  16.006  0.00  0.00    +0.000 C 
BRANCH  19  21
ATOM     20  C   UNL     1       6.870   4.359  14.562  0.00  0.00    +0.000 C 
ATOM     21  N   UNL     1       6.400   4.435  15.957  0.00  0.00    +0.000 NA
BRANCH  21  22
ATOM     22  C   UNL     1       6.837   5.720  16.579  0.00  0.00    +0.000 C 
BRANCH  22  23
ATOM     23  C   UNL     1       7.587   5.508  17.896  0.00  0.00    +0.000 C 
ATOM     24  N   UNL     1       7.898   6.647  18.585  0.00  0.00    +0.000 N 
ATOM     25  O   UNL     1       7.941   4.404  18.300  0.00  0.00    +0.000 OA
ATOM     26  H   UNL     1       7.375   7.486  18.364  0.00  0.00    +0.000 HD
ATOM     27  H   UNL     1       8.275   6.532  19.514  0.00  0.00    +0.000 HD
ENDBRANCH  22  23
ENDBRANCH  21  22
ENDBRANCH  19  21
ENDBRANCH   1  19
TORSDOF 5
ENDMDL
MODEL 5
REMARK VINA RESULT:      -7.5      1.040      1.071
REMARK  Name = 
REMARK  6 active torsions:
REMARK  status: ('A' for Active; 'I' for Inactive)
REMARK    1  A    between atoms: C_1  and  N_2
REMARK    2  A    between atoms: N_2  and  C_3
REMARK    3  A    between atoms: N_2  and  C_7
REMARK    4  A    between atoms: C_3  and  C_4
REMARK    5  A    between atoms: C_7  and  C_8
REMARK    6  A    between atoms: C_12  and  C_13
REMARK                            x       y       z     vdW  Elec       q    Type
REMARK                         _______ _______ _______ _____ _____    ______ ____
ROOT
ATOM      1  C   UNL     1       4.142   4.897  18.410  0.00  0.00    +0.000 A 
ATOM      2  C   UNL     1       4.943   5.151  17.288  0.00  0.00    +0.000 A 
ATOM      3  C   UNL     1       4.807   6.343  16.587  0.00  0.00    +0.000 A 
ATOM      4  C   UNL     1       3.882   7.304  17.009  0.00  0.00    +0.000 A 
ATOM      5  C   UNL     1       3.073   7.090  18.139  0.00  0.00    +0.000 A 
ATOM      6  C   UNL     1       3.195   5.861  18.806  0.00  0.00    +0.000 A 
ENDROOT
BRANCH   5   7
ATOM      7  C   UNL     1       2.216   8.162  18.685  0.00  0.00    +0.000 A 
ATOM      8  C   UNL     1       1.839   9.245  17.891  0.00  0.00    +0.000 A 
ATOM      9  C   UNL     1       1.107  10.294  18.437  0.00  0.00    +0.000 A 
ATOM     10  C   UNL     1       0.734  10.266  19.779  0.00  0.00    +0.000 A 
ATOM     11  N   UNL     1      -0.042  11.316  20.252  0.00  0.00    +0.000 N 
ATOM     12  C   UNL     1      -0.858  11.088  21.448  0.00  0.00    +0.000 C 
ATOM     13  C   UNL     1      -1.966  12.162  21.436  0.00  0.00    +0.000 C 
ATOM     14  O   UNL     1      -1.417  13.497  21.425  0.00  0.00    +0.000 OA
ATOM     15  C   UNL     1      -0.552  13.687  20.288  0.00  0.00    +0.000 C 
ATOM     16  C   UNL     1       0.583  12.648  20.263  0.00  0.00    +0.000 C 
ATOM     17  N   UNL     1       1.052   9.224  20.563  0.00  0.00    +0.000 NA
ATOM     18  C   UNL     1       1.785   8.215  20.011  0.00  0.00    +0.000 A 
ENDBRANCH   5   7
BRANCH   1  19
ATOM     19  C   UNL     1       4.366   3.662  19.255  0.00  0.00    +0.000 C 
BRANCH  19  21
ATOM     20  C   UNL     1       3.366   1.585  18.490  0.00  0.00    +0.000 C 
ATOM     21  N   UNL     1       3.176   2.777  19.334  0.00  0.00    +0.000 NA
BRANCH  21  22
ATOM     22  C   UNL     1       3.000   2.376  20.761  0.00  0.00    +0.000 C 
BRANCH  22  23
ATOM     23  C   UNL     1       1.608   2.716  21.298  0.00  0.00    +0.000 C 
ATOM     24  N   UNL     1       0.781   3.361  20.422  0.00  0.00    +0.000 N 
ATOM     25  O   UNL     1       1.255   2.482  22.451  0.00  0.00    +0.000 OA
ATOM     26  H   UNL     1       1.003   3.299  19.435  0.00  0.00    +0.000 HD
ATOM     27  H   UNL     1      -0.182   3.481  20.704  0.00  0.00    +0.000 HD
ENDBRANCH  22  23
ENDBRANCH  21  22
ENDBRANCH  19  21
ENDBRANCH   1  19
TORSDOF 5
ENDMDL
MODEL 6
REMARK VINA RESULT:      -7.5      1.203      1.277
REMARK  Name = 
REMARK  6 active torsions:
REMARK  status: ('A' for Active; 'I' for Inactive)
REMARK    1  A    between atoms: C_1  and  N_2
REMARK    2  A    between atoms: N_2  and  C_3
REMARK    3  A    between atoms: N_2  and  C_7
REMARK    4  A    between atoms: C_3  and  C_4
REMARK    5  A    between atoms: C_7  and  C_8
REMARK    6  A    between atoms: C_12  and  C_13
REMARK                            x       y       z     vdW  Elec       q    Type
REMARK                         _______ _______ _______ _____ _____    ______ ____
ROOT
ATOM      1  C   UNL     1       3.157   4.703  17.328  0.00  0.00    +0.000 A 
ATOM      2  C   UNL     1       4.375   5.090  16.751  0.00  0.00    +0.000 A 
ATOM      3  C   UNL     1       4.792   6.413  16.817  0.00  0.00    +0.000 A 
ATOM      4  C   UNL     1       4.008   7.364  17.478  0.00  0.00    +0.000 A 
ATOM      5  C   UNL     1       2.788   7.010  18.084  0.00  0.00    +0.000 A 
ATOM      6  C   UNL     1       2.364   5.677  17.965  0.00  0.00    +0.000 A 
ENDROOT
BRANCH   5   7
ATOM      7  C   UNL     1       2.039   7.967  18.921  0.00  0.00    +0.000 A 
ATOM      8  C   UNL     1       1.498   9.127  18.365  0.00  0.00    +0.000 A 
ATOM      9  C   UNL     1       0.872  10.067  19.175  0.00  0.00    +0.000 A 
ATOM     10  C   UNL     1       0.768   9.854  20.548  0.00  0.00    +0.000 A 
ATOM     11  N   UNL     1       0.084  10.803  21.296  0.00  0.00    +0.000 N 
ATOM     12  C   UNL     1      -0.479  10.391  22.585  0.00  0.00    +0.000 C 
ATOM     13  C   UNL     1      -1.585  11.413  22.929  0.00  0.00    +0.000 C 
ATOM     14  O   UNL     1      -1.068  12.759  22.989  0.00  0.00    +0.000 OA
ATOM     15  C   UNL     1      -0.444  13.127  21.744  0.00  0.00    +0.000 C 
ATOM     16  C   UNL     1       0.679  12.147  21.364  0.00  0.00    +0.000 C 
ATOM     17  N   UNL     1       1.248   8.734  21.111  0.00  0.00    +0.000 NA
ATOM     18  C   UNL     1       1.874   7.834  20.300  0.00  0.00    +0.000 A 
ENDBRANCH   5   7
BRANCH   1  19
ATOM     19  C   UNL     1       2.752   3.247  17.373  0.00  0.00    +0.000 C 
BRANCH  19  21
ATOM     20  C   UNL     1       1.052   2.199  18.756  0.00  0.00    +0.000 C 
ATOM     21  N   UNL     1       2.410   2.772  18.737  0.00  0.00    +0.000 NA
BRANCH  21  22
ATOM     22  C   UNL     1       3.412   1.735  19.124  0.00  0.00    +0.000 C 
BRANCH  22  23
ATOM     23  C   UNL     1       4.013   1.987  20.509  0.00  0.00    +0.000 C 
ATOM     24  N   UNL     1       5.276   1.502  20.699  0.00  0.00    +0.000 N 
ATOM     25  O   UNL     1       3.400   2.539  21.419  0.00  0.00    +0.000 OA
ATOM     26  H   UNL     1       5.829   1.298  19.874  0.00  0.00    +0.000 HD
ATOM     27  H   UNL     1       5.745   1.765  21.553  0.00  0.00    +0.000 HD
ENDBRANCH  22  23
ENDBRANCH  21  22
ENDBRANCH  19  21
ENDBRANCH   1  19
TORSDOF 5
ENDMDL
MODEL 7
REMARK VINA RESULT:      -7.5      2.978      4.268
REMARK  Name = 
REMARK  6 active torsions:
REMARK  status: ('A' for Active; 'I' for Inactive)
REMARK    1  A    between atoms: C_1  and  N_2
REMARK    2  A    between atoms: N_2  and  C_3
REMARK    3  A    between atoms: N_2  and  C_7
REMARK    4  A    between atoms: C_3  and  C_4
REMARK    5  A    between atoms: C_7  and  C_8
REMARK    6  A    between atoms: C_12  and  C_13
REMARK                            x       y       z     vdW  Elec       q    Type
REMARK                         _______ _______ _______ _____ _____    ______ ____
ROOT
ATOM      1  C   UNL     1       3.897   4.253  19.526  0.00  0.00    +0.000 A 
ATOM      2  C   UNL     1       2.996   3.287  19.997  0.00  0.00    +0.000 A 
ATOM      3  C   UNL     1       1.770   3.671  20.525  0.00  0.00    +0.000 A 
ATOM      4  C   UNL     1       1.419   5.025  20.572  0.00  0.00    +0.000 A 
ATOM      5  C   UNL     1       2.291   6.021  20.093  0.00  0.00    +0.000 A 
ATOM      6  C   UNL     1       3.542   5.613  19.607  0.00  0.00    +0.000 A 
ENDROOT
BRANCH   5   7
ATOM      7  C   UNL     1       1.863   7.430  19.988  0.00  0.00    +0.000 A 
ATOM      8  C   UNL     1       1.207   8.056  21.048  0.00  0.00    +0.000 A 
ATOM      9  C   UNL     1       0.729   9.354  20.909  0.00  0.00    +0.000 A 
ATOM     10  C   UNL     1       0.911  10.045  19.713  0.00  0.00    +0.000 A 
ATOM     11  N   UNL     1       0.459  11.357  19.653  0.00  0.00    +0.000 N 
ATOM     12  C   UNL     1       1.060  12.250  18.659  0.00  0.00    +0.000 C 
ATOM     13  C   UNL     1       0.792  13.691  19.144  0.00  0.00    +0.000 C 
ATOM     14  O   UNL     1      -0.620  13.951  19.294  0.00  0.00    +0.000 OA
ATOM     15  C   UNL     1      -1.219  13.016  20.213  0.00  0.00    +0.000 C 
ATOM     16  C   UNL     1      -0.994  11.562  19.764  0.00  0.00    +0.000 C 
ATOM     17  N   UNL     1       1.566   9.485  18.684  0.00  0.00    +0.000 NA
ATOM     18  C   UNL     1       2.011   8.205  18.837  0.00  0.00    +0.000 A 
ENDBRANCH   5   7
BRANCH   1  19
ATOM     19  C   UNL     1       5.178   3.841  18.836  0.00  0.00    +0.000 C 
BRANCH  19  21
ATOM     20  C   UNL     1       7.078   5.320  18.512  0.00  0.00    +0.000 C 
ATOM     21  N   UNL     1       5.761   4.913  17.990  0.00  0.00    +0.000 NA
BRANCH  21  22
ATOM     22  C   UNL     1       5.900   4.375  16.604  0.00  0.00    +0.000 C 
BRANCH  22  23
ATOM     23  C   UNL     1       6.384   5.434  15.610  0.00  0.00    +0.000 C 
ATOM     24  N   UNL     1       5.489   6.426  15.325  0.00  0.00    +0.000 N 
ATOM     25  O   UNL     1       7.477   5.385  15.053  0.00  0.00    +0.000 OA
ATOM     26  H   UNL     1       4.731   6.575  15.981  0.00  0.00    +0.000 HD
ATOM     27  H   UNL     1       5.826   7.204  14.776  0.00  0.00    +0.000 HD
ENDBRANCH  22  23
ENDBRANCH  21  22
ENDBRANCH  19  21
ENDBRANCH   1  19
TORSDOF 5
ENDMDL
MODEL 8
REMARK VINA RESULT:      -7.4      3.119      4.269
REMARK  Name = 
REMARK  6 active torsions:
REMARK  status: ('A' for Active; 'I' for Inactive)
REMARK    1  A    between atoms: C_1  and  N_2
REMARK    2  A    between atoms: N_2  and  C_3
REMARK    3  A    between atoms: N_2  and  C_7
REMARK    4  A    between atoms: C_3  and  C_4
REMARK    5  A    between atoms: C_7  and  C_8
REMARK    6  A    between atoms: C_12  and  C_13
REMARK                            x       y       z     vdW  Elec       q    Type
REMARK                         _______ _______ _______ _____ _____    ______ ____
ROOT
ATOM      1  C   UNL     1       4.360   4.702  18.622  0.00  0.00    +0.000 A 
ATOM      2  C   UNL     1       3.492   3.777  18.025  0.00  0.00    +0.000 A 
ATOM      3  C   UNL     1       2.185   4.137  17.722  0.00  0.00    +0.000 A 
ATOM      4  C   UNL     1       1.733   5.433  17.995  0.00  0.00    +0.000 A 
ATOM      5  C   UNL     1       2.581   6.393  18.578  0.00  0.00    +0.000 A 
ATOM      6  C   UNL     1       3.883   5.993  18.917  0.00  0.00    +0.000 A 
ENDROOT
BRANCH   5   7
ATOM      7  C   UNL     1       2.165   7.803  18.717  0.00  0.00    +0.000 A 
ATOM      8  C   UNL     1       1.468   8.231  19.846  0.00  0.00    +0.000 A 
ATOM      9  C   UNL     1       1.001   9.538  19.929  0.00  0.00    +0.000 A 
ATOM     10  C   UNL     1       1.237  10.435  18.889  0.00  0.00    +0.000 A 
ATOM     11  N   UNL     1       0.793  11.741  19.054  0.00  0.00    +0.000 N 
ATOM     12  C   UNL     1       1.440  12.795  18.267  0.00  0.00    +0.000 C 
ATOM     13  C   UNL     1       1.158  14.125  18.997  0.00  0.00    +0.000 C 
ATOM     14  O   UNL     1      -0.257  14.370  19.135  0.00  0.00    +0.000 OA
ATOM     15  C   UNL     1      -0.899  13.290  19.841  0.00  0.00    +0.000 C 
ATOM     16  C   UNL     1      -0.662  11.940  19.142  0.00  0.00    +0.000 C 
ATOM     17  N   UNL     1       1.932  10.065  17.803  0.00  0.00    +0.000 NA
ATOM     18  C   UNL     1       2.364   8.774  17.735  0.00  0.00    +0.000 A 
ENDBRANCH   5   7
BRANCH   1  19
ATOM     19  C   UNL     1       5.817   4.363  18.840  0.00  0.00    +0.000 C 
BRANCH  19  21
ATOM     20  C   UNL     1       7.848   5.680  19.049  0.00  0.00    +0.000 C 
ATOM     21  N   UNL     1       6.748   5.291  18.149  0.00  0.00    +0.000 NA
BRANCH  21  22
ATOM     22  C   UNL     1       7.289   4.585  16.950  0.00  0.00    +0.000 C 
BRANCH  22  23
ATOM     23  C   UNL     1       6.739   5.151  15.639  0.00  0.00    +0.000 C 
ATOM     24  N   UNL     1       7.668   5.395  14.667  0.00  0.00    +0.000 N 
ATOM     25  O   UNL     1       5.554   5.426  15.468  0.00  0.00    +0.000 OA
ATOM     26  H   UNL     1       8.562   4.923  14.745  0.00  0.00    +0.000 HD
ATOM     27  H   UNL     1       7.321   5.644  13.752  0.00  0.00    +0.000 HD
ENDBRANCH  22  23
ENDBRANCH  21  22
ENDBRANCH  19  21
ENDBRANCH   1  19
TORSDOF 5
ENDMDL
MODEL 9
REMARK VINA RESULT:      -7.4      1.003      1.186
REMARK  Name = 
REMARK  6 active torsions:
REMARK  status: ('A' for Active; 'I' for Inactive)
REMARK    1  A    between atoms: C_1  and  N_2
REMARK    2  A    between atoms: N_2  and  C_3
REMARK    3  A    between atoms: N_2  and  C_7
REMARK    4  A    between atoms: C_3  and  C_4
REMARK    5  A    between atoms: C_7  and  C_8
REMARK    6  A    between atoms: C_12  and  C_13
REMARK                            x       y       z     vdW  Elec       q    Type
REMARK                         _______ _______ _______ _____ _____    ______ ____
ROOT
ATOM      1  C   UNL     1       3.334   3.999  17.422  0.00  0.00    +0.000 A 
ATOM      2  C   UNL     1       4.603   4.235  16.874  0.00  0.00    +0.000 A 
ATOM      3  C   UNL     1       5.103   5.528  16.796  0.00  0.00    +0.000 A 
ATOM      4  C   UNL     1       4.349   6.602  17.282  0.00  0.00    +0.000 A 
ATOM      5  C   UNL     1       3.079   6.403  17.853  0.00  0.00    +0.000 A 
ATOM      6  C   UNL     1       2.575   5.093  17.880  0.00  0.00    +0.000 A 
ENDROOT
BRANCH   5   7
ATOM      7  C   UNL     1       2.352   7.504  18.514  0.00  0.00    +0.000 A 
ATOM      8  C   UNL     1       2.018   8.661  17.809  0.00  0.00    +0.000 A 
ATOM      9  C   UNL     1       1.413   9.730  18.460  0.00  0.00    +0.000 A 
ATOM     10  C   UNL     1       1.124   9.651  19.820  0.00  0.00    +0.000 A 
ATOM     11  N   UNL     1       0.471  10.729  20.402  0.00  0.00    +0.000 N 
ATOM     12  C   UNL     1      -0.284  10.495  21.636  0.00  0.00    +0.000 C 
ATOM     13  C   UNL     1      -1.297  11.654  21.759  0.00  0.00    +0.000 C 
ATOM     14  O   UNL     1      -0.639  12.938  21.784  0.00  0.00    +0.000 OA
ATOM     15  C   UNL     1       0.166  13.127  20.604  0.00  0.00    +0.000 C 
ATOM     16  C   UNL     1       1.205  12.003  20.445  0.00  0.00    +0.000 C 
ATOM     17  N   UNL     1       1.402   8.541  20.522  0.00  0.00    +0.000 NA
ATOM     18  C   UNL     1       2.011   7.512  19.867  0.00  0.00    +0.000 A 
ENDBRANCH   5   7
BRANCH   1  19
ATOM     19  C   UNL     1       2.832   2.588  17.628  0.00  0.00    +0.000 C 
BRANCH  19  21
ATOM     20  C   UNL     1       3.823   2.990  19.809  0.00  0.00    +0.000 C 
ATOM     21  N   UNL     1       2.894   2.140  19.043  0.00  0.00    +0.000 NA
BRANCH  21  22
ATOM     22  C   UNL     1       1.518   2.236  19.612  0.00  0.00    +0.000 C 
BRANCH  22  23
ATOM     23  C   UNL     1       1.464   3.102  20.873  0.00  0.00    +0.000 C 
ATOM     24  N   UNL     1       1.705   2.445  22.047  0.00  0.00    +0.000 N 
ATOM     25  O   UNL     1       1.172   4.294  20.860  0.00  0.00    +0.000 OA
ATOM     26  H   UNL     1       2.187   1.555  21.996  0.00  0.00    +0.000 HD
ATOM     27  H   UNL     1       1.803   3.012  22.877  0.00  0.00    +0.000 HD
ENDBRANCH  22  23
ENDBRANCH  21  22
ENDBRANCH  19  21
ENDBRANCH   1  19
TORSDOF 5
ENDMDL
