MODEL 1
REMARK VINA RESULT:      -7.5      0.000      0.000
REMARK  Name = 
REMARK  4 active torsions:
REMARK  status: ('A' for Active; 'I' for Inactive)
REMARK    1  A    between atoms: C_1  and  O_2
REMARK    2  A    between atoms: O_2  and  C_3
REMARK    3  A    between atoms: C_13  and  O_14
REMARK    4  A    between atoms: O_14  and  C_15
REMARK                            x       y       z     vdW  Elec       q    Type
REMARK                         _______ _______ _______ _____ _____    ______ ____
ROOT
ATOM      1  C   UNL     1       0.340   8.619  21.210  0.00  0.00    +0.000 A 
ATOM      2  C   UNL     1       1.086   7.431  21.160  0.00  0.00    +0.000 A 
ATOM      3  C   UNL     1       1.942   7.149  20.097  0.00  0.00    +0.000 A 
ATOM      4  N   UNL     1       2.644   5.932  20.122  0.00  0.00    +0.000 NA
ATOM      5  C   UNL     1       3.399   5.705  19.101  0.00  0.00    +0.000 A 
ATOM      6  N   UNL     1       3.576   6.542  18.018  0.00  0.00    +0.000 N 
ATOM      7  C   UNL     1       2.941   7.762  17.914  0.00  0.00    +0.000 A 
ATOM      8  O   UNL     1       3.060   8.555  16.988  0.00  0.00    +0.000 OA
ATOM      9  C   UNL     1       2.049   8.078  19.056  0.00  0.00    +0.000 A 
ATOM     10  C   UNL     1       1.315   9.267  19.086  0.00  0.00    +0.000 A 
ATOM     11  C   UNL     1       0.454   9.547  20.157  0.00  0.00    +0.000 A 
ATOM     12  C   UNL     1       4.469   5.957  17.104  0.00  0.00    +0.000 A 
ATOM     13  C   UNL     1       4.924   6.445  15.893  0.00  0.00    +0.000 A 
ATOM     14  C   UNL     1       5.827   5.659  15.166  0.00  0.00    +0.000 A 
ATOM     15  C   UNL     1       6.258   4.409  15.649  0.00  0.00    +0.000 A 
ATOM     16  C   UNL     1       5.793   3.918  16.870  0.00  0.00    +0.000 A 
ATOM     17  C   UNL     1       4.906   4.714  17.568  0.00  0.00    +0.000 A 
ATOM     18  C   UNL     1       4.257   4.476  18.859  0.00  0.00    +0.000 C 
ATOM     19  O   UNL     1       4.379   3.518  19.582  0.00  0.00    +0.000 OA
ENDROOT
BRANCH   1  21
ATOM     20  C   UNL     1      -0.007   9.561  23.363  0.00  0.00    +0.000 C 
ATOM     21  O   UNL     1      -0.534   8.872  22.234  0.00  0.00    +0.000 OA
ENDBRANCH   1  21
BRANCH  11  22
ATOM     22  O   UNL     1      -0.179  10.754  20.010  0.00  0.00    +0.000 OA
ATOM     23  C   UNL     1      -1.277  10.849  19.115  0.00  0.00    +0.000 C 
ENDBRANCH  11  22
TORSDOF 2
ENDMDL
MODEL 2
REMARK VINA RESULT:      -7.4      1.642      6.705
REMARK  Name = 
REMARK  4 active torsions:
REMARK  status: ('A' for Active; 'I' for Inactive)
REMARK    1  A    between atoms: C_1  and  O_2
REMARK    2  A    between atoms: O_2  and  C_3
REMARK    3  A    between atoms: C_13  and  O_14
REMARK    4  A    between atoms: O_14  and  C_15
REMARK                            x       y       z     vdW  Elec       q    Type
REMARK                         _______ _______ _______ _____ _____    ______ ____
ROOT
ATOM      1  C   UNL     1       3.710   4.956  19.115  0.00  0.00    +0.000 A 
ATOM      2  C   UNL     1       2.871   5.551  20.071  0.00  0.00    +0.000 A 
ATOM      3  C   UNL     1       2.282   6.794  19.855  0.00  0.00    +0.000 A 
ATOM      4  N   UNL     1       1.464   7.321  20.870  0.00  0.00    +0.000 NA
ATOM      5  C   UNL     1       0.967   8.487  20.633  0.00  0.00    +0.000 A 
ATOM      6  N   UNL     1       1.162   9.238  19.491  0.00  0.00    +0.000 N 
ATOM      7  C   UNL     1       1.936   8.797  18.439  0.00  0.00    +0.000 A 
ATOM      8  O   UNL     1       2.142   9.406  17.396  0.00  0.00    +0.000 OA
ATOM      9  C   UNL     1       2.544   7.461  18.653  0.00  0.00    +0.000 A 
ATOM     10  C   UNL     1       3.376   6.888  17.688  0.00  0.00    +0.000 A 
ATOM     11  C   UNL     1       3.968   5.636  17.909  0.00  0.00    +0.000 A 
ATOM     12  C   UNL     1       0.465  10.454  19.596  0.00  0.00    +0.000 A 
ATOM     13  C   UNL     1       0.385  11.496  18.691  0.00  0.00    +0.000 A 
ATOM     14  C   UNL     1      -0.390  12.610  19.037  0.00  0.00    +0.000 A 
ATOM     15  C   UNL     1      -1.066  12.671  20.271  0.00  0.00    +0.000 A 
ATOM     16  C   UNL     1      -0.980  11.619  21.184  0.00  0.00    +0.000 A 
ATOM     17  C   UNL     1      -0.211  10.533  20.816  0.00  0.00    +0.000 A 
ATOM     18  C   UNL     1       0.064   9.294  21.549  0.00  0.00    +0.000 C 
ATOM     19  O   UNL     1      -0.342   8.975  22.639  0.00  0.00    +0.000 OA
ENDROOT
BRANCH   1  21
ATOM     20  C   UNL     1       3.541   2.758  20.000  0.00  0.00    +0.000 C 
ATOM     21  O   UNL     1       4.324   3.754  19.351  0.00  0.00    +0.000 OA
ENDBRANCH   1  21
BRANCH  11  22
ATOM     22  O   UNL     1       4.749   5.239  16.855  0.00  0.00    +0.000 OA
ATOM     23  C   UNL     1       5.220   6.220  15.943  0.00  0.00    +0.000 C 
ENDBRANCH  11  22
TORSDOF 2
ENDMDL
MODEL 3
REMARK VINA RESULT:      -7.4      1.676      7.200
REMARK  Name = 
REMARK  4 active torsions:
REMARK  status: ('A' for Active; 'I' for Inactive)
REMARK    1  A    between atoms: C_1  and  O_2
REMARK    2  A    between atoms: O_2  and  C_3
REMARK    3  A    between atoms: C_13  and  O_14
REMARK    4  A    between atoms: O_14  and  C_15
REMARK                            x       y       z     vdW  Elec       q    Type
REMARK                         _______ _______ _______ _____ _____    ______ ____
ROOT
ATOM      1  C   UNL     1       4.714   4.353  17.244  0.00  0.00    +0.000 A 
ATOM      2  C   UNL     1       4.340   5.686  17.009  0.00  0.00    +0.000 A 
ATOM      3  C   UNL     1       3.529   6.386  17.900  0.00  0.00    +0.000 A 
ATOM      4  N   UNL     1       3.195   7.714  17.582  0.00  0.00    +0.000 NA
ATOM      5  C   UNL     1       2.418   8.308  18.423  0.00  0.00    +0.000 A 
ATOM      6  N   UNL     1       1.907   7.762  19.584  0.00  0.00    +0.000 N 
ATOM      7  C   UNL     1       2.192   6.474  19.984  0.00  0.00    +0.000 A 
ATOM      8  O   UNL     1       1.781   5.932  21.003  0.00  0.00    +0.000 OA
ATOM      9  C   UNL     1       3.077   5.733  19.052  0.00  0.00    +0.000 A 
ATOM     10  C   UNL     1       3.437   4.407  19.305  0.00  0.00    +0.000 A 
ATOM     11  C   UNL     1       4.253   3.705  18.406  0.00  0.00    +0.000 A 
ATOM     12  C   UNL     1       1.099   8.707  20.239  0.00  0.00    +0.000 A 
ATOM     13  C   UNL     1       0.397   8.585  21.423  0.00  0.00    +0.000 A 
ATOM     14  C   UNL     1      -0.338   9.691  21.869  0.00  0.00    +0.000 A 
ATOM     15  C   UNL     1      -0.365  10.892  21.134  0.00  0.00    +0.000 A 
ATOM     16  C   UNL     1       0.342  11.010  19.937  0.00  0.00    +0.000 A 
ATOM     17  C   UNL     1       1.060   9.906  19.522  0.00  0.00    +0.000 A 
ATOM     18  C   UNL     1       1.890   9.729  18.329  0.00  0.00    +0.000 C 
ATOM     19  O   UNL     1       2.117  10.534  17.460  0.00  0.00    +0.000 OA
ENDROOT
BRANCH   1  21
ATOM     20  C   UNL     1       6.404   4.411  15.577  0.00  0.00    +0.000 C 
ATOM     21  O   UNL     1       5.474   3.654  16.344  0.00  0.00    +0.000 OA
ENDBRANCH   1  21
BRANCH  11  22
ATOM     22  O   UNL     1       4.496   2.422  18.821  0.00  0.00    +0.000 OA
ATOM     23  C   UNL     1       3.521   1.421  18.565  0.00  0.00    +0.000 C 
ENDBRANCH  11  22
TORSDOF 2
ENDMDL
MODEL 4
REMARK VINA RESULT:      -7.3      1.543      2.038
REMARK  Name = 
REMARK  4 active torsions:
REMARK  status: ('A' for Active; 'I' for Inactive)
REMARK    1  A    between atoms: C_1  and  O_2
REMARK    2  A    between atoms: O_2  and  C_3
REMARK    3  A    between atoms: C_13  and  O_14
REMARK    4  A    between atoms: O_14  and  C_15
REMARK                            x       y       z     vdW  Elec       q    Type
REMARK                         _______ _______ _______ _____ _____    ______ ____
ROOT
ATOM      1  C   UNL     1      -0.041  10.721  20.955  0.00  0.00    +0.000 A 
ATOM      2  C   UNL     1       0.302   9.418  21.347  0.00  0.00    +0.000 A 
ATOM      3  C   UNL     1       1.074   8.589  20.536  0.00  0.00    +0.000 A 
ATOM      4  N   UNL     1       1.363   7.295  21.002  0.00  0.00    +0.000 NA
ATOM      5  C   UNL     1       2.054   6.558  20.200  0.00  0.00    +0.000 A 
ATOM      6  N   UNL     1       2.528   6.929  18.958  0.00  0.00    +0.000 N 
ATOM      7  C   UNL     1       2.307   8.182  18.426  0.00  0.00    +0.000 A 
ATOM      8  O   UNL     1       2.706   8.578  17.337  0.00  0.00    +0.000 OA
ATOM      9  C   UNL     1       1.508   9.076  19.298  0.00  0.00    +0.000 A 
ATOM     10  C   UNL     1       1.178  10.371  18.888  0.00  0.00    +0.000 A 
ATOM     11  C   UNL     1       0.400  11.202  19.707  0.00  0.00    +0.000 A 
ATOM     12  C   UNL     1       3.235   5.861  18.379  0.00  0.00    +0.000 A 
ATOM     13  C   UNL     1       3.871   5.797  17.153  0.00  0.00    +0.000 A 
ATOM     14  C   UNL     1       4.517   4.603  16.809  0.00  0.00    +0.000 A 
ATOM     15  C   UNL     1       4.518   3.498  17.683  0.00  0.00    +0.000 A 
ATOM     16  C   UNL     1       3.872   3.565  18.918  0.00  0.00    +0.000 A 
ATOM     17  C   UNL     1       3.245   4.755  19.232  0.00  0.00    +0.000 A 
ATOM     18  C   UNL     1       2.499   5.125  20.437  0.00  0.00    +0.000 C 
ATOM     19  O   UNL     1       2.288   4.448  21.413  0.00  0.00    +0.000 OA
ENDROOT
BRANCH   1  21
ATOM     20  C   UNL     1      -1.208  10.992  23.006  0.00  0.00    +0.000 C 
ATOM     21  O   UNL     1      -0.838  11.517  21.735  0.00  0.00    +0.000 OA
ENDBRANCH   1  21
BRANCH  11  22
ATOM     22  O   UNL     1       0.179  12.429  19.138  0.00  0.00    +0.000 OA
ATOM     23  C   UNL     1      -0.935  12.594  18.273  0.00  0.00    +0.000 C 
ENDBRANCH  11  22
TORSDOF 2
ENDMDL
MODEL 5
REMARK VINA RESULT:      -7.1      2.071      6.583
REMARK  Name = 
REMARK  4 active torsions:
REMARK  status: ('A' for Active; 'I' for Inactive)
REMARK    1  A    between atoms: C_1  and  O_2
REMARK    2  A    between atoms: O_2  and  C_3
REMARK    3  A    between atoms: C_13  and  O_14
REMARK    4  A    between atoms: O_14  and  C_15
REMARK                            x       y       z     vdW  Elec       q    Type
REMARK                         _______ _______ _______ _____ _____    ______ ____
ROOT
ATOM      1  C   UNL     1       2.648   4.645  19.677  0.00  0.00    +0.000 A 
ATOM      2  C   UNL     1       2.108   5.562  20.593  0.00  0.00    +0.000 A 
ATOM      3  C   UNL     1       1.853   6.885  20.239  0.00  0.00    +0.000 A 
ATOM      4  N   UNL     1       1.320   7.738  21.221  0.00  0.00    +0.000 NA
ATOM      5  C   UNL     1       1.131   8.960  20.851  0.00  0.00    +0.000 A 
ATOM      6  N   UNL     1       1.394   9.481  19.600  0.00  0.00    +0.000 N 
ATOM      7  C   UNL     1       1.903   8.716  18.572  0.00  0.00    +0.000 A 
ATOM      8  O   UNL     1       2.149   9.112  17.439  0.00  0.00    +0.000 OA
ATOM      9  C   UNL     1       2.151   7.301  18.937  0.00  0.00    +0.000 A 
ATOM     10  C   UNL     1       2.690   6.405  18.009  0.00  0.00    +0.000 A 
ATOM     11  C   UNL     1       2.946   5.073  18.370  0.00  0.00    +0.000 A 
ATOM     12  C   UNL     1       1.064  10.847  19.575  0.00  0.00    +0.000 A 
ATOM     13  C   UNL     1       1.167  11.751  18.534  0.00  0.00    +0.000 A 
ATOM     14  C   UNL     1       0.760  13.071  18.768  0.00  0.00    +0.000 A 
ATOM     15  C   UNL     1       0.264  13.469  20.024  0.00  0.00    +0.000 A 
ATOM     16  C   UNL     1       0.165  12.554  21.074  0.00  0.00    +0.000 A 
ATOM     17  C   UNL     1       0.570  11.259  20.815  0.00  0.00    +0.000 A 
ATOM     18  C   UNL     1       0.582  10.092  21.700  0.00  0.00    +0.000 C 
ATOM     19  O   UNL     1       0.227  10.034  22.852  0.00  0.00    +0.000 OA
ENDROOT
BRANCH   1  21
ATOM     20  C   UNL     1       2.430   2.923  21.299  0.00  0.00    +0.000 C 
ATOM     21  O   UNL     1       2.940   3.357  20.043  0.00  0.00    +0.000 OA
ENDBRANCH   1  21
BRANCH  11  22
ATOM     22  O   UNL     1       3.472   4.349  17.333  0.00  0.00    +0.000 OA
ATOM     23  C   UNL     1       4.689   4.782  16.741  0.00  0.00    +0.000 C 
ENDBRANCH  11  22
TORSDOF 2
ENDMDL
MODEL 6
REMARK VINA RESULT:      -6.9      1.905      3.628
REMARK  Name = 
REMARK  4 active torsions:
REMARK  status: ('A' for Active; 'I' for Inactive)
REMARK    1  A    between atoms: C_1  and  O_2
REMARK    2  A    between atoms: O_2  and  C_3
REMARK    3  A    between atoms: C_13  and  O_14
REMARK    4  A    between atoms: O_14  and  C_15
REMARK                            x       y       z     vdW  Elec       q    Type
REMARK                         _______ _______ _______ _____ _____    ______ ____
ROOT
ATOM      1  C   UNL     1       1.068  11.134  18.835  0.00  0.00    +0.000 A 
ATOM      2  C   UNL     1       1.866  10.240  18.102  0.00  0.00    +0.000 A 
ATOM      3  C   UNL     1       2.076   8.930  18.526  0.00  0.00    +0.000 A 
ATOM      4  N   UNL     1       2.897   8.106  17.737  0.00  0.00    +0.000 NA
ATOM      5  C   UNL     1       3.083   6.912  18.189  0.00  0.00    +0.000 A 
ATOM      6  N   UNL     1       2.550   6.389  19.349  0.00  0.00    +0.000 N 
ATOM      7  C   UNL     1       1.723   7.118  20.177  0.00  0.00    +0.000 A 
ATOM      8  O   UNL     1       1.210   6.713  21.214  0.00  0.00    +0.000 OA
ATOM      9  C   UNL     1       1.476   8.505  19.716  0.00  0.00    +0.000 A 
ATOM     10  C   UNL     1       0.678   9.378  20.462  0.00  0.00    +0.000 A 
ATOM     11  C   UNL     1       0.469  10.696  20.032  0.00  0.00    +0.000 A 
ATOM     12  C   UNL     1       2.978   5.060  19.514  0.00  0.00    +0.000 A 
ATOM     13  C   UNL     1       2.687   4.168  20.528  0.00  0.00    +0.000 A 
ATOM     14  C   UNL     1       3.243   2.884  20.454  0.00  0.00    +0.000 A 
ATOM     15  C   UNL     1       4.075   2.512  19.381  0.00  0.00    +0.000 A 
ATOM     16  C   UNL     1       4.370   3.417  18.360  0.00  0.00    +0.000 A 
ATOM     17  C   UNL     1       3.807   4.674  18.457  0.00  0.00    +0.000 A 
ATOM     18  C   UNL     1       3.926   5.821  17.553  0.00  0.00    +0.000 C 
ATOM     19  O   UNL     1       4.550   5.887  16.522  0.00  0.00    +0.000 OA
ENDROOT
BRANCH   1  21
ATOM     20  C   UNL     1       2.089  13.199  18.257  0.00  0.00    +0.000 C 
ATOM     21  O   UNL     1       0.902  12.434  18.439  0.00  0.00    +0.000 OA
ENDBRANCH   1  21
BRANCH  11  22
ATOM     22  O   UNL     1      -0.336  11.399  20.890  0.00  0.00    +0.000 OA
ATOM     23  C   UNL     1      -0.469  10.949  22.230  0.00  0.00    +0.000 C 
ENDBRANCH  11  22
TORSDOF 2
ENDMDL
MODEL 7
REMARK VINA RESULT:      -6.7      2.384      7.786
REMARK  Name = 
REMARK  4 active torsions:
REMARK  status: ('A' for Active; 'I' for Inactive)
REMARK    1  A    between atoms: C_1  and  O_2
REMARK    2  A    between atoms: O_2  and  C_3
REMARK    3  A    between atoms: C_13  and  O_14
REMARK    4  A    between atoms: O_14  and  C_15
REMARK                            x       y       z     vdW  Elec       q    Type
REMARK                         _______ _______ _______ _____ _____    ______ ____
ROOT
ATOM      1  C   UNL     1       2.965   6.737  18.385  0.00  0.00    +0.000 A 
ATOM      2  C   UNL     1       2.480   8.013  18.058  0.00  0.00    +0.000 A 
ATOM      3  C   UNL     1       1.740   8.768  18.965  0.00  0.00    +0.000 A 
ATOM      4  N   UNL     1       1.284  10.032  18.552  0.00  0.00    +0.000 NA
ATOM      5  C   UNL     1       0.579  10.678  19.418  0.00  0.00    +0.000 A 
ATOM      6  N   UNL     1       0.250  10.244  20.686  0.00  0.00    +0.000 N 
ATOM      7  C   UNL     1       0.664   9.025  21.182  0.00  0.00    +0.000 A 
ATOM      8  O   UNL     1       0.417   8.584  22.298  0.00  0.00    +0.000 OA
ATOM      9  C   UNL     1       1.475   8.229  20.229  0.00  0.00    +0.000 A 
ATOM     10  C   UNL     1       1.948   6.961  20.575  0.00  0.00    +0.000 A 
ATOM     11  C   UNL     1       2.693   6.203  19.659  0.00  0.00    +0.000 A 
ATOM     12  C   UNL     1      -0.532  11.215  21.335  0.00  0.00    +0.000 A 
ATOM     13  C   UNL     1      -1.076  11.193  22.606  0.00  0.00    +0.000 A 
ATOM     14  C   UNL     1      -1.820  12.304  23.021  0.00  0.00    +0.000 A 
ATOM     15  C   UNL     1      -2.015  13.410  22.171  0.00  0.00    +0.000 A 
ATOM     16  C   UNL     1      -1.468  13.427  20.887  0.00  0.00    +0.000 A 
ATOM     17  C   UNL     1      -0.736  12.320  20.504  0.00  0.00    +0.000 A 
ATOM     18  C   UNL     1      -0.047  12.050  19.240  0.00  0.00    +0.000 C 
ATOM     19  O   UNL     1       0.020  12.762  18.268  0.00  0.00    +0.000 OA
ENDROOT
BRANCH   1  21
ATOM     20  C   UNL     1       4.672   6.644  16.735  0.00  0.00    +0.000 C 
ATOM     21  O   UNL     1       3.654   5.979  17.474  0.00  0.00    +0.000 OA
ENDBRANCH   1  21
BRANCH  11  22
ATOM     22  O   UNL     1       3.067   4.990  20.174  0.00  0.00    +0.000 OA
ATOM     23  C   UNL     1       2.181   4.315  21.055  0.00  0.00    +0.000 C 
ENDBRANCH  11  22
TORSDOF 2
ENDMDL
MODEL 8
REMARK VINA RESULT:      -6.6      1.835      7.411
REMARK  Name = 
REMARK  4 active torsions:
REMARK  status: ('A' for Active; 'I' for Inactive)
REMARK    1  A    between atoms: C_1  and  O_2
REMARK    2  A    between atoms: O_2  and  C_3
REMARK    3  A    between atoms: C_13  and  O_14
REMARK    4  A    between atoms: O_14  and  C_15
REMARK                            x       y       z     vdW  Elec       q    Type
REMARK                         _______ _______ _______ _____ _____    ______ ____
ROOT
ATOM      1  C   UNL     1       3.775   5.850  17.437  0.00  0.00    +0.000 A 
ATOM      2  C   UNL     1       3.383   7.197  17.381  0.00  0.00    +0.000 A 
ATOM      3  C   UNL     1       2.635   7.784  18.399  0.00  0.00    +0.000 A 
ATOM      4  N   UNL     1       2.277   9.136  18.259  0.00  0.00    +0.000 NA
ATOM      5  C   UNL     1       1.558   9.622  19.214  0.00  0.00    +0.000 A 
ATOM      6  N   UNL     1       1.131   8.943  20.337  0.00  0.00    +0.000 N 
ATOM      7  C   UNL     1       1.446   7.620  20.566  0.00  0.00    +0.000 A 
ATOM      8  O   UNL     1       1.108   6.963  21.544  0.00  0.00    +0.000 OA
ATOM      9  C   UNL     1       2.265   6.999  19.498  0.00  0.00    +0.000 A 
ATOM     10  C   UNL     1       2.644   5.656  19.573  0.00  0.00    +0.000 A 
ATOM     11  C   UNL     1       3.398   5.069  18.546  0.00  0.00    +0.000 A 
ATOM     12  C   UNL     1       0.368   9.799  21.149  0.00  0.00    +0.000 A 
ATOM     13  C   UNL     1      -0.250   9.536  22.357  0.00  0.00    +0.000 A 
ATOM     14  C   UNL     1      -0.954  10.577  22.976  0.00  0.00    +0.000 A 
ATOM     15  C   UNL     1      -1.034  11.853  22.386  0.00  0.00    +0.000 A 
ATOM     16  C   UNL     1      -0.413  12.114  21.164  0.00  0.00    +0.000 A 
ATOM     17  C   UNL     1       0.277  11.071  20.578  0.00  0.00    +0.000 A 
ATOM     18  C   UNL     1       1.023  11.039  19.318  0.00  0.00    +0.000 C 
ATOM     19  O   UNL     1       1.188  11.940  18.533  0.00  0.00    +0.000 OA
ENDROOT
BRANCH   1  21
ATOM     20  C   UNL     1       5.729   5.849  16.085  0.00  0.00    +0.000 C 
ATOM     21  O   UNL     1       4.472   5.265  16.412  0.00  0.00    +0.000 OA
ENDBRANCH   1  21
BRANCH  11  22
ATOM     22  O   UNL     1       3.672   3.750  18.794  0.00  0.00    +0.000 OA
ATOM     23  C   UNL     1       4.866   3.416  19.487  0.00  0.00    +0.000 C 
ENDBRANCH  11  22
TORSDOF 2
ENDMDL
MODEL 9
REMARK VINA RESULT:      -6.6      1.886      7.032
REMARK  Name = 
REMARK  4 active torsions:
REMARK  status: ('A' for Active; 'I' for Inactive)
REMARK    1  A    between atoms: C_1  and  O_2
REMARK    2  A    between atoms: O_2  and  C_3
REMARK    3  A    between atoms: C_13  and  O_14
REMARK    4  A    between atoms: O_14  and  C_15
REMARK                            x       y       z     vdW  Elec       q    Type
REMARK                         _______ _______ _______ _____ _____    ______ ____
ROOT
ATOM      1  C   UNL     1       3.602   4.527  18.361  0.00  0.00    +0.000 A 
ATOM      2  C   UNL     1       3.480   5.830  17.852  0.00  0.00    +0.000 A 
ATOM      3  C   UNL     1       2.810   6.830  18.554  0.00  0.00    +0.000 A 
ATOM      4  N   UNL     1       2.726   8.104  17.966  0.00  0.00    +0.000 NA
ATOM      5  C   UNL     1       2.069   8.985  18.642  0.00  0.00    +0.000 A 
ATOM      6  N   UNL     1       1.465   8.786  19.867  0.00  0.00    +0.000 N 
ATOM      7  C   UNL     1       1.507   7.575  20.525  0.00  0.00    +0.000 A 
ATOM      8  O   UNL     1       1.001   7.333  21.615  0.00  0.00    +0.000 OA
ATOM      9  C   UNL     1       2.243   6.514  19.794  0.00  0.00    +0.000 A 
ATOM     10  C   UNL     1       2.352   5.224  20.319  0.00  0.00    +0.000 A 
ATOM     11  C   UNL     1       3.027   4.220  19.609  0.00  0.00    +0.000 A 
ATOM     12  C   UNL     1       0.842   9.973  20.290  0.00  0.00    +0.000 A 
ATOM     13  C   UNL     1       0.127  10.220  21.446  0.00  0.00    +0.000 A 
ATOM     14  C   UNL     1      -0.393  11.507  21.635  0.00  0.00    +0.000 A 
ATOM     15  C   UNL     1      -0.197  12.519  20.676  0.00  0.00    +0.000 A 
ATOM     16  C   UNL     1       0.522  12.265  19.507  0.00  0.00    +0.000 A 
ATOM     17  C   UNL     1       1.026  10.989  19.348  0.00  0.00    +0.000 A 
ATOM     18  C   UNL     1       1.812  10.428  18.247  0.00  0.00    +0.000 C 
ATOM     19  O   UNL     1       2.186  10.988  17.246  0.00  0.00    +0.000 OA
ENDROOT
BRANCH   1  21
ATOM     20  C   UNL     1       5.100   3.956  16.608  0.00  0.00    +0.000 C 
ATOM     21  O   UNL     1       4.223   3.536  17.648  0.00  0.00    +0.000 OA
ENDBRANCH   1  21
BRANCH  11  22
ATOM     22  O   UNL     1       3.030   3.025  20.280  0.00  0.00    +0.000 OA
ATOM     23  C   UNL     1       2.192   2.874  21.416  0.00  0.00    +0.000 C 
ENDBRANCH  11  22
TORSDOF 2
ENDMDL
