MODEL 1
REMARK VINA RESULT:      -6.8      0.000      0.000
REMARK  Name = 
REMARK  6 active torsions:
REMARK  status: ('A' for Active; 'I' for Inactive)
REMARK    1  A    between atoms: C_1  and  C_2
REMARK    2  A    between atoms: C_5  and  N_6
REMARK    3  A    between atoms: C_7  and  C_9
REMARK    4  A    between atoms: C_9  and  C_10
REMARK    5  A    between atoms: C_10  and  O_12
REMARK    6  A    between atoms: C_13  and  N_14
REMARK                            x       y       z     vdW  Elec       q    Type
REMARK                         _______ _______ _______ _____ _____    ______ ____
ROOT
ATOM      1  C   UNL     1       1.503   2.556  21.434  0.00  0.00    +0.000 C 
ATOM      2  C   UNL     1       2.385   2.710  20.231  0.00  0.00    +0.000 A 
ATOM      3  C   UNL     1       2.093   2.041  19.045  0.00  0.00    +0.000 A 
ATOM      4  C   UNL     1       2.901   2.205  17.915  0.00  0.00    +0.000 A 
ATOM      5  C   UNL     1       4.017   3.053  17.917  0.00  0.00    +0.000 A 
ATOM      6  C   UNL     1       4.326   3.707  19.132  0.00  0.00    +0.000 A 
ATOM      7  C   UNL     1       3.515   3.533  20.277  0.00  0.00    +0.000 A 
ENDROOT
BRANCH   5   8
ATOM      8  N   UNL     1       4.799   3.218  16.736  0.00  0.00    +0.000 N 
ATOM      9  C   UNL     1       4.933   4.372  15.986  0.00  0.00    +0.000 C 
ATOM     10  O   UNL     1       4.468   5.474  16.273  0.00  0.00    +0.000 OA
ATOM     11  H   UNL     1       5.356   2.408  16.457  0.00  0.00    +0.000 HD
BRANCH   9  12
ATOM     12  C   UNL     1       5.821   4.254  14.772  0.00  0.00    +0.000 C 
BRANCH  12  13
ATOM     13  C   UNL     1       7.177   4.861  14.947  0.00  0.00    +0.000 C 
ATOM     14  O   UNL     1       7.833   5.361  14.043  0.00  0.00    +0.000 OA
BRANCH  13  15
ATOM     15  O   UNL     1       7.666   4.736  16.203  0.00  0.00    +0.000 OA
ATOM     16  H   UNL     1       8.606   4.976  16.310  0.00  0.00    +0.000 HD
ENDBRANCH  13  15
ENDBRANCH  12  13
ENDBRANCH   9  12
ENDBRANCH   5   8
BRANCH   6  17
ATOM     17  N   UNL     1       5.460   4.638  19.251  0.00  0.00    +0.000 N 
ATOM     18  O   UNL     1       6.581   4.249  18.881  0.00  0.00    +0.000 OA
ATOM     19  O   UNL     1       5.241   5.771  19.705  0.00  0.00    +0.000 OA
ENDBRANCH   6  17
TORSDOF 5
ENDMDL
MODEL 2
REMARK VINA RESULT:      -6.5      2.006      2.770
REMARK  Name = 
REMARK  6 active torsions:
REMARK  status: ('A' for Active; 'I' for Inactive)
REMARK    1  A    between atoms: C_1  and  C_2
REMARK    2  A    between atoms: C_5  and  N_6
REMARK    3  A    between atoms: C_7  and  C_9
REMARK    4  A    between atoms: C_9  and  C_10
REMARK    5  A    between atoms: C_10  and  O_12
REMARK    6  A    between atoms: C_13  and  N_14
REMARK                            x       y       z     vdW  Elec       q    Type
REMARK                         _______ _______ _______ _____ _____    ______ ____
ROOT
ATOM      1  C   UNL     1       1.273   2.563  21.778  0.00  0.00    +0.000 C 
ATOM      2  C   UNL     1       2.293   3.267  20.935  0.00  0.00    +0.000 A 
ATOM      3  C   UNL     1       3.427   2.597  20.483  0.00  0.00    +0.000 A 
ATOM      4  C   UNL     1       4.365   3.247  19.674  0.00  0.00    +0.000 A 
ATOM      5  C   UNL     1       4.202   4.580  19.270  0.00  0.00    +0.000 A 
ATOM      6  C   UNL     1       3.063   5.264  19.756  0.00  0.00    +0.000 A 
ATOM      7  C   UNL     1       2.121   4.610  20.582  0.00  0.00    +0.000 A 
ENDROOT
BRANCH   5   8
ATOM      8  N   UNL     1       5.165   5.199  18.421  0.00  0.00    +0.000 N 
ATOM      9  C   UNL     1       6.447   5.585  18.766  0.00  0.00    +0.000 C 
ATOM     10  O   UNL     1       6.997   5.369  19.845  0.00  0.00    +0.000 OA
ATOM     11  H   UNL     1       4.886   5.315  17.445  0.00  0.00    +0.000 HD
BRANCH   9  12
ATOM     12  C   UNL     1       7.247   6.231  17.662  0.00  0.00    +0.000 C 
BRANCH  12  13
ATOM     13  C   UNL     1       6.984   5.659  16.304  0.00  0.00    +0.000 C 
ATOM     14  O   UNL     1       7.618   4.738  15.808  0.00  0.00    +0.000 OA
BRANCH  13  15
ATOM     15  O   UNL     1       6.019   6.316  15.620  0.00  0.00    +0.000 OA
ATOM     16  H   UNL     1       6.160   6.379  14.657  0.00  0.00    +0.000 HD
ENDBRANCH  13  15
ENDBRANCH  12  13
ENDBRANCH   9  12
ENDBRANCH   5   8
BRANCH   6  17
ATOM     17  N   UNL     1       2.773   6.658  19.383  0.00  0.00    +0.000 N 
ATOM     18  O   UNL     1       3.062   7.031  18.233  0.00  0.00    +0.000 OA
ATOM     19  O   UNL     1       2.245   7.393  20.231  0.00  0.00    +0.000 OA
ENDBRANCH   6  17
TORSDOF 5
ENDMDL
MODEL 3
REMARK VINA RESULT:      -6.5      2.453      3.214
REMARK  Name = 
REMARK  6 active torsions:
REMARK  status: ('A' for Active; 'I' for Inactive)
REMARK    1  A    between atoms: C_1  and  C_2
REMARK    2  A    between atoms: C_5  and  N_6
REMARK    3  A    between atoms: C_7  and  C_9
REMARK    4  A    between atoms: C_9  and  C_10
REMARK    5  A    between atoms: C_10  and  O_12
REMARK    6  A    between atoms: C_13  and  N_14
REMARK                            x       y       z     vdW  Elec       q    Type
REMARK                         _______ _______ _______ _____ _____    ______ ____
ROOT
ATOM      1  C   UNL     1       0.672   2.435  18.691  0.00  0.00    +0.000 C 
ATOM      2  C   UNL     1       1.937   3.232  18.570  0.00  0.00    +0.000 A 
ATOM      3  C   UNL     1       3.157   2.600  18.341  0.00  0.00    +0.000 A 
ATOM      4  C   UNL     1       4.332   3.346  18.202  0.00  0.00    +0.000 A 
ATOM      5  C   UNL     1       4.335   4.746  18.268  0.00  0.00    +0.000 A 
ATOM      6  C   UNL     1       3.099   5.382  18.530  0.00  0.00    +0.000 A 
ATOM      7  C   UNL     1       1.914   4.627  18.681  0.00  0.00    +0.000 A 
ENDROOT
BRANCH   5   8
ATOM      8  N   UNL     1       5.549   5.473  18.092  0.00  0.00    +0.000 N 
ATOM      9  C   UNL     1       6.602   5.557  18.986  0.00  0.00    +0.000 C 
ATOM     10  O   UNL     1       6.697   4.937  20.044  0.00  0.00    +0.000 OA
ATOM     11  H   UNL     1       5.665   5.931  17.186  0.00  0.00    +0.000 HD
BRANCH   9  12
ATOM     12  C   UNL     1       7.761   6.412  18.539  0.00  0.00    +0.000 C 
BRANCH  12  13
ATOM     13  C   UNL     1       7.518   7.152  17.261  0.00  0.00    +0.000 C 
ATOM     14  O   UNL     1       7.221   8.337  17.194  0.00  0.00    +0.000 OA
BRANCH  13  15
ATOM     15  O   UNL     1       7.573   6.364  16.163  0.00  0.00    +0.000 OA
ATOM     16  H   UNL     1       6.902   6.552  15.480  0.00  0.00    +0.000 HD
ENDBRANCH  13  15
ENDBRANCH  12  13
ENDBRANCH   9  12
ENDBRANCH   5   8
BRANCH   6  17
ATOM     17  N   UNL     1       2.974   6.846  18.600  0.00  0.00    +0.000 N 
ATOM     18  O   UNL     1       2.401   7.341  19.586  0.00  0.00    +0.000 OA
ATOM     19  O   UNL     1       3.454   7.519  17.675  0.00  0.00    +0.000 OA
ENDBRANCH   6  17
TORSDOF 5
ENDMDL
MODEL 4
REMARK VINA RESULT:      -6.5      0.638      1.246
REMARK  Name = 
REMARK  6 active torsions:
REMARK  status: ('A' for Active; 'I' for Inactive)
REMARK    1  A    between atoms: C_1  and  C_2
REMARK    2  A    between atoms: C_5  and  N_6
REMARK    3  A    between atoms: C_7  and  C_9
REMARK    4  A    between atoms: C_9  and  C_10
REMARK    5  A    between atoms: C_10  and  O_12
REMARK    6  A    between atoms: C_13  and  N_14
REMARK                            x       y       z     vdW  Elec       q    Type
REMARK                         _______ _______ _______ _____ _____    ______ ____
ROOT
ATOM      1  C   UNL     1       1.131   2.950  20.915  0.00  0.00    +0.000 C 
ATOM      2  C   UNL     1       2.057   3.167  19.755  0.00  0.00    +0.000 A 
ATOM      3  C   UNL     1       1.680   2.799  18.466  0.00  0.00    +0.000 A 
ATOM      4  C   UNL     1       2.533   3.027  17.381  0.00  0.00    +0.000 A 
ATOM      5  C   UNL     1       3.783   3.643  17.535  0.00  0.00    +0.000 A 
ATOM      6  C   UNL     1       4.173   3.988  18.850  0.00  0.00    +0.000 A 
ATOM      7  C   UNL     1       3.315   3.748  19.947  0.00  0.00    +0.000 A 
ENDROOT
BRANCH   5   8
ATOM      8  N   UNL     1       4.612   3.885  16.400  0.00  0.00    +0.000 N 
ATOM      9  C   UNL     1       4.936   5.116  15.859  0.00  0.00    +0.000 C 
ATOM     10  O   UNL     1       4.634   6.211  16.332  0.00  0.00    +0.000 OA
ATOM     11  H   UNL     1       5.048   3.060  15.985  0.00  0.00    +0.000 HD
BRANCH   9  12
ATOM     12  C   UNL     1       5.828   5.073  14.644  0.00  0.00    +0.000 C 
BRANCH  12  13
ATOM     13  C   UNL     1       7.287   4.973  14.961  0.00  0.00    +0.000 C 
ATOM     14  O   UNL     1       7.738   4.531  16.009  0.00  0.00    +0.000 OA
BRANCH  13  15
ATOM     15  O   UNL     1       8.084   5.500  14.003  0.00  0.00    +0.000 OA
ATOM     16  H   UNL     1       7.632   5.754  13.177  0.00  0.00    +0.000 HD
ENDBRANCH  13  15
ENDBRANCH  12  13
ENDBRANCH   9  12
ENDBRANCH   5   8
BRANCH   6  17
ATOM     17  N   UNL     1       5.451   4.659  19.134  0.00  0.00    +0.000 N 
ATOM     18  O   UNL     1       5.421   5.764  19.703  0.00  0.00    +0.000 OA
ATOM     19  O   UNL     1       6.500   4.087  18.800  0.00  0.00    +0.000 OA
ENDBRANCH   6  17
TORSDOF 5
ENDMDL
MODEL 5
REMARK VINA RESULT:      -6.4      2.402      5.779
REMARK  Name = 
REMARK  6 active torsions:
REMARK  status: ('A' for Active; 'I' for Inactive)
REMARK    1  A    between atoms: C_1  and  C_2
REMARK    2  A    between atoms: C_5  and  N_6
REMARK    3  A    between atoms: C_7  and  C_9
REMARK    4  A    between atoms: C_9  and  C_10
REMARK    5  A    between atoms: C_10  and  O_12
REMARK    6  A    between atoms: C_13  and  N_14
REMARK                            x       y       z     vdW  Elec       q    Type
REMARK                         _______ _______ _______ _____ _____    ______ ____
ROOT
ATOM      1  C   UNL     1       7.223   4.672  14.025  0.00  0.00    +0.000 C 
ATOM      2  C   UNL     1       6.444   4.838  15.296  0.00  0.00    +0.000 A 
ATOM      3  C   UNL     1       5.076   4.577  15.332  0.00  0.00    +0.000 A 
ATOM      4  C   UNL     1       4.356   4.706  16.524  0.00  0.00    +0.000 A 
ATOM      5  C   UNL     1       4.971   5.082  17.727  0.00  0.00    +0.000 A 
ATOM      6  C   UNL     1       6.354   5.374  17.679  0.00  0.00    +0.000 A 
ATOM      7  C   UNL     1       7.079   5.254  16.471  0.00  0.00    +0.000 A 
ENDROOT
BRANCH   5   8
ATOM      8  N   UNL     1       4.208   5.173  18.928  0.00  0.00    +0.000 N 
ATOM      9  C   UNL     1       3.417   4.184  19.484  0.00  0.00    +0.000 C 
ATOM     10  O   UNL     1       3.319   3.028  19.076  0.00  0.00    +0.000 OA
ATOM     11  H   UNL     1       4.307   6.046  19.451  0.00  0.00    +0.000 HD
BRANCH   9  12
ATOM     12  C   UNL     1       2.710   4.565  20.761  0.00  0.00    +0.000 C 
BRANCH  12  13
ATOM     13  C   UNL     1       1.961   3.439  21.402  0.00  0.00    +0.000 C 
ATOM     14  O   UNL     1       2.401   2.742  22.307  0.00  0.00    +0.000 OA
BRANCH  13  15
ATOM     15  O   UNL     1       0.759   3.196  20.830  0.00  0.00    +0.000 OA
ATOM     16  H   UNL     1       0.607   2.272  20.556  0.00  0.00    +0.000 HD
ENDBRANCH  13  15
ENDBRANCH  12  13
ENDBRANCH   9  12
ENDBRANCH   5   8
BRANCH   6  17
ATOM     17  N   UNL     1       7.112   5.757  18.880  0.00  0.00    +0.000 N 
ATOM     18  O   UNL     1       6.854   5.176  19.949  0.00  0.00    +0.000 OA
ATOM     19  O   UNL     1       7.980   6.636  18.769  0.00  0.00    +0.000 OA
ENDBRANCH   6  17
TORSDOF 5
ENDMDL
MODEL 6
REMARK VINA RESULT:      -6.4      2.817      5.672
REMARK  Name = 
REMARK  6 active torsions:
REMARK  status: ('A' for Active; 'I' for Inactive)
REMARK    1  A    between atoms: C_1  and  C_2
REMARK    2  A    between atoms: C_5  and  N_6
REMARK    3  A    between atoms: C_7  and  C_9
REMARK    4  A    between atoms: C_9  and  C_10
REMARK    5  A    between atoms: C_10  and  O_12
REMARK    6  A    between atoms: C_13  and  N_14
REMARK                            x       y       z     vdW  Elec       q    Type
REMARK                         _______ _______ _______ _____ _____    ______ ____
ROOT
ATOM      1  C   UNL     1       6.676   5.189  14.519  0.00  0.00    +0.000 C 
ATOM      2  C   UNL     1       5.701   4.902  15.623  0.00  0.00    +0.000 A 
ATOM      3  C   UNL     1       5.452   3.593  16.028  0.00  0.00    +0.000 A 
ATOM      4  C   UNL     1       4.563   3.328  17.075  0.00  0.00    +0.000 A 
ATOM      5  C   UNL     1       3.904   4.353  17.769  0.00  0.00    +0.000 A 
ATOM      6  C   UNL     1       4.139   5.678  17.334  0.00  0.00    +0.000 A 
ATOM      7  C   UNL     1       5.029   5.945  16.269  0.00  0.00    +0.000 A 
ENDROOT
BRANCH   5   8
ATOM      8  N   UNL     1       3.028   4.044  18.851  0.00  0.00    +0.000 N 
ATOM      9  C   UNL     1       1.675   3.770  18.768  0.00  0.00    +0.000 C 
ATOM     10  O   UNL     1       1.027   3.657  17.729  0.00  0.00    +0.000 OA
ATOM     11  H   UNL     1       3.468   3.967  19.770  0.00  0.00    +0.000 HD
BRANCH   9  12
ATOM     12  C   UNL     1       0.992   3.487  20.083  0.00  0.00    +0.000 C 
BRANCH  12  13
ATOM     13  C   UNL     1       1.852   3.735  21.282  0.00  0.00    +0.000 C 
ATOM     14  O   UNL     1       2.087   2.902  22.148  0.00  0.00    +0.000 OA
BRANCH  13  15
ATOM     15  O   UNL     1       2.292   5.010  21.377  0.00  0.00    +0.000 OA
ATOM     16  H   UNL     1       1.594   5.690  21.428  0.00  0.00    +0.000 HD
ENDBRANCH  13  15
ENDBRANCH  12  13
ENDBRANCH   9  12
ENDBRANCH   5   8
BRANCH   6  17
ATOM     17  N   UNL     1       3.522   6.837  17.998  0.00  0.00    +0.000 N 
ATOM     18  O   UNL     1       3.329   6.779  19.225  0.00  0.00    +0.000 OA
ATOM     19  O   UNL     1       3.233   7.824  17.304  0.00  0.00    +0.000 OA
ENDBRANCH   6  17
TORSDOF 5
ENDMDL
MODEL 7
REMARK VINA RESULT:      -6.3      2.302      5.570
REMARK  Name = 
REMARK  6 active torsions:
REMARK  status: ('A' for Active; 'I' for Inactive)
REMARK    1  A    between atoms: C_1  and  C_2
REMARK    2  A    between atoms: C_5  and  N_6
REMARK    3  A    between atoms: C_7  and  C_9
REMARK    4  A    between atoms: C_9  and  C_10
REMARK    5  A    between atoms: C_10  and  O_12
REMARK    6  A    between atoms: C_13  and  N_14
REMARK                            x       y       z     vdW  Elec       q    Type
REMARK                         _______ _______ _______ _____ _____    ______ ____
ROOT
ATOM      1  C   UNL     1       7.143   4.779  13.957  0.00  0.00    +0.000 C 
ATOM      2  C   UNL     1       6.440   4.743  15.282  0.00  0.00    +0.000 A 
ATOM      3  C   UNL     1       5.175   4.172  15.400  0.00  0.00    +0.000 A 
ATOM      4  C   UNL     1       4.531   4.114  16.640  0.00  0.00    +0.000 A 
ATOM      5  C   UNL     1       5.127   4.604  17.810  0.00  0.00    +0.000 A 
ATOM      6  C   UNL     1       6.399   5.209  17.680  0.00  0.00    +0.000 A 
ATOM      7  C   UNL     1       7.045   5.276  16.425  0.00  0.00    +0.000 A 
ENDROOT
BRANCH   5   8
ATOM      8  N   UNL     1       4.451   4.500  19.062  0.00  0.00    +0.000 N 
ATOM      9  C   UNL     1       3.157   4.900  19.339  0.00  0.00    +0.000 C 
ATOM     10  O   UNL     1       2.345   5.327  18.520  0.00  0.00    +0.000 OA
ATOM     11  H   UNL     1       4.969   4.032  19.808  0.00  0.00    +0.000 HD
BRANCH   9  12
ATOM     12  C   UNL     1       2.704   4.679  20.761  0.00  0.00    +0.000 C 
BRANCH  12  13
ATOM     13  C   UNL     1       2.241   3.285  21.044  0.00  0.00    +0.000 C 
ATOM     14  O   UNL     1       1.983   2.854  22.160  0.00  0.00    +0.000 OA
BRANCH  13  15
ATOM     15  O   UNL     1       2.208   2.494  19.946  0.00  0.00    +0.000 OA
ATOM     16  H   UNL     1       2.161   1.535  20.124  0.00  0.00    +0.000 HD
ENDBRANCH  13  15
ENDBRANCH  12  13
ENDBRANCH   9  12
ENDBRANCH   5   8
BRANCH   6  17
ATOM     17  N   UNL     1       7.133   5.739  18.840  0.00  0.00    +0.000 N 
ATOM     18  O   UNL     1       7.871   6.725  18.669  0.00  0.00    +0.000 OA
ATOM     19  O   UNL     1       6.975   5.183  19.937  0.00  0.00    +0.000 OA
ENDBRANCH   6  17
TORSDOF 5
ENDMDL
MODEL 8
REMARK VINA RESULT:      -6.3      2.862      6.058
REMARK  Name = 
REMARK  6 active torsions:
REMARK  status: ('A' for Active; 'I' for Inactive)
REMARK    1  A    between atoms: C_1  and  C_2
REMARK    2  A    between atoms: C_5  and  N_6
REMARK    3  A    between atoms: C_7  and  C_9
REMARK    4  A    between atoms: C_9  and  C_10
REMARK    5  A    between atoms: C_10  and  O_12
REMARK    6  A    between atoms: C_13  and  N_14
REMARK                            x       y       z     vdW  Elec       q    Type
REMARK                         _______ _______ _______ _____ _____    ______ ____
ROOT
ATOM      1  C   UNL     1       7.078   4.908  14.895  0.00  0.00    +0.000 C 
ATOM      2  C   UNL     1       6.303   4.684  16.159  0.00  0.00    +0.000 A 
ATOM      3  C   UNL     1       6.675   5.315  17.344  0.00  0.00    +0.000 A 
ATOM      4  C   UNL     1       5.935   5.126  18.516  0.00  0.00    +0.000 A 
ATOM      5  C   UNL     1       4.790   4.318  18.549  0.00  0.00    +0.000 A 
ATOM      6  C   UNL     1       4.433   3.657  17.351  0.00  0.00    +0.000 A 
ATOM      7  C   UNL     1       5.187   3.840  16.170  0.00  0.00    +0.000 A 
ENDROOT
BRANCH   5   8
ATOM      8  N   UNL     1       4.045   4.174  19.757  0.00  0.00    +0.000 N 
ATOM      9  C   UNL     1       2.830   4.763  20.055  0.00  0.00    +0.000 C 
ATOM     10  O   UNL     1       2.149   5.436  19.283  0.00  0.00    +0.000 OA
ATOM     11  H   UNL     1       4.433   3.524  20.443  0.00  0.00    +0.000 HD
BRANCH   9  12
ATOM     12  C   UNL     1       2.275   4.442  21.420  0.00  0.00    +0.000 C 
BRANCH  12  13
ATOM     13  C   UNL     1       1.420   3.214  21.458  0.00  0.00    +0.000 C 
ATOM     14  O   UNL     1       1.528   2.322  22.289  0.00  0.00    +0.000 OA
BRANCH  13  15
ATOM     15  O   UNL     1       0.552   3.128  20.423  0.00  0.00    +0.000 OA
ATOM     16  H   UNL     1       0.704   2.383  19.812  0.00  0.00    +0.000 HD
ENDBRANCH  13  15
ENDBRANCH  12  13
ENDBRANCH   9  12
ENDBRANCH   5   8
BRANCH   6  17
ATOM     17  N   UNL     1       3.240   2.801  17.258  0.00  0.00    +0.000 N 
ATOM     18  O   UNL     1       2.253   3.233  16.636  0.00  0.00    +0.000 OA
ATOM     19  O   UNL     1       3.276   1.685  17.797  0.00  0.00    +0.000 OA
ENDBRANCH   6  17
TORSDOF 5
ENDMDL
MODEL 9
REMARK VINA RESULT:      -6.3      2.601      3.193
REMARK  Name = 
REMARK  6 active torsions:
REMARK  status: ('A' for Active; 'I' for Inactive)
REMARK    1  A    between atoms: C_1  and  C_2
REMARK    2  A    between atoms: C_5  and  N_6
REMARK    3  A    between atoms: C_7  and  C_9
REMARK    4  A    between atoms: C_9  and  C_10
REMARK    5  A    between atoms: C_10  and  O_12
REMARK    6  A    between atoms: C_13  and  N_14
REMARK                            x       y       z     vdW  Elec       q    Type
REMARK                         _______ _______ _______ _____ _____    ______ ____
ROOT
ATOM      1  C   UNL     1       0.660   2.226  18.798  0.00  0.00    +0.000 C 
ATOM      2  C   UNL     1       1.834   3.073  18.405  0.00  0.00    +0.000 A 
ATOM      3  C   UNL     1       2.920   2.515  17.735  0.00  0.00    +0.000 A 
ATOM      4  C   UNL     1       4.003   3.311  17.345  0.00  0.00    +0.000 A 
ATOM      5  C   UNL     1       4.037   4.691  17.590  0.00  0.00    +0.000 A 
ATOM      6  C   UNL     1       2.945   5.246  18.296  0.00  0.00    +0.000 A 
ATOM      7  C   UNL     1       1.856   4.440  18.699  0.00  0.00    +0.000 A 
ENDROOT
BRANCH   5   8
ATOM      8  N   UNL     1       5.145   5.473  17.151  0.00  0.00    +0.000 N 
ATOM      9  C   UNL     1       6.353   5.638  17.804  0.00  0.00    +0.000 C 
ATOM     10  O   UNL     1       6.701   5.055  18.829  0.00  0.00    +0.000 OA
ATOM     11  H   UNL     1       5.044   5.909  16.232  0.00  0.00    +0.000 HD
BRANCH   9  12
ATOM     12  C   UNL     1       7.345   6.538  17.109  0.00  0.00    +0.000 C 
BRANCH  12  13
ATOM     13  C   UNL     1       7.878   7.639  17.971  0.00  0.00    +0.000 C 
ATOM     14  O   UNL     1       7.832   8.827  17.683  0.00  0.00    +0.000 OA
BRANCH  13  15
ATOM     15  O   UNL     1       8.505   7.196  19.086  0.00  0.00    +0.000 OA
ATOM     16  H   UNL     1       9.480   7.224  19.055  0.00  0.00    +0.000 HD
ENDBRANCH  13  15
ENDBRANCH  12  13
ENDBRANCH   9  12
ENDBRANCH   5   8
BRANCH   6  17
ATOM     17  N   UNL     1       2.858   6.685  18.592  0.00  0.00    +0.000 N 
ATOM     18  O   UNL     1       2.466   7.031  19.720  0.00  0.00    +0.000 OA
ATOM     19  O   UNL     1       3.190   7.486  17.705  0.00  0.00    +0.000 OA
ENDBRANCH   6  17
TORSDOF 5
ENDMDL
