MODEL 1
REMARK VINA RESULT:      -7.3      0.000      0.000
REMARK  Name = 
REMARK  6 active torsions:
REMARK  status: ('A' for Active; 'I' for Inactive)
REMARK    1  A    between atoms: C_1  and  O_2
REMARK    2  A    between atoms: O_2  and  C_3
REMARK    3  A    between atoms: C_5  and  O_6
REMARK    4  A    between atoms: C_9  and  C_10
REMARK    5  A    between atoms: C_14  and  O_15
REMARK    6  A    between atoms: O_15  and  C_16
REMARK                            x       y       z     vdW  Elec       q    Type
REMARK                         _______ _______ _______ _____ _____    ______ ____
ROOT
ATOM      1  C   UNL     1       5.784   5.398  15.798  0.00  0.00    +0.000 A 
ATOM      2  C   UNL     1       5.729   4.274  16.633  0.00  0.00    +0.000 A 
ATOM      3  C   UNL     1       4.953   4.288  17.806  0.00  0.00    +0.000 A 
ATOM      4  C   UNL     1       4.227   5.442  18.143  0.00  0.00    +0.000 A 
ATOM      5  C   UNL     1       3.332   5.841  19.175  0.00  0.00    +0.000 A 
ATOM      6  C   UNL     1       2.922   7.121  18.866  0.00  0.00    +0.000 A 
ATOM      7  O   UNL     1       3.560   7.551  17.738  0.00  0.00    +0.000 OA
ATOM      8  C   UNL     1       4.320   6.528  17.285  0.00  0.00    +0.000 A 
ATOM      9  C   UNL     1       5.068   6.555  16.115  0.00  0.00    +0.000 A 
ENDROOT
BRANCH   6  10
ATOM     10  C   UNL     1       1.878   7.930  19.532  0.00  0.00    +0.000 A 
ATOM     11  C   UNL     1       1.468   7.636  20.822  0.00  0.00    +0.000 A 
ATOM     12  N   UNL     1       0.770   8.732  21.192  0.00  0.00    +0.000 N 
ATOM     13  N   UNL     1       0.359   9.133  22.403  0.00  0.00    +0.000 NA
ATOM     14  C   UNL     1      -0.084  10.344  22.230  0.00  0.00    +0.000 A 
ATOM     15  S   UNL     1      -0.088  11.009  20.574  0.00  0.00    +0.000 S 
ATOM     16  C   UNL     1       0.675   9.546  20.110  0.00  0.00    +0.000 A 
ATOM     17  N   UNL     1       1.328   9.111  19.063  0.00  0.00    +0.000 NA
BRANCH  14  18
ATOM     18  O   UNL     1      -0.501  11.128  23.255  0.00  0.00    +0.000 OA
ATOM     19  C   UNL     1      -1.677  11.901  22.977  0.00  0.00    +0.000 C 
ENDBRANCH  14  18
ENDBRANCH   6  10
BRANCH   1  21
ATOM     20  C   UNL     1       6.628   4.316  13.852  0.00  0.00    +0.000 C 
ATOM     21  O   UNL     1       6.491   5.497  14.629  0.00  0.00    +0.000 OA
ENDBRANCH   1  21
BRANCH   3  22
ATOM     22  O   UNL     1       4.885   3.182  18.611  0.00  0.00    +0.000 OA
ATOM     23  H   UNL     1       3.955   2.996  18.818  0.00  0.00    +0.000 HD
ENDBRANCH   3  22
TORSDOF 4
ENDMDL
MODEL 2
REMARK VINA RESULT:      -7.0      6.998      8.789
REMARK  Name = 
REMARK  6 active torsions:
REMARK  status: ('A' for Active; 'I' for Inactive)
REMARK    1  A    between atoms: C_1  and  O_2
REMARK    2  A    between atoms: O_2  and  C_3
REMARK    3  A    between atoms: C_5  and  O_6
REMARK    4  A    between atoms: C_9  and  C_10
REMARK    5  A    between atoms: C_14  and  O_15
REMARK    6  A    between atoms: O_15  and  C_16
REMARK                            x       y       z     vdW  Elec       q    Type
REMARK                         _______ _______ _______ _____ _____    ______ ____
ROOT
ATOM      1  C   UNL     1      11.397  13.099  18.392  0.00  0.00    +0.000 A 
ATOM      2  C   UNL     1      11.217  13.009  19.779  0.00  0.00    +0.000 A 
ATOM      3  C   UNL     1      10.407  12.003  20.334  0.00  0.00    +0.000 A 
ATOM      4  C   UNL     1       9.772  11.079  19.488  0.00  0.00    +0.000 A 
ATOM      5  C   UNL     1       8.934   9.938  19.639  0.00  0.00    +0.000 A 
ATOM      6  C   UNL     1       8.712   9.444  18.371  0.00  0.00    +0.000 A 
ATOM      7  O   UNL     1       9.314  10.251  17.448  0.00  0.00    +0.000 OA
ATOM      8  C   UNL     1       9.979  11.215  18.123  0.00  0.00    +0.000 A 
ATOM      9  C   UNL     1      10.775  12.190  17.534  0.00  0.00    +0.000 A 
ENDROOT
BRANCH   6  10
ATOM     10  C   UNL     1       8.036   8.186  17.987  0.00  0.00    +0.000 A 
ATOM     11  C   UNL     1       8.223   7.027  18.723  0.00  0.00    +0.000 A 
ATOM     12  N   UNL     1       7.242   6.209  18.284  0.00  0.00    +0.000 N 
ATOM     13  N   UNL     1       6.766   5.068  18.801  0.00  0.00    +0.000 NA
ATOM     14  C   UNL     1       5.698   4.798  18.108  0.00  0.00    +0.000 A 
ATOM     15  S   UNL     1       5.280   5.880  16.753  0.00  0.00    +0.000 S 
ATOM     16  C   UNL     1       6.618   6.828  17.251  0.00  0.00    +0.000 A 
ATOM     17  N   UNL     1       7.059   8.038  17.018  0.00  0.00    +0.000 NA
BRANCH  14  18
ATOM     18  O   UNL     1       4.876   3.758  18.398  0.00  0.00    +0.000 OA
ATOM     19  C   UNL     1       3.844   3.523  17.431  0.00  0.00    +0.000 C 
ENDBRANCH  14  18
ENDBRANCH   6  10
BRANCH   1  21
ATOM     20  C   UNL     1      11.498  15.128  17.150  0.00  0.00    +0.000 C 
ATOM     21  O   UNL     1      12.169  14.024  17.741  0.00  0.00    +0.000 OA
ENDBRANCH   1  21
BRANCH   3  22
ATOM     22  O   UNL     1      10.247  11.904  21.692  0.00  0.00    +0.000 OA
ATOM     23  H   UNL     1      10.560  11.033  21.986  0.00  0.00    +0.000 HD
ENDBRANCH   3  22
TORSDOF 4
ENDMDL
MODEL 3
REMARK VINA RESULT:      -6.9      6.726      8.654
REMARK  Name = 
REMARK  6 active torsions:
REMARK  status: ('A' for Active; 'I' for Inactive)
REMARK    1  A    between atoms: C_1  and  O_2
REMARK    2  A    between atoms: O_2  and  C_3
REMARK    3  A    between atoms: C_5  and  O_6
REMARK    4  A    between atoms: C_9  and  C_10
REMARK    5  A    between atoms: C_14  and  O_15
REMARK    6  A    between atoms: O_15  and  C_16
REMARK                            x       y       z     vdW  Elec       q    Type
REMARK                         _______ _______ _______ _____ _____    ______ ____
ROOT
ATOM      1  C   UNL     1       9.820  13.672  18.112  0.00  0.00    +0.000 A 
ATOM      2  C   UNL     1      10.579  13.271  19.220  0.00  0.00    +0.000 A 
ATOM      3  C   UNL     1      10.485  11.960  19.719  0.00  0.00    +0.000 A 
ATOM      4  C   UNL     1       9.620  11.043  19.099  0.00  0.00    +0.000 A 
ATOM      5  C   UNL     1       9.270   9.673  19.261  0.00  0.00    +0.000 A 
ATOM      6  C   UNL     1       8.378   9.374  18.253  0.00  0.00    +0.000 A 
ATOM      7  O   UNL     1       8.115  10.496  17.520  0.00  0.00    +0.000 OA
ATOM      8  C   UNL     1       8.888  11.492  18.009  0.00  0.00    +0.000 A 
ATOM      9  C   UNL     1       8.955  12.775  17.481  0.00  0.00    +0.000 A 
ENDROOT
BRANCH   6  10
ATOM     10  C   UNL     1       7.831   8.051  17.882  0.00  0.00    +0.000 A 
ATOM     11  C   UNL     1       8.039   6.945  18.690  0.00  0.00    +0.000 A 
ATOM     12  N   UNL     1       7.162   6.034  18.217  0.00  0.00    +0.000 N 
ATOM     13  N   UNL     1       6.727   4.885  18.752  0.00  0.00    +0.000 NA
ATOM     14  C   UNL     1       5.745   4.502  17.990  0.00  0.00    +0.000 A 
ATOM     15  S   UNL     1       5.365   5.485  16.550  0.00  0.00    +0.000 S 
ATOM     16  C   UNL     1       6.584   6.556  17.105  0.00  0.00    +0.000 A 
ATOM     17  N   UNL     1       6.953   7.784  16.845  0.00  0.00    +0.000 NA
BRANCH  14  18
ATOM     18  O   UNL     1       4.980   3.417  18.266  0.00  0.00    +0.000 OA
ATOM     19  C   UNL     1       3.612   3.713  18.581  0.00  0.00    +0.000 C 
ENDBRANCH  14  18
ENDBRANCH   6  10
BRANCH   1  21
ATOM     20  C   UNL     1       8.827  15.828  17.927  0.00  0.00    +0.000 C 
ATOM     21  O   UNL     1       9.838  14.912  17.532  0.00  0.00    +0.000 OA
ENDBRANCH   1  21
BRANCH   3  22
ATOM     22  O   UNL     1      11.242  11.564  20.790  0.00  0.00    +0.000 OA
ATOM     23  H   UNL     1      10.729  11.690  21.605  0.00  0.00    +0.000 HD
ENDBRANCH   3  22
TORSDOF 4
ENDMDL
MODEL 4
REMARK VINA RESULT:      -6.9      1.815      2.168
REMARK  Name = 
REMARK  6 active torsions:
REMARK  status: ('A' for Active; 'I' for Inactive)
REMARK    1  A    between atoms: C_1  and  O_2
REMARK    2  A    between atoms: O_2  and  C_3
REMARK    3  A    between atoms: C_5  and  O_6
REMARK    4  A    between atoms: C_9  and  C_10
REMARK    5  A    between atoms: C_14  and  O_15
REMARK    6  A    between atoms: O_15  and  C_16
REMARK                            x       y       z     vdW  Elec       q    Type
REMARK                         _______ _______ _______ _____ _____    ______ ____
ROOT
ATOM      1  C   UNL     1       5.884   4.590  15.148  0.00  0.00    +0.000 A 
ATOM      2  C   UNL     1       5.438   3.508  15.917  0.00  0.00    +0.000 A 
ATOM      3  C   UNL     1       4.583   3.710  17.016  0.00  0.00    +0.000 A 
ATOM      4  C   UNL     1       4.175   5.013  17.344  0.00  0.00    +0.000 A 
ATOM      5  C   UNL     1       3.327   5.622  18.312  0.00  0.00    +0.000 A 
ATOM      6  C   UNL     1       3.319   6.973  18.032  0.00  0.00    +0.000 A 
ATOM      7  O   UNL     1       4.160   7.234  16.988  0.00  0.00    +0.000 OA
ATOM      8  C   UNL     1       4.649   6.050  16.554  0.00  0.00    +0.000 A 
ATOM      9  C   UNL     1       5.488   5.893  15.458  0.00  0.00    +0.000 A 
ENDROOT
BRANCH   6  10
ATOM     10  C   UNL     1       2.479   8.026  18.642  0.00  0.00    +0.000 A 
ATOM     11  C   UNL     1       2.021   9.093  17.887  0.00  0.00    +0.000 A 
ATOM     12  N   UNL     1       1.068   9.649  18.666  0.00  0.00    +0.000 N 
ATOM     13  N   UNL     1       0.111  10.539  18.369  0.00  0.00    +0.000 NA
ATOM     14  C   UNL     1      -0.658  10.578  19.417  0.00  0.00    +0.000 A 
ATOM     15  S   UNL     1      -0.201   9.593  20.832  0.00  0.00    +0.000 S 
ATOM     16  C   UNL     1       1.085   9.007  19.862  0.00  0.00    +0.000 A 
ATOM     17  N   UNL     1       1.928   8.008  19.912  0.00  0.00    +0.000 NA
BRANCH  14  18
ATOM     18  O   UNL     1      -1.805  11.301  19.461  0.00  0.00    +0.000 OA
ATOM     19  C   UNL     1      -2.651  11.152  18.313  0.00  0.00    +0.000 C 
ENDBRANCH  14  18
ENDBRANCH   6  10
BRANCH   1  21
ATOM     20  C   UNL     1       6.281   3.682  12.983  0.00  0.00    +0.000 C 
ATOM     21  O   UNL     1       6.703   4.514  14.054  0.00  0.00    +0.000 OA
ENDBRANCH   1  21
BRANCH   3  22
ATOM     22  O   UNL     1       4.132   2.649  17.755  0.00  0.00    +0.000 OA
ATOM     23  H   UNL     1       4.447   1.824  17.352  0.00  0.00    +0.000 HD
ENDBRANCH   3  22
TORSDOF 4
ENDMDL
MODEL 5
REMARK VINA RESULT:      -6.9      2.882      8.397
REMARK  Name = 
REMARK  6 active torsions:
REMARK  status: ('A' for Active; 'I' for Inactive)
REMARK    1  A    between atoms: C_1  and  O_2
REMARK    2  A    between atoms: O_2  and  C_3
REMARK    3  A    between atoms: C_5  and  O_6
REMARK    4  A    between atoms: C_9  and  C_10
REMARK    5  A    between atoms: C_14  and  O_15
REMARK    6  A    between atoms: O_15  and  C_16
REMARK                            x       y       z     vdW  Elec       q    Type
REMARK                         _______ _______ _______ _____ _____    ______ ____
ROOT
ATOM      1  C   UNL     1      -1.111  11.759  21.232  0.00  0.00    +0.000 A 
ATOM      2  C   UNL     1      -0.945  11.202  22.507  0.00  0.00    +0.000 A 
ATOM      3  C   UNL     1      -0.212  10.015  22.684  0.00  0.00    +0.000 A 
ATOM      4  C   UNL     1       0.357   9.380  21.567  0.00  0.00    +0.000 A 
ATOM      5  C   UNL     1       1.164   8.234  21.325  0.00  0.00    +0.000 A 
ATOM      6  C   UNL     1       1.424   8.216  19.971  0.00  0.00    +0.000 A 
ATOM      7  O   UNL     1       0.773   9.250  19.361  0.00  0.00    +0.000 OA
ATOM      8  C   UNL     1       0.158   9.969  20.327  0.00  0.00    +0.000 A 
ATOM      9  C   UNL     1      -0.552  11.143  20.110  0.00  0.00    +0.000 A 
ENDROOT
BRANCH   6  10
ATOM     10  C   UNL     1       2.341   7.323  19.229  0.00  0.00    +0.000 A 
ATOM     11  C   UNL     1       2.872   7.707  18.009  0.00  0.00    +0.000 A 
ATOM     12  N   UNL     1       3.866   6.816  17.800  0.00  0.00    +0.000 N 
ATOM     13  N   UNL     1       4.884   6.838  16.928  0.00  0.00    +0.000 NA
ATOM     14  C   UNL     1       5.657   5.853  17.281  0.00  0.00    +0.000 A 
ATOM     15  S   UNL     1       5.134   4.817  18.636  0.00  0.00    +0.000 S 
ATOM     16  C   UNL     1       3.806   5.890  18.790  0.00  0.00    +0.000 A 
ATOM     17  N   UNL     1       2.893   6.141  19.692  0.00  0.00    +0.000 NA
BRANCH  14  18
ATOM     18  O   UNL     1       6.853   5.609  16.689  0.00  0.00    +0.000 OA
ATOM     19  C   UNL     1       7.629   4.574  17.310  0.00  0.00    +0.000 C 
ENDBRANCH  14  18
ENDBRANCH   6  10
BRANCH   1  21
ATOM     20  C   UNL     1      -3.127  12.781  20.486  0.00  0.00    +0.000 C 
ATOM     21  O   UNL     1      -1.789  12.912  20.941  0.00  0.00    +0.000 OA
ENDBRANCH   1  21
BRANCH   3  22
ATOM     22  O   UNL     1      -0.034   9.483  23.933  0.00  0.00    +0.000 OA
ATOM     23  H   UNL     1      -0.750   8.852  24.115  0.00  0.00    +0.000 HD
ENDBRANCH   3  22
TORSDOF 4
ENDMDL
MODEL 6
REMARK VINA RESULT:      -6.9      1.785      2.912
REMARK  Name = 
REMARK  6 active torsions:
REMARK  status: ('A' for Active; 'I' for Inactive)
REMARK    1  A    between atoms: C_1  and  O_2
REMARK    2  A    between atoms: O_2  and  C_3
REMARK    3  A    between atoms: C_5  and  O_6
REMARK    4  A    between atoms: C_9  and  C_10
REMARK    5  A    between atoms: C_14  and  O_15
REMARK    6  A    between atoms: O_15  and  C_16
REMARK                            x       y       z     vdW  Elec       q    Type
REMARK                         _______ _______ _______ _____ _____    ______ ____
ROOT
ATOM      1  C   UNL     1       4.739   4.423  18.737  0.00  0.00    +0.000 A 
ATOM      2  C   UNL     1       5.154   4.979  17.520  0.00  0.00    +0.000 A 
ATOM      3  C   UNL     1       4.607   6.190  17.059  0.00  0.00    +0.000 A 
ATOM      4  C   UNL     1       3.632   6.846  17.827  0.00  0.00    +0.000 A 
ATOM      5  C   UNL     1       2.883   8.054  17.742  0.00  0.00    +0.000 A 
ATOM      6  C   UNL     1       2.124   8.127  18.891  0.00  0.00    +0.000 A 
ATOM      7  O   UNL     1       2.319   7.005  19.646  0.00  0.00    +0.000 OA
ATOM      8  C   UNL     1       3.252   6.251  19.021  0.00  0.00    +0.000 A 
ATOM      9  C   UNL     1       3.771   5.062  19.516  0.00  0.00    +0.000 A 
ENDROOT
BRANCH   6  10
ATOM     10  C   UNL     1       1.291   9.253  19.364  0.00  0.00    +0.000 A 
ATOM     11  C   UNL     1       0.915   9.347  20.694  0.00  0.00    +0.000 A 
ATOM     12  N   UNL     1       0.455  10.612  20.807  0.00  0.00    +0.000 N 
ATOM     13  N   UNL     1       0.201  11.352  21.895  0.00  0.00    +0.000 NA
ATOM     14  C   UNL     1      -0.021  12.553  21.449  0.00  0.00    +0.000 A 
ATOM     15  S   UNL     1      -0.006  12.810  19.683  0.00  0.00    +0.000 S 
ATOM     16  C   UNL     1       0.444  11.160  19.565  0.00  0.00    +0.000 A 
ATOM     17  N   UNL     1       0.939  10.379  18.640  0.00  0.00    +0.000 NA
BRANCH  14  18
ATOM     18  O   UNL     1      -0.223  13.616  22.267  0.00  0.00    +0.000 OA
ATOM     19  C   UNL     1      -1.280  13.446  23.221  0.00  0.00    +0.000 C 
ENDBRANCH  14  18
ENDBRANCH   6  10
BRANCH   1  21
ATOM     20  C   UNL     1       4.264   2.432  19.953  0.00  0.00    +0.000 C 
ATOM     21  O   UNL     1       5.207   3.262  19.292  0.00  0.00    +0.000 OA
ENDBRANCH   1  21
BRANCH   3  22
ATOM     22  O   UNL     1       5.029   6.742  15.878  0.00  0.00    +0.000 OA
ATOM     23  H   UNL     1       4.404   6.503  15.174  0.00  0.00    +0.000 HD
ENDBRANCH   3  22
TORSDOF 4
ENDMDL
MODEL 7
REMARK VINA RESULT:      -6.7      6.370      8.534
REMARK  Name = 
REMARK  6 active torsions:
REMARK  status: ('A' for Active; 'I' for Inactive)
REMARK    1  A    between atoms: C_1  and  O_2
REMARK    2  A    between atoms: O_2  and  C_3
REMARK    3  A    between atoms: C_5  and  O_6
REMARK    4  A    between atoms: C_9  and  C_10
REMARK    5  A    between atoms: C_14  and  O_15
REMARK    6  A    between atoms: O_15  and  C_16
REMARK                            x       y       z     vdW  Elec       q    Type
REMARK                         _______ _______ _______ _____ _____    ______ ____
ROOT
ATOM      1  C   UNL     1      10.034  12.322  19.808  0.00  0.00    +0.000 A 
ATOM      2  C   UNL     1       9.359  12.953  18.755  0.00  0.00    +0.000 A 
ATOM      3  C   UNL     1       8.598  12.206  17.838  0.00  0.00    +0.000 A 
ATOM      4  C   UNL     1       8.517  10.811  17.981  0.00  0.00    +0.000 A 
ATOM      5  C   UNL     1       7.856   9.737  17.321  0.00  0.00    +0.000 A 
ATOM      6  C   UNL     1       8.164   8.593  18.028  0.00  0.00    +0.000 A 
ATOM      7  O   UNL     1       9.022   8.896  19.046  0.00  0.00    +0.000 OA
ATOM      8  C   UNL     1       9.208  10.235  19.037  0.00  0.00    +0.000 A 
ATOM      9  C   UNL     1       9.965  10.936  19.967  0.00  0.00    +0.000 A 
ENDROOT
BRANCH   6  10
ATOM     10  C   UNL     1       7.609   7.234  17.851  0.00  0.00    +0.000 A 
ATOM     11  C   UNL     1       7.514   6.361  18.922  0.00  0.00    +0.000 A 
ATOM     12  N   UNL     1       6.702   5.382  18.466  0.00  0.00    +0.000 N 
ATOM     13  N   UNL     1       6.050   4.415  19.125  0.00  0.00    +0.000 NA
ATOM     14  C   UNL     1       5.255   3.878  18.247  0.00  0.00    +0.000 A 
ATOM     15  S   UNL     1       5.329   4.479  16.568  0.00  0.00    +0.000 S 
ATOM     16  C   UNL     1       6.463   5.623  17.151  0.00  0.00    +0.000 A 
ATOM     17  N   UNL     1       6.993   6.737  16.715  0.00  0.00    +0.000 NA
BRANCH  14  18
ATOM     18  O   UNL     1       4.352   2.916  18.563  0.00  0.00    +0.000 OA
ATOM     19  C   UNL     1       4.404   2.471  19.925  0.00  0.00    +0.000 C 
ENDBRANCH  14  18
ENDBRANCH   6  10
BRANCH   1  21
ATOM     20  C   UNL     1      11.119  14.309  20.546  0.00  0.00    +0.000 C 
ATOM     21  O   UNL     1      10.791  12.944  20.764  0.00  0.00    +0.000 OA
ENDBRANCH   1  21
BRANCH   3  22
ATOM     22  O   UNL     1       7.923  12.826  16.820  0.00  0.00    +0.000 OA
ATOM     23  H   UNL     1       7.315  13.483  17.197  0.00  0.00    +0.000 HD
ENDBRANCH   3  22
TORSDOF 4
ENDMDL
MODEL 8
REMARK VINA RESULT:      -6.7      1.974      2.355
REMARK  Name = 
REMARK  6 active torsions:
REMARK  status: ('A' for Active; 'I' for Inactive)
REMARK    1  A    between atoms: C_1  and  O_2
REMARK    2  A    between atoms: O_2  and  C_3
REMARK    3  A    between atoms: C_5  and  O_6
REMARK    4  A    between atoms: C_9  and  C_10
REMARK    5  A    between atoms: C_14  and  O_15
REMARK    6  A    between atoms: O_15  and  C_16
REMARK                            x       y       z     vdW  Elec       q    Type
REMARK                         _______ _______ _______ _____ _____    ______ ____
ROOT
ATOM      1  C   UNL     1       5.122   4.082  16.456  0.00  0.00    +0.000 A 
ATOM      2  C   UNL     1       4.394   3.182  17.245  0.00  0.00    +0.000 A 
ATOM      3  C   UNL     1       3.428   3.644  18.156  0.00  0.00    +0.000 A 
ATOM      4  C   UNL     1       3.192   5.023  18.276  0.00  0.00    +0.000 A 
ATOM      5  C   UNL     1       2.318   5.866  19.019  0.00  0.00    +0.000 A 
ATOM      6  C   UNL     1       2.573   7.157  18.606  0.00  0.00    +0.000 A 
ATOM      7  O   UNL     1       3.594   7.159  17.698  0.00  0.00    +0.000 OA
ATOM      8  C   UNL     1       3.943   5.871  17.476  0.00  0.00    +0.000 A 
ATOM      9  C   UNL     1       4.902   5.458  16.560  0.00  0.00    +0.000 A 
ENDROOT
BRANCH   6  10
ATOM     10  C   UNL     1       1.833   8.389  18.954  0.00  0.00    +0.000 A 
ATOM     11  C   UNL     1       1.290   9.193  17.965  0.00  0.00    +0.000 A 
ATOM     12  N   UNL     1       0.455  10.011  18.643  0.00  0.00    +0.000 N 
ATOM     13  N   UNL     1      -0.524  10.814  18.202  0.00  0.00    +0.000 NA
ATOM     14  C   UNL     1      -1.145  11.216  19.272  0.00  0.00    +0.000 A 
ATOM     15  S   UNL     1      -0.512  10.694  20.857  0.00  0.00    +0.000 S 
ATOM     16  C   UNL     1       0.626   9.771  19.967  0.00  0.00    +0.000 A 
ATOM     17  N   UNL     1       1.458   8.794  20.223  0.00  0.00    +0.000 NA
BRANCH  14  18
ATOM     18  O   UNL     1      -2.267  11.976  19.229  0.00  0.00    +0.000 OA
ATOM     19  C   UNL     1      -3.268  11.514  18.311  0.00  0.00    +0.000 C 
ENDBRANCH  14  18
ENDBRANCH   6  10
BRANCH   1  21
ATOM     20  C   UNL     1       6.922   4.792  15.069  0.00  0.00    +0.000 C 
ATOM     21  O   UNL     1       6.074   3.751  15.530  0.00  0.00    +0.000 OA
ENDBRANCH   1  21
BRANCH   3  22
ATOM     22  O   UNL     1       2.703   2.761  18.913  0.00  0.00    +0.000 OA
ATOM     23  H   UNL     1       2.161   2.209  18.326  0.00  0.00    +0.000 HD
ENDBRANCH   3  22
TORSDOF 4
ENDMDL
MODEL 9
REMARK VINA RESULT:      -6.7      2.077      3.359
REMARK  Name = 
REMARK  6 active torsions:
REMARK  status: ('A' for Active; 'I' for Inactive)
REMARK    1  A    between atoms: C_1  and  O_2
REMARK    2  A    between atoms: O_2  and  C_3
REMARK    3  A    between atoms: C_5  and  O_6
REMARK    4  A    between atoms: C_9  and  C_10
REMARK    5  A    between atoms: C_14  and  O_15
REMARK    6  A    between atoms: O_15  and  C_16
REMARK                            x       y       z     vdW  Elec       q    Type
REMARK                         _______ _______ _______ _____ _____    ______ ____
ROOT
ATOM      1  C   UNL     1       4.642   4.463  18.934  0.00  0.00    +0.000 A 
ATOM      2  C   UNL     1       5.058   4.926  17.678  0.00  0.00    +0.000 A 
ATOM      3  C   UNL     1       4.524   6.106  17.133  0.00  0.00    +0.000 A 
ATOM      4  C   UNL     1       3.561   6.829  17.857  0.00  0.00    +0.000 A 
ATOM      5  C   UNL     1       2.827   8.036  17.688  0.00  0.00    +0.000 A 
ATOM      6  C   UNL     1       2.074   8.201  18.832  0.00  0.00    +0.000 A 
ATOM      7  O   UNL     1       2.259   7.134  19.665  0.00  0.00    +0.000 OA
ATOM      8  C   UNL     1       3.179   6.326  19.092  0.00  0.00    +0.000 A 
ATOM      9  C   UNL     1       3.685   5.168  19.669  0.00  0.00    +0.000 A 
ENDROOT
BRANCH   6  10
ATOM     10  C   UNL     1       1.257   9.369  19.227  0.00  0.00    +0.000 A 
ATOM     11  C   UNL     1       0.527  10.074  18.284  0.00  0.00    +0.000 A 
ATOM     12  N   UNL     1      -0.305  10.835  19.029  0.00  0.00    +0.000 N 
ATOM     13  N   UNL     1      -1.403  11.519  18.681  0.00  0.00    +0.000 NA
ATOM     14  C   UNL     1      -1.937  11.903  19.804  0.00  0.00    +0.000 A 
ATOM     15  S   UNL     1      -1.081  11.512  21.319  0.00  0.00    +0.000 S 
ATOM     16  C   UNL     1       0.038  10.667  20.332  0.00  0.00    +0.000 A 
ATOM     17  N   UNL     1       0.987   9.787  20.518  0.00  0.00    +0.000 NA
BRANCH  14  18
ATOM     18  O   UNL     1      -3.129  12.548  19.869  0.00  0.00    +0.000 OA
ATOM     19  C   UNL     1      -3.570  12.858  21.198  0.00  0.00    +0.000 C 
ENDBRANCH  14  18
ENDBRANCH   6  10
BRANCH   1  21
ATOM     20  C   UNL     1       4.129   2.386  19.977  0.00  0.00    +0.000 C 
ATOM     21  O   UNL     1       5.098   3.339  19.568  0.00  0.00    +0.000 OA
ENDBRANCH   1  21
BRANCH   3  22
ATOM     22  O   UNL     1       4.947   6.568  15.915  0.00  0.00    +0.000 OA
ATOM     23  H   UNL     1       4.397   6.175  15.218  0.00  0.00    +0.000 HD
ENDBRANCH   3  22
TORSDOF 4
ENDMDL
