MODEL 1
REMARK VINA RESULT:      -8.8      0.000      0.000
REMARK  Name = 
REMARK  12 active torsions:
REMARK  status: ('A' for Active; 'I' for Inactive)
REMARK    1  A    between atoms: C_1  and  O_2
REMARK    2  A    between atoms: O_2  and  C_3
REMARK    3  A    between atoms: C_5  and  C_6
REMARK    4  A    between atoms: C_6  and  N_7
REMARK    5  A    between atoms: C_18  and  N_19
REMARK    6  A    between atoms: C_20  and  C_22
REMARK    7  A    between atoms: C_22  and  N_23
REMARK    8  A    between atoms: C_22  and  C_24
REMARK    9  A    between atoms: C_24  and  C_25
REMARK   10  A    between atoms: C_24  and  C_26
REMARK   11  A    between atoms: C_31  and  O_32
REMARK   12  A    between atoms: O_32  and  C_33
REMARK                            x       y       z     vdW  Elec       q    Type
REMARK                         _______ _______ _______ _____ _____    ______ ____
ROOT
ATOM      1  N   UNL     1      -0.552  10.785  19.245  0.00  0.00    +0.000 N 
ATOM      2  C   UNL     1      -0.961  11.345  20.500  0.00  0.00    +0.000 A 
ATOM      3  C   UNL     1      -1.999  12.287  20.553  0.00  0.00    +0.000 A 
ATOM      4  C   UNL     1      -2.392  12.837  21.776  0.00  0.00    +0.000 A 
ATOM      5  C   UNL     1      -1.744  12.466  22.954  0.00  0.00    +0.000 A 
ATOM      6  C   UNL     1      -0.727  11.513  22.921  0.00  0.00    +0.000 A 
ATOM      7  C   UNL     1      -0.353  10.942  21.700  0.00  0.00    +0.000 A 
ATOM      8  C   UNL     1       0.619   9.823  21.667  0.00  0.00    +0.000 A 
ATOM      9  O   UNL     1       1.031   9.316  22.704  0.00  0.00    +0.000 OA
ATOM     10  C   UNL     1       1.068   9.326  20.348  0.00  0.00    +0.000 A 
ATOM     11  C   UNL     1       1.684   8.085  20.204  0.00  0.00    +0.000 A 
ATOM     12  C   UNL     1       1.984   7.612  18.921  0.00  0.00    +0.000 A 
ATOM     13  C   UNL     1       1.899   8.489  17.833  0.00  0.00    +0.000 A 
ATOM     14  C   UNL     1       1.250   9.713  17.971  0.00  0.00    +0.000 A 
ATOM     15  C   UNL     1       0.678  10.030  19.206  0.00  0.00    +0.000 A 
ENDROOT
BRANCH  12  16
ATOM     16  N   UNL     1       2.219   6.252  18.624  0.00  0.00    +0.000 N 
ATOM     17  C   UNL     1       3.269   5.489  19.093  0.00  0.00    +0.000 C 
ATOM     18  O   UNL     1       4.294   5.914  19.632  0.00  0.00    +0.000 OA
ATOM     19  H   UNL     1       1.464   5.758  18.169  0.00  0.00    +0.000 HD
BRANCH  17  20
ATOM     20  C   UNL     1       3.092   3.956  18.910  0.00  0.00    +0.000 C 
BRANCH  20  21
ATOM     21  N   UNL     1       4.084   3.289  19.782  0.00  0.00    +0.000 NA
ATOM     22  H   UNL     1       4.471   4.019  20.395  0.00  0.00    +0.000 HD
ATOM     23  H   UNL     1       4.887   3.021  19.210  0.00  0.00    +0.000 HD
ENDBRANCH  20  21
BRANCH  20  24
ATOM     24  C   UNL     1       1.651   3.512  19.294  0.00  0.00    +0.000 C 
ATOM     25  C   UNL     1       1.302   2.121  18.750  0.00  0.00    +0.000 C 
ATOM     26  C   UNL     1       1.437   3.510  20.815  0.00  0.00    +0.000 C 
ENDBRANCH  20  24
ENDBRANCH  17  20
ENDBRANCH  12  16
BRANCH   1  27
ATOM     27  C   UNL     1      -1.612   9.790  18.834  0.00  0.00    +0.000 C 
BRANCH  27  30
ATOM     28  C   UNL     1      -2.976  10.347  15.291  0.00  0.00    +0.000 A 
ATOM     29  C   UNL     1      -2.187   9.858  16.333  0.00  0.00    +0.000 A 
ATOM     30  C   UNL     1      -2.456  10.212  17.659  0.00  0.00    +0.000 A 
ATOM     31  C   UNL     1      -3.569  11.030  17.923  0.00  0.00    +0.000 A 
ATOM     32  C   UNL     1      -4.379  11.499  16.897  0.00  0.00    +0.000 A 
ATOM     33  C   UNL     1      -4.070  11.173  15.575  0.00  0.00    +0.000 A 
BRANCH  28  35
ATOM     34  C   UNL     1      -3.599   9.855  13.052  0.00  0.00    +0.000 C 
ATOM     35  O   UNL     1      -2.581   9.955  14.041  0.00  0.00    +0.000 OA
ENDBRANCH  28  35
BRANCH  32  36
ATOM     36  O   UNL     1      -5.426  12.283  17.297  0.00  0.00    +0.000 OA
ATOM     37  C   UNL     1      -6.072  11.897  18.504  0.00  0.00    +0.000 C 
ENDBRANCH  32  36
ENDBRANCH  27  30
ENDBRANCH   1  27
TORSDOF 8
ENDMDL
MODEL 2
REMARK VINA RESULT:      -8.7      0.469      2.178
REMARK  Name = 
REMARK  12 active torsions:
REMARK  status: ('A' for Active; 'I' for Inactive)
REMARK    1  A    between atoms: C_1  and  O_2
REMARK    2  A    between atoms: O_2  and  C_3
REMARK    3  A    between atoms: C_5  and  C_6
REMARK    4  A    between atoms: C_6  and  N_7
REMARK    5  A    between atoms: C_18  and  N_19
REMARK    6  A    between atoms: C_20  and  C_22
REMARK    7  A    between atoms: C_22  and  N_23
REMARK    8  A    between atoms: C_22  and  C_24
REMARK    9  A    between atoms: C_24  and  C_25
REMARK   10  A    between atoms: C_24  and  C_26
REMARK   11  A    between atoms: C_31  and  O_32
REMARK   12  A    between atoms: O_32  and  C_33
REMARK                            x       y       z     vdW  Elec       q    Type
REMARK                         _______ _______ _______ _____ _____    ______ ____
ROOT
ATOM      1  N   UNL     1      -0.246  10.600  19.192  0.00  0.00    +0.000 N 
ATOM      2  C   UNL     1      -0.744  11.147  20.418  0.00  0.00    +0.000 A 
ATOM      3  C   UNL     1      -1.766  12.108  20.404  0.00  0.00    +0.000 A 
ATOM      4  C   UNL     1      -2.247  12.646  21.601  0.00  0.00    +0.000 A 
ATOM      5  C   UNL     1      -1.702  12.245  22.821  0.00  0.00    +0.000 A 
ATOM      6  C   UNL     1      -0.703  11.273  22.853  0.00  0.00    +0.000 A 
ATOM      7  C   UNL     1      -0.242  10.714  21.657  0.00  0.00    +0.000 A 
ATOM      8  C   UNL     1       0.709   9.578  21.682  0.00  0.00    +0.000 A 
ATOM      9  O   UNL     1       1.028   9.047  22.740  0.00  0.00    +0.000 OA
ATOM     10  C   UNL     1       1.255   9.092  20.395  0.00  0.00    +0.000 A 
ATOM     11  C   UNL     1       1.858   7.843  20.280  0.00  0.00    +0.000 A 
ATOM     12  C   UNL     1       2.252   7.385  19.017  0.00  0.00    +0.000 A 
ATOM     13  C   UNL     1       2.271   8.281  17.941  0.00  0.00    +0.000 A 
ATOM     14  C   UNL     1       1.634   9.514  18.048  0.00  0.00    +0.000 A 
ATOM     15  C   UNL     1       0.971   9.822  19.238  0.00  0.00    +0.000 A 
ENDROOT
BRANCH  12  16
ATOM     16  N   UNL     1       2.486   6.026  18.717  0.00  0.00    +0.000 N 
ATOM     17  C   UNL     1       3.569   5.278  19.133  0.00  0.00    +0.000 C 
ATOM     18  O   UNL     1       4.617   5.718  19.612  0.00  0.00    +0.000 OA
ATOM     19  H   UNL     1       1.713   5.520  18.306  0.00  0.00    +0.000 HD
BRANCH  17  20
ATOM     20  C   UNL     1       3.400   3.741  18.969  0.00  0.00    +0.000 C 
BRANCH  20  21
ATOM     21  N   UNL     1       4.732   3.126  19.165  0.00  0.00    +0.000 NA
ATOM     22  H   UNL     1       4.990   3.296  20.146  0.00  0.00    +0.000 HD
ATOM     23  H   UNL     1       5.420   3.677  18.648  0.00  0.00    +0.000 HD
ENDBRANCH  20  21
BRANCH  20  24
ATOM     24  C   UNL     1       2.388   3.179  20.009  0.00  0.00    +0.000 C 
ATOM     25  C   UNL     1       2.269   4.071  21.251  0.00  0.00    +0.000 C 
ATOM     26  C   UNL     1       0.988   2.994  19.405  0.00  0.00    +0.000 C 
ENDBRANCH  20  24
ENDBRANCH  17  20
ENDBRANCH  12  16
BRANCH   1  27
ATOM     27  C   UNL     1      -1.286   9.632  18.680  0.00  0.00    +0.000 C 
BRANCH  27  30
ATOM     28  C   UNL     1      -4.258  11.473  17.098  0.00  0.00    +0.000 A 
ATOM     29  C   UNL     1      -3.350  11.027  18.059  0.00  0.00    +0.000 A 
ATOM     30  C   UNL     1      -2.269  10.218  17.697  0.00  0.00    +0.000 A 
ATOM     31  C   UNL     1      -2.087   9.906  16.339  0.00  0.00    +0.000 A 
ATOM     32  C   UNL     1      -2.967  10.368  15.369  0.00  0.00    +0.000 A 
ATOM     33  C   UNL     1      -4.067  11.139  15.752  0.00  0.00    +0.000 A 
BRANCH  28  35
ATOM     34  C   UNL     1      -6.511  11.543  17.847  0.00  0.00    +0.000 C 
ATOM     35  O   UNL     1      -5.289  12.225  17.589  0.00  0.00    +0.000 OA
ENDBRANCH  28  35
BRANCH  32  36
ATOM     36  O   UNL     1      -2.670   9.991  14.089  0.00  0.00    +0.000 OA
ATOM     37  C   UNL     1      -3.772   9.889  13.195  0.00  0.00    +0.000 C 
ENDBRANCH  32  36
ENDBRANCH  27  30
ENDBRANCH   1  27
TORSDOF 8
ENDMDL
MODEL 3
REMARK VINA RESULT:      -8.6      0.707      2.204
REMARK  Name = 
REMARK  12 active torsions:
REMARK  status: ('A' for Active; 'I' for Inactive)
REMARK    1  A    between atoms: C_1  and  O_2
REMARK    2  A    between atoms: O_2  and  C_3
REMARK    3  A    between atoms: C_5  and  C_6
REMARK    4  A    between atoms: C_6  and  N_7
REMARK    5  A    between atoms: C_18  and  N_19
REMARK    6  A    between atoms: C_20  and  C_22
REMARK    7  A    between atoms: C_22  and  N_23
REMARK    8  A    between atoms: C_22  and  C_24
REMARK    9  A    between atoms: C_24  and  C_25
REMARK   10  A    between atoms: C_24  and  C_26
REMARK   11  A    between atoms: C_31  and  O_32
REMARK   12  A    between atoms: O_32  and  C_33
REMARK                            x       y       z     vdW  Elec       q    Type
REMARK                         _______ _______ _______ _____ _____    ______ ____
ROOT
ATOM      1  N   UNL     1      -0.387  10.818  19.308  0.00  0.00    +0.000 N 
ATOM      2  C   UNL     1      -0.876  11.555  20.436  0.00  0.00    +0.000 A 
ATOM      3  C   UNL     1      -1.839  12.560  20.264  0.00  0.00    +0.000 A 
ATOM      4  C   UNL     1      -2.311  13.283  21.363  0.00  0.00    +0.000 A 
ATOM      5  C   UNL     1      -1.814  13.023  22.641  0.00  0.00    +0.000 A 
ATOM      6  C   UNL     1      -0.875  12.010  22.831  0.00  0.00    +0.000 A 
ATOM      7  C   UNL     1      -0.424  11.268  21.734  0.00  0.00    +0.000 A 
ATOM      8  C   UNL     1       0.458  10.095  21.939  0.00  0.00    +0.000 A 
ATOM      9  O   UNL     1       0.724   9.697  23.067  0.00  0.00    +0.000 OA
ATOM     10  C   UNL     1       0.998   9.409  20.745  0.00  0.00    +0.000 A 
ATOM     11  C   UNL     1       1.530   8.124  20.816  0.00  0.00    +0.000 A 
ATOM     12  C   UNL     1       1.920   7.476  19.638  0.00  0.00    +0.000 A 
ATOM     13  C   UNL     1       2.012   8.214  18.452  0.00  0.00    +0.000 A 
ATOM     14  C   UNL     1       1.447   9.483  18.373  0.00  0.00    +0.000 A 
ATOM     15  C   UNL     1       0.780   9.988  19.492  0.00  0.00    +0.000 A 
ENDROOT
BRANCH  12  16
ATOM     16  N   UNL     1       2.080   6.077  19.531  0.00  0.00    +0.000 N 
ATOM     17  C   UNL     1       3.267   5.385  19.652  0.00  0.00    +0.000 C 
ATOM     18  O   UNL     1       4.400   5.871  19.623  0.00  0.00    +0.000 OA
ATOM     19  H   UNL     1       1.230   5.530  19.535  0.00  0.00    +0.000 HD
BRANCH  17  20
ATOM     20  C   UNL     1       3.109   3.851  19.851  0.00  0.00    +0.000 C 
BRANCH  20  21
ATOM     21  N   UNL     1       2.411   3.642  21.140  0.00  0.00    +0.000 NA
ATOM     22  H   UNL     1       2.931   2.906  21.637  0.00  0.00    +0.000 HD
ATOM     23  H   UNL     1       1.510   3.199  20.950  0.00  0.00    +0.000 HD
ENDBRANCH  20  21
BRANCH  20  24
ATOM     24  C   UNL     1       2.292   3.221  18.686  0.00  0.00    +0.000 C 
ATOM     25  C   UNL     1       3.066   2.110  17.963  0.00  0.00    +0.000 C 
ATOM     26  C   UNL     1       0.952   2.647  19.169  0.00  0.00    +0.000 C 
ENDBRANCH  20  24
ENDBRANCH  17  20
ENDBRANCH  12  16
BRANCH   1  27
ATOM     27  C   UNL     1      -1.473   9.848  18.904  0.00  0.00    +0.000 C 
BRANCH  27  30
ATOM     28  C   UNL     1      -4.402  11.511  17.065  0.00  0.00    +0.000 A 
ATOM     29  C   UNL     1      -3.541  11.139  18.098  0.00  0.00    +0.000 A 
ATOM     30  C   UNL     1      -2.413  10.356  17.839  0.00  0.00    +0.000 A 
ATOM     31  C   UNL     1      -2.137   9.993  16.510  0.00  0.00    +0.000 A 
ATOM     32  C   UNL     1      -2.970  10.382  15.469  0.00  0.00    +0.000 A 
ATOM     33  C   UNL     1      -4.117  11.127  15.749  0.00  0.00    +0.000 A 
BRANCH  28  35
ATOM     34  C   UNL     1      -6.579  11.522  18.018  0.00  0.00    +0.000 C 
ATOM     35  O   UNL     1      -5.488  12.244  17.460  0.00  0.00    +0.000 OA
ENDBRANCH  28  35
BRANCH  32  36
ATOM     36  O   UNL     1      -2.582   9.961  14.227  0.00  0.00    +0.000 OA
ATOM     37  C   UNL     1      -3.606   9.885  13.243  0.00  0.00    +0.000 C 
ENDBRANCH  32  36
ENDBRANCH  27  30
ENDBRANCH   1  27
TORSDOF 8
ENDMDL
MODEL 4
REMARK VINA RESULT:      -8.5      0.828      1.019
REMARK  Name = 
REMARK  12 active torsions:
REMARK  status: ('A' for Active; 'I' for Inactive)
REMARK    1  A    between atoms: C_1  and  O_2
REMARK    2  A    between atoms: O_2  and  C_3
REMARK    3  A    between atoms: C_5  and  C_6
REMARK    4  A    between atoms: C_6  and  N_7
REMARK    5  A    between atoms: C_18  and  N_19
REMARK    6  A    between atoms: C_20  and  C_22
REMARK    7  A    between atoms: C_22  and  N_23
REMARK    8  A    between atoms: C_22  and  C_24
REMARK    9  A    between atoms: C_24  and  C_25
REMARK   10  A    between atoms: C_24  and  C_26
REMARK   11  A    between atoms: C_31  and  O_32
REMARK   12  A    between atoms: O_32  and  C_33
REMARK                            x       y       z     vdW  Elec       q    Type
REMARK                         _______ _______ _______ _____ _____    ______ ____
ROOT
ATOM      1  N   UNL     1      -0.390  10.755  19.170  0.00  0.00    +0.000 N 
ATOM      2  C   UNL     1      -0.863  11.496  20.302  0.00  0.00    +0.000 A 
ATOM      3  C   UNL     1      -1.850  12.481  20.144  0.00  0.00    +0.000 A 
ATOM      4  C   UNL     1      -2.306  13.207  21.248  0.00  0.00    +0.000 A 
ATOM      5  C   UNL     1      -1.770  12.972  22.515  0.00  0.00    +0.000 A 
ATOM      6  C   UNL     1      -0.807  11.980  22.691  0.00  0.00    +0.000 A 
ATOM      7  C   UNL     1      -0.371  11.233  21.592  0.00  0.00    +0.000 A 
ATOM      8  C   UNL     1       0.539  10.080  21.786  0.00  0.00    +0.000 A 
ATOM      9  O   UNL     1       0.842   9.700  22.911  0.00  0.00    +0.000 OA
ATOM     10  C   UNL     1       1.060   9.389  20.586  0.00  0.00    +0.000 A 
ATOM     11  C   UNL     1       1.618   8.116  20.658  0.00  0.00    +0.000 A 
ATOM     12  C   UNL     1       1.989   7.461  19.477  0.00  0.00    +0.000 A 
ATOM     13  C   UNL     1       2.035   8.186  18.280  0.00  0.00    +0.000 A 
ATOM     14  C   UNL     1       1.444   9.443  18.202  0.00  0.00    +0.000 A 
ATOM     15  C   UNL     1       0.797   9.949  19.333  0.00  0.00    +0.000 A 
ENDROOT
BRANCH  12  16
ATOM     16  N   UNL     1       2.173   6.065  19.382  0.00  0.00    +0.000 N 
ATOM     17  C   UNL     1       3.385   5.406  19.348  0.00  0.00    +0.000 C 
ATOM     18  O   UNL     1       4.488   5.921  19.145  0.00  0.00    +0.000 OA
ATOM     19  H   UNL     1       1.348   5.496  19.520  0.00  0.00    +0.000 HD
BRANCH  17  20
ATOM     20  C   UNL     1       3.302   3.875  19.605  0.00  0.00    +0.000 C 
BRANCH  20  21
ATOM     21  N   UNL     1       1.927   3.578  20.065  0.00  0.00    +0.000 NA
ATOM     22  H   UNL     1       1.462   4.486  20.200  0.00  0.00    +0.000 HD
ATOM     23  H   UNL     1       1.979   3.204  21.014  0.00  0.00    +0.000 HD
ENDBRANCH  20  21
BRANCH  20  24
ATOM     24  C   UNL     1       3.622   3.076  18.309  0.00  0.00    +0.000 C 
ATOM     25  C   UNL     1       3.527   1.559  18.518  0.00  0.00    +0.000 C 
ATOM     26  C   UNL     1       2.695   3.468  17.149  0.00  0.00    +0.000 C 
ENDBRANCH  20  24
ENDBRANCH  17  20
ENDBRANCH  12  16
BRANCH   1  27
ATOM     27  C   UNL     1      -1.468   9.760  18.807  0.00  0.00    +0.000 C 
BRANCH  27  30
ATOM     28  C   UNL     1      -2.952  10.327  15.314  0.00  0.00    +0.000 A 
ATOM     29  C   UNL     1      -2.122   9.843  16.326  0.00  0.00    +0.000 A 
ATOM     30  C   UNL     1      -2.356  10.177  17.663  0.00  0.00    +0.000 A 
ATOM     31  C   UNL     1      -3.476  10.969  17.971  0.00  0.00    +0.000 A 
ATOM     32  C   UNL     1      -4.327  11.432  16.976  0.00  0.00    +0.000 A 
ATOM     33  C   UNL     1      -4.053  11.127  15.642  0.00  0.00    +0.000 A 
BRANCH  28  35
ATOM     34  C   UNL     1      -3.634   9.845  13.090  0.00  0.00    +0.000 C 
ATOM     35  O   UNL     1      -2.589   9.956  14.048  0.00  0.00    +0.000 OA
ENDBRANCH  28  35
BRANCH  32  36
ATOM     36  O   UNL     1      -5.377  12.190  17.417  0.00  0.00    +0.000 OA
ATOM     37  C   UNL     1      -5.551  12.259  18.827  0.00  0.00    +0.000 C 
ENDBRANCH  32  36
ENDBRANCH  27  30
ENDBRANCH   1  27
TORSDOF 8
ENDMDL
MODEL 5
REMARK VINA RESULT:      -8.5      1.019      1.353
REMARK  Name = 
REMARK  12 active torsions:
REMARK  status: ('A' for Active; 'I' for Inactive)
REMARK    1  A    between atoms: C_1  and  O_2
REMARK    2  A    between atoms: O_2  and  C_3
REMARK    3  A    between atoms: C_5  and  C_6
REMARK    4  A    between atoms: C_6  and  N_7
REMARK    5  A    between atoms: C_18  and  N_19
REMARK    6  A    between atoms: C_20  and  C_22
REMARK    7  A    between atoms: C_22  and  N_23
REMARK    8  A    between atoms: C_22  and  C_24
REMARK    9  A    between atoms: C_24  and  C_25
REMARK   10  A    between atoms: C_24  and  C_26
REMARK   11  A    between atoms: C_31  and  O_32
REMARK   12  A    between atoms: O_32  and  C_33
REMARK                            x       y       z     vdW  Elec       q    Type
REMARK                         _______ _______ _______ _____ _____    ______ ____
ROOT
ATOM      1  N   UNL     1      -0.555  10.819  19.248  0.00  0.00    +0.000 N 
ATOM      2  C   UNL     1      -1.018  11.387  20.479  0.00  0.00    +0.000 A 
ATOM      3  C   UNL     1      -2.091  12.291  20.485  0.00  0.00    +0.000 A 
ATOM      4  C   UNL     1      -2.537  12.850  21.686  0.00  0.00    +0.000 A 
ATOM      5  C   UNL     1      -1.907  12.527  22.888  0.00  0.00    +0.000 A 
ATOM      6  C   UNL     1      -0.856  11.612  22.901  0.00  0.00    +0.000 A 
ATOM      7  C   UNL     1      -0.428  11.031  21.703  0.00  0.00    +0.000 A 
ATOM      8  C   UNL     1       0.585   9.950  21.719  0.00  0.00    +0.000 A 
ATOM      9  O   UNL     1       0.988   9.479  22.776  0.00  0.00    +0.000 OA
ATOM     10  C   UNL     1       1.088   9.443  20.422  0.00  0.00    +0.000 A 
ATOM     11  C   UNL     1       1.753   8.224  20.321  0.00  0.00    +0.000 A 
ATOM     12  C   UNL     1       2.104   7.737  19.056  0.00  0.00    +0.000 A 
ATOM     13  C   UNL     1       2.017   8.589  17.948  0.00  0.00    +0.000 A 
ATOM     14  C   UNL     1       1.319   9.789  18.043  0.00  0.00    +0.000 A 
ATOM     15  C   UNL     1       0.703  10.109  19.256  0.00  0.00    +0.000 A 
ENDROOT
BRANCH  12  16
ATOM     16  N   UNL     1       2.397   6.382  18.794  0.00  0.00    +0.000 N 
ATOM     17  C   UNL     1       1.968   5.300  19.536  0.00  0.00    +0.000 C 
ATOM     18  O   UNL     1       1.479   5.342  20.668  0.00  0.00    +0.000 OA
ATOM     19  H   UNL     1       2.815   6.181  17.895  0.00  0.00    +0.000 HD
BRANCH  17  20
ATOM     20  C   UNL     1       2.128   3.923  18.833  0.00  0.00    +0.000 C 
BRANCH  20  21
ATOM     21  N   UNL     1       1.203   3.906  17.678  0.00  0.00    +0.000 NA
ATOM     22  H   UNL     1       1.746   3.561  16.874  0.00  0.00    +0.000 HD
ATOM     23  H   UNL     1       0.996   4.872  17.417  0.00  0.00    +0.000 HD
ENDBRANCH  20  21
BRANCH  20  24
ATOM     24  C   UNL     1       3.593   3.710  18.356  0.00  0.00    +0.000 C 
ATOM     25  C   UNL     1       4.574   3.557  19.526  0.00  0.00    +0.000 C 
ATOM     26  C   UNL     1       3.726   2.481  17.443  0.00  0.00    +0.000 C 
ENDBRANCH  20  24
ENDBRANCH  17  20
ENDBRANCH  12  16
BRANCH   1  27
ATOM     27  C   UNL     1      -1.566   9.776  18.830  0.00  0.00    +0.000 C 
BRANCH  27  30
ATOM     28  C   UNL     1      -3.009  10.326  15.317  0.00  0.00    +0.000 A 
ATOM     29  C   UNL     1      -2.181   9.859  16.339  0.00  0.00    +0.000 A 
ATOM     30  C   UNL     1      -2.448  10.176  17.674  0.00  0.00    +0.000 A 
ATOM     31  C   UNL     1      -3.596  10.932  17.969  0.00  0.00    +0.000 A 
ATOM     32  C   UNL     1      -4.444  11.377  16.964  0.00  0.00    +0.000 A 
ATOM     33  C   UNL     1      -4.139  11.090  15.632  0.00  0.00    +0.000 A 
BRANCH  28  35
ATOM     34  C   UNL     1      -3.640   9.841  13.079  0.00  0.00    +0.000 C 
ATOM     35  O   UNL     1      -2.614   9.977  14.055  0.00  0.00    +0.000 OA
ENDBRANCH  28  35
BRANCH  32  36
ATOM     36  O   UNL     1      -5.523  12.100  17.393  0.00  0.00    +0.000 OA
ATOM     37  C   UNL     1      -6.535  11.370  18.075  0.00  0.00    +0.000 C 
ENDBRANCH  32  36
ENDBRANCH  27  30
ENDBRANCH   1  27
TORSDOF 8
ENDMDL
MODEL 6
REMARK VINA RESULT:      -8.4      0.805      2.261
REMARK  Name = 
REMARK  12 active torsions:
REMARK  status: ('A' for Active; 'I' for Inactive)
REMARK    1  A    between atoms: C_1  and  O_2
REMARK    2  A    between atoms: O_2  and  C_3
REMARK    3  A    between atoms: C_5  and  C_6
REMARK    4  A    between atoms: C_6  and  N_7
REMARK    5  A    between atoms: C_18  and  N_19
REMARK    6  A    between atoms: C_20  and  C_22
REMARK    7  A    between atoms: C_22  and  N_23
REMARK    8  A    between atoms: C_22  and  C_24
REMARK    9  A    between atoms: C_24  and  C_25
REMARK   10  A    between atoms: C_24  and  C_26
REMARK   11  A    between atoms: C_31  and  O_32
REMARK   12  A    between atoms: O_32  and  C_33
REMARK                            x       y       z     vdW  Elec       q    Type
REMARK                         _______ _______ _______ _____ _____    ______ ____
ROOT
ATOM      1  N   UNL     1      -0.738  11.050  19.349  0.00  0.00    +0.000 N 
ATOM      2  C   UNL     1      -1.226  11.460  20.632  0.00  0.00    +0.000 A 
ATOM      3  C   UNL     1      -2.345  12.301  20.731  0.00  0.00    +0.000 A 
ATOM      4  C   UNL     1      -2.817  12.705  21.984  0.00  0.00    +0.000 A 
ATOM      5  C   UNL     1      -2.167  12.290  23.147  0.00  0.00    +0.000 A 
ATOM      6  C   UNL     1      -1.069  11.434  23.065  0.00  0.00    +0.000 A 
ATOM      7  C   UNL     1      -0.615  11.007  21.813  0.00  0.00    +0.000 A 
ATOM      8  C   UNL     1       0.453   9.984  21.717  0.00  0.00    +0.000 A 
ATOM      9  O   UNL     1       0.883   9.426  22.719  0.00  0.00    +0.000 OA
ATOM     10  C   UNL     1       0.978   9.645  20.375  0.00  0.00    +0.000 A 
ATOM     11  C   UNL     1       1.705   8.480  20.146  0.00  0.00    +0.000 A 
ATOM     12  C   UNL     1       2.078   8.150  18.838  0.00  0.00    +0.000 A 
ATOM     13  C   UNL     1       1.943   9.108  17.827  0.00  0.00    +0.000 A 
ATOM     14  C   UNL     1       1.184  10.254  18.047  0.00  0.00    +0.000 A 
ATOM     15  C   UNL     1       0.555  10.411  19.285  0.00  0.00    +0.000 A 
ENDROOT
BRANCH  12  16
ATOM     16  N   UNL     1       2.440   6.846  18.434  0.00  0.00    +0.000 N 
ATOM     17  C   UNL     1       2.215   5.684  19.144  0.00  0.00    +0.000 C 
ATOM     18  O   UNL     1       1.896   5.608  20.334  0.00  0.00    +0.000 OA
ATOM     19  H   UNL     1       2.737   6.743  17.473  0.00  0.00    +0.000 HD
BRANCH  17  20
ATOM     20  C   UNL     1       2.384   4.376  18.322  0.00  0.00    +0.000 C 
BRANCH  20  21
ATOM     21  N   UNL     1       3.761   4.367  17.783  0.00  0.00    +0.000 NA
ATOM     22  H   UNL     1       3.741   4.930  16.922  0.00  0.00    +0.000 HD
ATOM     23  H   UNL     1       3.966   3.428  17.438  0.00  0.00    +0.000 HD
ENDBRANCH  20  21
BRANCH  20  24
ATOM     24  C   UNL     1       2.144   3.124  19.215  0.00  0.00    +0.000 C 
ATOM     25  C   UNL     1       0.870   2.363  18.826  0.00  0.00    +0.000 C 
ATOM     26  C   UNL     1       3.330   2.149  19.165  0.00  0.00    +0.000 C 
ENDBRANCH  20  24
ENDBRANCH  17  20
ENDBRANCH  12  16
BRANCH   1  27
ATOM     27  C   UNL     1      -1.695  10.007  18.820  0.00  0.00    +0.000 C 
BRANCH  27  30
ATOM     28  C   UNL     1      -4.559  11.593  16.819  0.00  0.00    +0.000 A 
ATOM     29  C   UNL     1      -3.739  11.256  17.896  0.00  0.00    +0.000 A 
ATOM     30  C   UNL     1      -2.593  10.478  17.705  0.00  0.00    +0.000 A 
ATOM     31  C   UNL     1      -2.259  10.085  16.397  0.00  0.00    +0.000 A 
ATOM     32  C   UNL     1      -3.051  10.439  15.313  0.00  0.00    +0.000 A 
ATOM     33  C   UNL     1      -4.216  11.179  15.527  0.00  0.00    +0.000 A 
BRANCH  28  35
ATOM     34  C   UNL     1      -6.647  11.676  17.950  0.00  0.00    +0.000 C 
ATOM     35  O   UNL     1      -5.666  12.325  17.149  0.00  0.00    +0.000 OA
ENDBRANCH  28  35
BRANCH  32  36
ATOM     36  O   UNL     1      -2.608   9.991  14.099  0.00  0.00    +0.000 OA
ATOM     37  C   UNL     1      -3.601   9.814  13.096  0.00  0.00    +0.000 C 
ENDBRANCH  32  36
ENDBRANCH  27  30
ENDBRANCH   1  27
TORSDOF 8
ENDMDL
MODEL 7
REMARK VINA RESULT:      -8.3      1.292      2.576
REMARK  Name = 
REMARK  12 active torsions:
REMARK  status: ('A' for Active; 'I' for Inactive)
REMARK    1  A    between atoms: C_1  and  O_2
REMARK    2  A    between atoms: O_2  and  C_3
REMARK    3  A    between atoms: C_5  and  C_6
REMARK    4  A    between atoms: C_6  and  N_7
REMARK    5  A    between atoms: C_18  and  N_19
REMARK    6  A    between atoms: C_20  and  C_22
REMARK    7  A    between atoms: C_22  and  N_23
REMARK    8  A    between atoms: C_22  and  C_24
REMARK    9  A    between atoms: C_24  and  C_25
REMARK   10  A    between atoms: C_24  and  C_26
REMARK   11  A    between atoms: C_31  and  O_32
REMARK   12  A    between atoms: O_32  and  C_33
REMARK                            x       y       z     vdW  Elec       q    Type
REMARK                         _______ _______ _______ _____ _____    ______ ____
ROOT
ATOM      1  N   UNL     1      -0.699  11.035  19.324  0.00  0.00    +0.000 N 
ATOM      2  C   UNL     1      -1.174  11.486  20.598  0.00  0.00    +0.000 A 
ATOM      3  C   UNL     1      -2.275  12.351  20.680  0.00  0.00    +0.000 A 
ATOM      4  C   UNL     1      -2.734  12.796  21.923  0.00  0.00    +0.000 A 
ATOM      5  C   UNL     1      -2.089  12.397  23.094  0.00  0.00    +0.000 A 
ATOM      6  C   UNL     1      -1.009  11.517  23.030  0.00  0.00    +0.000 A 
ATOM      7  C   UNL     1      -0.568  11.050  21.788  0.00  0.00    +0.000 A 
ATOM      8  C   UNL     1       0.479  10.003  21.713  0.00  0.00    +0.000 A 
ATOM      9  O   UNL     1       0.900   9.461  22.728  0.00  0.00    +0.000 OA
ATOM     10  C   UNL     1       0.991   9.620  20.379  0.00  0.00    +0.000 A 
ATOM     11  C   UNL     1       1.694   8.435  20.177  0.00  0.00    +0.000 A 
ATOM     12  C   UNL     1       2.055   8.065  18.876  0.00  0.00    +0.000 A 
ATOM     13  C   UNL     1       1.936   9.001  17.842  0.00  0.00    +0.000 A 
ATOM     14  C   UNL     1       1.202  10.167  18.036  0.00  0.00    +0.000 A 
ATOM     15  C   UNL     1       0.581  10.367  19.272  0.00  0.00    +0.000 A 
ENDROOT
BRANCH  12  16
ATOM     16  N   UNL     1       2.390   6.745  18.504  0.00  0.00    +0.000 N 
ATOM     17  C   UNL     1       3.535   6.355  17.839  0.00  0.00    +0.000 C 
ATOM     18  O   UNL     1       4.322   7.097  17.247  0.00  0.00    +0.000 OA
ATOM     19  H   UNL     1       1.824   6.010  18.907  0.00  0.00    +0.000 HD
BRANCH  17  20
ATOM     20  C   UNL     1       3.820   4.827  17.876  0.00  0.00    +0.000 C 
BRANCH  20  21
ATOM     21  N   UNL     1       4.656   4.505  16.699  0.00  0.00    +0.000 NA
ATOM     22  H   UNL     1       4.279   5.052  15.914  0.00  0.00    +0.000 HD
ATOM     23  H   UNL     1       4.463   3.541  16.420  0.00  0.00    +0.000 HD
ENDBRANCH  20  21
BRANCH  20  24
ATOM     24  C   UNL     1       4.557   4.430  19.188  0.00  0.00    +0.000 C 
ATOM     25  C   UNL     1       4.453   2.929  19.486  0.00  0.00    +0.000 C 
ATOM     26  C   UNL     1       6.042   4.819  19.151  0.00  0.00    +0.000 C 
ENDBRANCH  20  24
ENDBRANCH  17  20
ENDBRANCH  12  16
BRANCH   1  27
ATOM     27  C   UNL     1      -1.678   9.998  18.824  0.00  0.00    +0.000 C 
BRANCH  27  30
ATOM     28  C   UNL     1      -4.554  11.567  16.825  0.00  0.00    +0.000 A 
ATOM     29  C   UNL     1      -3.731  11.235  17.901  0.00  0.00    +0.000 A 
ATOM     30  C   UNL     1      -2.580  10.464  17.709  0.00  0.00    +0.000 A 
ATOM     31  C   UNL     1      -2.244  10.075  16.401  0.00  0.00    +0.000 A 
ATOM     32  C   UNL     1      -3.038  10.424  15.318  0.00  0.00    +0.000 A 
ATOM     33  C   UNL     1      -4.208  11.156  15.532  0.00  0.00    +0.000 A 
BRANCH  28  35
ATOM     34  C   UNL     1      -5.797  12.674  18.520  0.00  0.00    +0.000 C 
ATOM     35  O   UNL     1      -5.666  12.291  17.156  0.00  0.00    +0.000 OA
ENDBRANCH  28  35
BRANCH  32  36
ATOM     36  O   UNL     1      -2.592   9.981  14.103  0.00  0.00    +0.000 OA
ATOM     37  C   UNL     1      -3.583   9.807  13.097  0.00  0.00    +0.000 C 
ENDBRANCH  32  36
ENDBRANCH  27  30
ENDBRANCH   1  27
TORSDOF 8
ENDMDL
MODEL 8
REMARK VINA RESULT:      -8.3      1.043      2.379
REMARK  Name = 
REMARK  12 active torsions:
REMARK  status: ('A' for Active; 'I' for Inactive)
REMARK    1  A    between atoms: C_1  and  O_2
REMARK    2  A    between atoms: O_2  and  C_3
REMARK    3  A    between atoms: C_5  and  C_6
REMARK    4  A    between atoms: C_6  and  N_7
REMARK    5  A    between atoms: C_18  and  N_19
REMARK    6  A    between atoms: C_20  and  C_22
REMARK    7  A    between atoms: C_22  and  N_23
REMARK    8  A    between atoms: C_22  and  C_24
REMARK    9  A    between atoms: C_24  and  C_25
REMARK   10  A    between atoms: C_24  and  C_26
REMARK   11  A    between atoms: C_31  and  O_32
REMARK   12  A    between atoms: O_32  and  C_33
REMARK                            x       y       z     vdW  Elec       q    Type
REMARK                         _______ _______ _______ _____ _____    ______ ____
ROOT
ATOM      1  N   UNL     1      -0.696  11.016  19.401  0.00  0.00    +0.000 N 
ATOM      2  C   UNL     1      -1.204  11.590  20.612  0.00  0.00    +0.000 A 
ATOM      3  C   UNL     1      -2.289  12.478  20.576  0.00  0.00    +0.000 A 
ATOM      4  C   UNL     1      -2.781  13.042  21.757  0.00  0.00    +0.000 A 
ATOM      5  C   UNL     1      -2.184  12.740  22.981  0.00  0.00    +0.000 A 
ATOM      6  C   UNL     1      -1.120  11.840  23.036  0.00  0.00    +0.000 A 
ATOM      7  C   UNL     1      -0.647  11.254  21.857  0.00  0.00    +0.000 A 
ATOM      8  C   UNL     1       0.380  10.187  21.915  0.00  0.00    +0.000 A 
ATOM      9  O   UNL     1       0.756   9.732  22.988  0.00  0.00    +0.000 OA
ATOM     10  C   UNL     1       0.929   9.675  20.640  0.00  0.00    +0.000 A 
ATOM     11  C   UNL     1       1.614   8.465  20.571  0.00  0.00    +0.000 A 
ATOM     12  C   UNL     1       2.011   7.972  19.322  0.00  0.00    +0.000 A 
ATOM     13  C   UNL     1       1.946   8.811  18.204  0.00  0.00    +0.000 A 
ATOM     14  C   UNL     1       1.229  10.002  18.266  0.00  0.00    +0.000 A 
ATOM     15  C   UNL     1       0.571  10.325  19.455  0.00  0.00    +0.000 A 
ENDROOT
BRANCH  12  16
ATOM     16  N   UNL     1       2.331   6.618  19.083  0.00  0.00    +0.000 N 
ATOM     17  C   UNL     1       3.482   6.150  18.482  0.00  0.00    +0.000 C 
ATOM     18  O   UNL     1       4.293   6.822  17.839  0.00  0.00    +0.000 OA
ATOM     19  H   UNL     1       1.745   5.933  19.541  0.00  0.00    +0.000 HD
BRANCH  17  20
ATOM     20  C   UNL     1       3.741   4.628  18.668  0.00  0.00    +0.000 C 
BRANCH  20  21
ATOM     21  N   UNL     1       2.864   4.161  19.765  0.00  0.00    +0.000 NA
ATOM     22  H   UNL     1       1.922   4.062  19.363  0.00  0.00    +0.000 HD
ATOM     23  H   UNL     1       2.749   4.926  20.433  0.00  0.00    +0.000 HD
ENDBRANCH  20  21
BRANCH  20  24
ATOM     24  C   UNL     1       3.432   3.847  17.358  0.00  0.00    +0.000 C 
ATOM     25  C   UNL     1       4.688   3.603  16.512  0.00  0.00    +0.000 C 
ATOM     26  C   UNL     1       2.763   2.494  17.642  0.00  0.00    +0.000 C 
ENDBRANCH  20  24
ENDBRANCH  17  20
ENDBRANCH  12  16
BRANCH   1  27
ATOM     27  C   UNL     1      -1.679   9.956  18.963  0.00  0.00    +0.000 C 
BRANCH  27  30
ATOM     28  C   UNL     1      -4.750  11.292  17.090  0.00  0.00    +0.000 A 
ATOM     29  C   UNL     1      -3.883  10.983  18.139  0.00  0.00    +0.000 A 
ATOM     30  C   UNL     1      -2.642  10.390  17.887  0.00  0.00    +0.000 A 
ATOM     31  C   UNL     1      -2.266  10.159  16.553  0.00  0.00    +0.000 A 
ATOM     32  C   UNL     1      -3.107  10.490  15.499  0.00  0.00    +0.000 A 
ATOM     33  C   UNL     1      -4.362  11.040  15.769  0.00  0.00    +0.000 A 
BRANCH  28  35
ATOM     34  C   UNL     1      -6.312  13.069  16.875  0.00  0.00    +0.000 C 
ATOM     35  O   UNL     1      -5.946  11.833  17.476  0.00  0.00    +0.000 OA
ENDBRANCH  28  35
BRANCH  32  36
ATOM     36  O   UNL     1      -2.615  10.212  14.254  0.00  0.00    +0.000 OA
ATOM     37  C   UNL     1      -3.573   9.843  13.269  0.00  0.00    +0.000 C 
ENDBRANCH  32  36
ENDBRANCH  27  30
ENDBRANCH   1  27
TORSDOF 8
ENDMDL
MODEL 9
REMARK VINA RESULT:      -8.1      1.421      1.823
REMARK  Name = 
REMARK  12 active torsions:
REMARK  status: ('A' for Active; 'I' for Inactive)
REMARK    1  A    between atoms: C_1  and  O_2
REMARK    2  A    between atoms: O_2  and  C_3
REMARK    3  A    between atoms: C_5  and  C_6
REMARK    4  A    between atoms: C_6  and  N_7
REMARK    5  A    between atoms: C_18  and  N_19
REMARK    6  A    between atoms: C_20  and  C_22
REMARK    7  A    between atoms: C_22  and  N_23
REMARK    8  A    between atoms: C_22  and  C_24
REMARK    9  A    between atoms: C_24  and  C_25
REMARK   10  A    between atoms: C_24  and  C_26
REMARK   11  A    between atoms: C_31  and  O_32
REMARK   12  A    between atoms: O_32  and  C_33
REMARK                            x       y       z     vdW  Elec       q    Type
REMARK                         _______ _______ _______ _____ _____    ______ ____
ROOT
ATOM      1  N   UNL     1      -0.886  11.104  19.423  0.00  0.00    +0.000 N 
ATOM      2  C   UNL     1      -1.395  11.563  20.681  0.00  0.00    +0.000 A 
ATOM      3  C   UNL     1      -2.536  12.378  20.730  0.00  0.00    +0.000 A 
ATOM      4  C   UNL     1      -3.028  12.831  21.957  0.00  0.00    +0.000 A 
ATOM      5  C   UNL     1      -2.378  12.491  23.144  0.00  0.00    +0.000 A 
ATOM      6  C   UNL     1      -1.257  11.662  23.113  0.00  0.00    +0.000 A 
ATOM      7  C   UNL     1      -0.782  11.186  21.887  0.00  0.00    +0.000 A 
ATOM      8  C   UNL     1       0.313  10.188  21.849  0.00  0.00    +0.000 A 
ATOM      9  O   UNL     1       0.749   9.691  22.880  0.00  0.00    +0.000 OA
ATOM     10  C   UNL     1       0.857   9.797  20.529  0.00  0.00    +0.000 A 
ATOM     11  C   UNL     1       1.617   8.641  20.364  0.00  0.00    +0.000 A 
ATOM     12  C   UNL     1       2.008   8.256  19.076  0.00  0.00    +0.000 A 
ATOM     13  C   UNL     1       1.857   9.160  18.018  0.00  0.00    +0.000 A 
ATOM     14  C   UNL     1       1.067  10.295  18.175  0.00  0.00    +0.000 A 
ATOM     15  C   UNL     1       0.424  10.496  19.400  0.00  0.00    +0.000 A 
ENDROOT
BRANCH  12  16
ATOM     16  N   UNL     1       2.408   6.945  18.740  0.00  0.00    +0.000 N 
ATOM     17  C   UNL     1       3.492   6.602  17.957  0.00  0.00    +0.000 C 
ATOM     18  O   UNL     1       4.133   7.363  17.228  0.00  0.00    +0.000 OA
ATOM     19  H   UNL     1       1.962   6.197  19.253  0.00  0.00    +0.000 HD
BRANCH  17  20
ATOM     20  C   UNL     1       3.911   5.107  18.045  0.00  0.00    +0.000 C 
BRANCH  20  21
ATOM     21  N   UNL     1       2.791   4.302  17.510  0.00  0.00    +0.000 NA
ATOM     22  H   UNL     1       2.785   3.421  18.042  0.00  0.00    +0.000 HD
ATOM     23  H   UNL     1       3.034   3.998  16.566  0.00  0.00    +0.000 HD
ENDBRANCH  20  21
BRANCH  20  24
ATOM     24  C   UNL     1       5.206   4.844  17.223  0.00  0.00    +0.000 C 
ATOM     25  C   UNL     1       6.426   4.593  18.118  0.00  0.00    +0.000 C 
ATOM     26  C   UNL     1       5.047   3.652  16.268  0.00  0.00    +0.000 C 
ENDBRANCH  20  24
ENDBRANCH  17  20
ENDBRANCH  12  16
BRANCH   1  27
ATOM     27  C   UNL     1      -1.811  10.011  18.940  0.00  0.00    +0.000 C 
BRANCH  27  30
ATOM     28  C   UNL     1      -3.054  10.419  15.332  0.00  0.00    +0.000 A 
ATOM     29  C   UNL     1      -2.285   9.994  16.416  0.00  0.00    +0.000 A 
ATOM     30  C   UNL     1      -2.626  10.363  17.721  0.00  0.00    +0.000 A 
ATOM     31  C   UNL     1      -3.788  11.127  17.921  0.00  0.00    +0.000 A 
ATOM     32  C   UNL     1      -4.578  11.531  16.853  0.00  0.00    +0.000 A 
ATOM     33  C   UNL     1      -4.200  11.193  15.553  0.00  0.00    +0.000 A 
BRANCH  28  35
ATOM     34  C   UNL     1      -3.561   9.822  13.089  0.00  0.00    +0.000 C 
ATOM     35  O   UNL     1      -2.589  10.020  14.109  0.00  0.00    +0.000 OA
ENDBRANCH  28  35
BRANCH  32  36
ATOM     36  O   UNL     1      -5.679  12.269  17.191  0.00  0.00    +0.000 OA
ATOM     37  C   UNL     1      -5.801  12.618  18.565  0.00  0.00    +0.000 C 
ENDBRANCH  32  36
ENDBRANCH  27  30
ENDBRANCH   1  27
TORSDOF 8
ENDMDL
