MODEL 1
REMARK VINA RESULT:      -7.0      0.000      0.000
REMARK  Name = 
REMARK  15 active torsions:
REMARK  status: ('A' for Active; 'I' for Inactive)
REMARK    1  A    between atoms: C_1  and  C_2
REMARK    2  A    between atoms: C_2  and  O_3
REMARK    3  A    between atoms: O_3  and  P_4
REMARK    4  A    between atoms: P_4  and  C_6
REMARK    5  A    between atoms: P_4  and  O_27
REMARK    6  A    between atoms: C_6  and  C_7
REMARK    7  A    between atoms: C_7  and  C_8
REMARK    8  A    between atoms: C_8  and  C_9
REMARK    9  A    between atoms: C_9  and  N_10
REMARK   10  A    between atoms: C_12  and  C_13
REMARK   11  A    between atoms: C_13  and  N_14
REMARK   12  A    between atoms: C_19  and  C_20
REMARK   13  A    between atoms: C_21  and  C_22
REMARK   14  A    between atoms: O_27  and  C_28
REMARK   15  A    between atoms: C_28  and  C_29
REMARK                            x       y       z     vdW  Elec       q    Type
REMARK                         _______ _______ _______ _____ _____    ______ ____
ROOT
ATOM      1  N   UNL     1       1.451   8.925  19.668  0.00  0.00    +0.000 N 
ATOM      2  C   UNL     1       1.484   7.896  20.562  0.00  0.00    +0.000 A 
ATOM      3  C   UNL     1       2.106   6.869  19.888  0.00  0.00    +0.000 A 
ATOM      4  N   UNL     1       2.370   7.289  18.606  0.00  0.00    +0.000 NA
ATOM      5  N   UNL     1       1.960   8.549  18.483  0.00  0.00    +0.000 NA
ENDROOT
BRANCH   1   6
ATOM      6  C   UNL     1       0.946  10.265  19.892  0.00  0.00    +0.000 C 
BRANCH   6   7
ATOM      7  C   UNL     1      -0.587  10.344  19.861  0.00  0.00    +0.000 C 
BRANCH   7   8
ATOM      8  C   UNL     1      -1.084  10.971  18.563  0.00  0.00    +0.000 C 
BRANCH   8   9
ATOM      9  C   UNL     1      -2.400  11.753  18.714  0.00  0.00    +0.000 C 
BRANCH   9  10
ATOM     10  P   UNL     1      -3.786  11.144  17.498  0.00  0.00    +0.000 P 
ATOM     11  O   UNL     1      -3.865   9.620  17.665  0.00  0.00    +0.000 OA
BRANCH  10  12
ATOM     12  O   UNL     1      -2.577  10.955  16.275  0.00  0.00    +0.000 OA
BRANCH  12  14
ATOM     13  C   UNL     1      -3.606  10.163  14.256  0.00  0.00    +0.000 C 
ATOM     14  C   UNL     1      -2.802   9.793  15.482  0.00  0.00    +0.000 C 
ENDBRANCH  12  14
ENDBRANCH  10  12
BRANCH  10  15
ATOM     15  O   UNL     1      -4.997  11.333  18.721  0.00  0.00    +0.000 OA
BRANCH  15  16
ATOM     16  C   UNL     1      -5.060  12.599  19.357  0.00  0.00    +0.000 C 
ATOM     17  C   UNL     1      -5.384  12.398  20.825  0.00  0.00    +0.000 C 
ENDBRANCH  15  16
ENDBRANCH  10  15
ENDBRANCH   9  10
ENDBRANCH   8   9
ENDBRANCH   7   8
ENDBRANCH   6   7
ENDBRANCH   1   6
BRANCH   3  18
ATOM     18  C   UNL     1       2.414   5.483  20.353  0.00  0.00    +0.000 C 
BRANCH  18  19
ATOM     19  N   UNL     1       2.701   4.572  19.255  0.00  0.00    +0.000 N 
ATOM     20  C   UNL     1       1.727   3.952  18.521  0.00  0.00    +0.000 A 
ATOM     21  N   UNL     1       2.160   3.579  17.345  0.00  0.00    +0.000 NA
ATOM     22  C   UNL     1       3.479   3.936  17.340  0.00  0.00    +0.000 A 
ATOM     23  C   UNL     1       4.353   4.032  16.262  0.00  0.00    +0.000 A 
ATOM     24  C   UNL     1       5.457   4.821  16.564  0.00  0.00    +0.000 A 
ATOM     25  C   UNL     1       5.221   6.303  16.253  0.00  0.00    +0.000 C 
ATOM     26  C   UNL     1       6.091   4.649  17.794  0.00  0.00    +0.000 A 
ATOM     27  C   UNL     1       7.595   4.746  17.826  0.00  0.00    +0.000 C 
ATOM     28  C   UNL     1       5.260   4.584  18.911  0.00  0.00    +0.000 A 
ATOM     29  C   UNL     1       3.897   4.363  18.612  0.00  0.00    +0.000 A 
ENDBRANCH  18  19
ENDBRANCH   3  18
TORSDOF 11
ENDMDL
MODEL 2
REMARK VINA RESULT:      -6.9      6.843      9.423
REMARK  Name = 
REMARK  15 active torsions:
REMARK  status: ('A' for Active; 'I' for Inactive)
REMARK    1  A    between atoms: C_1  and  C_2
REMARK    2  A    between atoms: C_2  and  O_3
REMARK    3  A    between atoms: O_3  and  P_4
REMARK    4  A    between atoms: P_4  and  C_6
REMARK    5  A    between atoms: P_4  and  O_27
REMARK    6  A    between atoms: C_6  and  C_7
REMARK    7  A    between atoms: C_7  and  C_8
REMARK    8  A    between atoms: C_8  and  C_9
REMARK    9  A    between atoms: C_9  and  N_10
REMARK   10  A    between atoms: C_12  and  C_13
REMARK   11  A    between atoms: C_13  and  N_14
REMARK   12  A    between atoms: C_19  and  C_20
REMARK   13  A    between atoms: C_21  and  C_22
REMARK   14  A    between atoms: O_27  and  C_28
REMARK   15  A    between atoms: C_28  and  C_29
REMARK                            x       y       z     vdW  Elec       q    Type
REMARK                         _______ _______ _______ _____ _____    ______ ____
ROOT
ATOM      1  N   UNL     1       8.024   7.824  18.188  0.00  0.00    +0.000 N 
ATOM      2  C   UNL     1       7.765   6.653  18.833  0.00  0.00    +0.000 A 
ATOM      3  C   UNL     1       6.984   5.935  17.953  0.00  0.00    +0.000 A 
ATOM      4  N   UNL     1       6.753   6.716  16.845  0.00  0.00    +0.000 NA
ATOM      5  N   UNL     1       7.392   7.872  17.003  0.00  0.00    +0.000 NA
ENDROOT
BRANCH   1   6
ATOM      6  C   UNL     1       8.853   8.919  18.655  0.00  0.00    +0.000 C 
BRANCH   6   7
ATOM      7  C   UNL     1       8.558  10.245  17.939  0.00  0.00    +0.000 C 
BRANCH   7   8
ATOM      8  C   UNL     1       9.710  11.232  18.103  0.00  0.00    +0.000 C 
BRANCH   8   9
ATOM      9  C   UNL     1      10.155  11.430  19.562  0.00  0.00    +0.000 C 
BRANCH   9  10
ATOM     10  P   UNL     1       9.745  13.201  20.244  0.00  0.00    +0.000 P 
ATOM     11  O   UNL     1      11.095  13.873  20.534  0.00  0.00    +0.000 OA
BRANCH  10  12
ATOM     12  O   UNL     1       9.724  12.539  21.843  0.00  0.00    +0.000 OA
BRANCH  12  14
ATOM     13  C   UNL     1       7.534  12.387  22.813  0.00  0.00    +0.000 C 
ATOM     14  C   UNL     1       8.616  11.666  22.041  0.00  0.00    +0.000 C 
ENDBRANCH  12  14
ENDBRANCH  10  12
BRANCH  10  15
ATOM     15  O   UNL     1       9.766  13.864  18.646  0.00  0.00    +0.000 OA
BRANCH  15  16
ATOM     16  C   UNL     1      10.726  14.878  18.395  0.00  0.00    +0.000 C 
ATOM     17  C   UNL     1      11.239  14.731  16.976  0.00  0.00    +0.000 C 
ENDBRANCH  15  16
ENDBRANCH  10  15
ENDBRANCH   9  10
ENDBRANCH   8   9
ENDBRANCH   7   8
ENDBRANCH   6   7
ENDBRANCH   1   6
BRANCH   3  18
ATOM     18  C   UNL     1       6.382   4.578  18.113  0.00  0.00    +0.000 C 
BRANCH  18  19
ATOM     19  N   UNL     1       5.003   4.516  17.653  0.00  0.00    +0.000 N 
ATOM     20  C   UNL     1       4.575   3.654  16.681  0.00  0.00    +0.000 A 
ATOM     21  N   UNL     1       3.288   3.431  16.754  0.00  0.00    +0.000 NA
ATOM     22  C   UNL     1       2.866   4.217  17.789  0.00  0.00    +0.000 A 
ATOM     23  C   UNL     1       1.661   4.173  18.482  0.00  0.00    +0.000 A 
ATOM     24  C   UNL     1       1.753   4.809  19.715  0.00  0.00    +0.000 A 
ATOM     25  C   UNL     1       2.203   3.861  20.831  0.00  0.00    +0.000 C 
ATOM     26  C   UNL     1       2.406   6.038  19.790  0.00  0.00    +0.000 A 
ATOM     27  C   UNL     1       1.828   7.083  20.712  0.00  0.00    +0.000 C 
ATOM     28  C   UNL     1       3.636   6.123  19.142  0.00  0.00    +0.000 A 
ATOM     29  C   UNL     1       3.888   5.075  18.229  0.00  0.00    +0.000 A 
ENDBRANCH  18  19
ENDBRANCH   3  18
TORSDOF 11
ENDMDL
MODEL 3
REMARK VINA RESULT:      -6.8      4.678      9.276
REMARK  Name = 
REMARK  15 active torsions:
REMARK  status: ('A' for Active; 'I' for Inactive)
REMARK    1  A    between atoms: C_1  and  C_2
REMARK    2  A    between atoms: C_2  and  O_3
REMARK    3  A    between atoms: O_3  and  P_4
REMARK    4  A    between atoms: P_4  and  C_6
REMARK    5  A    between atoms: P_4  and  O_27
REMARK    6  A    between atoms: C_6  and  C_7
REMARK    7  A    between atoms: C_7  and  C_8
REMARK    8  A    between atoms: C_8  and  C_9
REMARK    9  A    between atoms: C_9  and  N_10
REMARK   10  A    between atoms: C_12  and  C_13
REMARK   11  A    between atoms: C_13  and  N_14
REMARK   12  A    between atoms: C_19  and  C_20
REMARK   13  A    between atoms: C_21  and  C_22
REMARK   14  A    between atoms: O_27  and  C_28
REMARK   15  A    between atoms: C_28  and  C_29
REMARK                            x       y       z     vdW  Elec       q    Type
REMARK                         _______ _______ _______ _____ _____    ______ ____
ROOT
ATOM      1  N   UNL     1       2.398   5.395  19.177  0.00  0.00    +0.000 N 
ATOM      2  C   UNL     1       2.456   6.577  18.502  0.00  0.00    +0.000 A 
ATOM      3  C   UNL     1       2.105   7.528  19.436  0.00  0.00    +0.000 A 
ATOM      4  N   UNL     1       1.792   6.886  20.610  0.00  0.00    +0.000 NA
ATOM      5  N   UNL     1       1.972   5.580  20.437  0.00  0.00    +0.000 NA
ENDROOT
BRANCH   1   6
ATOM      6  C   UNL     1       2.729   4.078  18.668  0.00  0.00    +0.000 C 
BRANCH   6   7
ATOM      7  C   UNL     1       3.999   3.490  19.301  0.00  0.00    +0.000 C 
BRANCH   7   8
ATOM      8  C   UNL     1       5.253   3.975  18.581  0.00  0.00    +0.000 C 
BRANCH   8   9
ATOM      9  C   UNL     1       5.054   4.202  17.072  0.00  0.00    +0.000 C 
BRANCH   9  10
ATOM     10  P   UNL     1       6.687   4.730  16.164  0.00  0.00    +0.000 P 
ATOM     11  O   UNL     1       6.318   5.929  15.280  0.00  0.00    +0.000 OA
BRANCH  10  12
ATOM     12  O   UNL     1       6.277   3.647  14.879  0.00  0.00    +0.000 OA
BRANCH  12  14
ATOM     13  C   UNL     1       5.864   3.426  12.525  0.00  0.00    +0.000 C 
ATOM     14  C   UNL     1       6.599   4.192  13.603  0.00  0.00    +0.000 C 
ENDBRANCH  12  14
ENDBRANCH  10  12
BRANCH  10  15
ATOM     15  O   UNL     1       7.097   5.814  17.449  0.00  0.00    +0.000 OA
BRANCH  15  16
ATOM     16  C   UNL     1       6.725   7.172  17.274  0.00  0.00    +0.000 C 
ATOM     17  C   UNL     1       7.892   8.058  17.664  0.00  0.00    +0.000 C 
ENDBRANCH  15  16
ENDBRANCH  10  15
ENDBRANCH   9  10
ENDBRANCH   8   9
ENDBRANCH   7   8
ENDBRANCH   6   7
ENDBRANCH   1   6
BRANCH   3  18
ATOM     18  C   UNL     1       1.980   9.008  19.276  0.00  0.00    +0.000 C 
BRANCH  18  19
ATOM     19  N   UNL     1       0.794   9.546  19.925  0.00  0.00    +0.000 N 
ATOM     20  C   UNL     1       0.736   9.838  21.260  0.00  0.00    +0.000 A 
ATOM     21  N   UNL     1      -0.199  10.712  21.532  0.00  0.00    +0.000 NA
ATOM     22  C   UNL     1      -0.793  10.959  20.327  0.00  0.00    +0.000 A 
ATOM     23  C   UNL     1      -1.651  11.995  19.973  0.00  0.00    +0.000 A 
ATOM     24  C   UNL     1      -1.706  12.169  18.595  0.00  0.00    +0.000 A 
ATOM     25  C   UNL     1      -0.638  13.141  18.084  0.00  0.00    +0.000 C 
ATOM     26  C   UNL     1      -1.810  11.044  17.778  0.00  0.00    +0.000 A 
ATOM     27  C   UNL     1      -2.691  11.143  16.559  0.00  0.00    +0.000 C 
ATOM     28  C   UNL     1      -0.946   9.991  18.069  0.00  0.00    +0.000 A 
ATOM     29  C   UNL     1      -0.332  10.073  19.338  0.00  0.00    +0.000 A 
ENDBRANCH  18  19
ENDBRANCH   3  18
TORSDOF 11
ENDMDL
MODEL 4
REMARK VINA RESULT:      -6.8      1.496      2.956
REMARK  Name = 
REMARK  15 active torsions:
REMARK  status: ('A' for Active; 'I' for Inactive)
REMARK    1  A    between atoms: C_1  and  C_2
REMARK    2  A    between atoms: C_2  and  O_3
REMARK    3  A    between atoms: O_3  and  P_4
REMARK    4  A    between atoms: P_4  and  C_6
REMARK    5  A    between atoms: P_4  and  O_27
REMARK    6  A    between atoms: C_6  and  C_7
REMARK    7  A    between atoms: C_7  and  C_8
REMARK    8  A    between atoms: C_8  and  C_9
REMARK    9  A    between atoms: C_9  and  N_10
REMARK   10  A    between atoms: C_12  and  C_13
REMARK   11  A    between atoms: C_13  and  N_14
REMARK   12  A    between atoms: C_19  and  C_20
REMARK   13  A    between atoms: C_21  and  C_22
REMARK   14  A    between atoms: O_27  and  C_28
REMARK   15  A    between atoms: C_28  and  C_29
REMARK                            x       y       z     vdW  Elec       q    Type
REMARK                         _______ _______ _______ _____ _____    ______ ____
ROOT
ATOM      1  N   UNL     1       1.532   9.002  19.832  0.00  0.00    +0.000 N 
ATOM      2  C   UNL     1       2.136   8.899  18.615  0.00  0.00    +0.000 A 
ATOM      3  C   UNL     1       2.655   7.623  18.591  0.00  0.00    +0.000 A 
ATOM      4  N   UNL     1       2.400   7.029  19.804  0.00  0.00    +0.000 NA
ATOM      5  N   UNL     1       1.715   7.885  20.557  0.00  0.00    +0.000 NA
ENDROOT
BRANCH   1   6
ATOM      6  C   UNL     1       0.782  10.131  20.346  0.00  0.00    +0.000 C 
BRANCH   6   7
ATOM      7  C   UNL     1      -0.731  10.006  20.111  0.00  0.00    +0.000 C 
BRANCH   7   8
ATOM      8  C   UNL     1      -1.118  10.496  18.719  0.00  0.00    +0.000 C 
BRANCH   8   9
ATOM      9  C   UNL     1      -2.109  11.672  18.728  0.00  0.00    +0.000 C 
BRANCH   9  10
ATOM     10  P   UNL     1      -3.599  11.414  17.510  0.00  0.00    +0.000 P 
ATOM     11  O   UNL     1      -4.023   9.946  17.654  0.00  0.00    +0.000 OA
BRANCH  10  12
ATOM     12  O   UNL     1      -2.467  10.974  16.278  0.00  0.00    +0.000 OA
BRANCH  12  14
ATOM     13  C   UNL     1      -3.201  10.094  14.169  0.00  0.00    +0.000 C 
ATOM     14  C   UNL     1      -2.851   9.778  15.606  0.00  0.00    +0.000 C 
ENDBRANCH  12  14
ENDBRANCH  10  12
BRANCH  10  15
ATOM     15  O   UNL     1      -4.733  11.854  18.741  0.00  0.00    +0.000 OA
BRANCH  15  16
ATOM     16  C   UNL     1      -5.926  11.088  18.805  0.00  0.00    +0.000 C 
ATOM     17  C   UNL     1      -7.092  11.952  18.367  0.00  0.00    +0.000 C 
ENDBRANCH  15  16
ENDBRANCH  10  15
ENDBRANCH   9  10
ENDBRANCH   8   9
ENDBRANCH   7   8
ENDBRANCH   6   7
ENDBRANCH   1   6
BRANCH   3  18
ATOM     18  C   UNL     1       3.438   6.941  17.517  0.00  0.00    +0.000 C 
BRANCH  18  19
ATOM     19  N   UNL     1       4.043   5.696  17.965  0.00  0.00    +0.000 N 
ATOM     20  C   UNL     1       5.340   5.601  18.388  0.00  0.00    +0.000 A 
ATOM     21  N   UNL     1       5.531   4.562  19.159  0.00  0.00    +0.000 NA
ATOM     22  C   UNL     1       4.316   3.941  19.199  0.00  0.00    +0.000 A 
ATOM     23  C   UNL     1       3.867   2.958  20.075  0.00  0.00    +0.000 A 
ATOM     24  C   UNL     1       2.479   2.881  20.094  0.00  0.00    +0.000 A 
ATOM     25  C   UNL     1       1.854   3.816  21.134  0.00  0.00    +0.000 C 
ATOM     26  C   UNL     1       1.786   2.921  18.885  0.00  0.00    +0.000 A 
ATOM     27  C   UNL     1       0.575   2.035  18.741  0.00  0.00    +0.000 C 
ATOM     28  C   UNL     1       2.174   3.913  17.986  0.00  0.00    +0.000 A 
ATOM     29  C   UNL     1       3.419   4.512  18.280  0.00  0.00    +0.000 A 
ENDBRANCH  18  19
ENDBRANCH   3  18
TORSDOF 11
ENDMDL
MODEL 5
REMARK VINA RESULT:      -6.8      4.656      9.466
REMARK  Name = 
REMARK  15 active torsions:
REMARK  status: ('A' for Active; 'I' for Inactive)
REMARK    1  A    between atoms: C_1  and  C_2
REMARK    2  A    between atoms: C_2  and  O_3
REMARK    3  A    between atoms: O_3  and  P_4
REMARK    4  A    between atoms: P_4  and  C_6
REMARK    5  A    between atoms: P_4  and  O_27
REMARK    6  A    between atoms: C_6  and  C_7
REMARK    7  A    between atoms: C_7  and  C_8
REMARK    8  A    between atoms: C_8  and  C_9
REMARK    9  A    between atoms: C_9  and  N_10
REMARK   10  A    between atoms: C_12  and  C_13
REMARK   11  A    between atoms: C_13  and  N_14
REMARK   12  A    between atoms: C_19  and  C_20
REMARK   13  A    between atoms: C_21  and  C_22
REMARK   14  A    between atoms: O_27  and  C_28
REMARK   15  A    between atoms: C_28  and  C_29
REMARK                            x       y       z     vdW  Elec       q    Type
REMARK                         _______ _______ _______ _____ _____    ______ ____
ROOT
ATOM      1  N   UNL     1       2.434   5.001  19.410  0.00  0.00    +0.000 N 
ATOM      2  C   UNL     1       2.610   6.250  18.895  0.00  0.00    +0.000 A 
ATOM      3  C   UNL     1       2.029   7.092  19.818  0.00  0.00    +0.000 A 
ATOM      4  N   UNL     1       1.478   6.325  20.816  0.00  0.00    +0.000 NA
ATOM      5  N   UNL     1       1.729   5.046  20.552  0.00  0.00    +0.000 NA
ENDROOT
BRANCH   1   6
ATOM      6  C   UNL     1       2.909   3.748  18.854  0.00  0.00    +0.000 C 
BRANCH   6   7
ATOM      7  C   UNL     1       4.361   3.822  18.358  0.00  0.00    +0.000 C 
BRANCH   7   8
ATOM      8  C   UNL     1       4.420   3.974  16.841  0.00  0.00    +0.000 C 
BRANCH   8   9
ATOM      9  C   UNL     1       5.715   3.430  16.213  0.00  0.00    +0.000 C 
BRANCH   9  10
ATOM     10  P   UNL     1       6.593   4.718  15.055  0.00  0.00    +0.000 P 
ATOM     11  O   UNL     1       5.804   6.028  15.193  0.00  0.00    +0.000 OA
BRANCH  10  12
ATOM     12  O   UNL     1       5.549   4.216  13.769  0.00  0.00    +0.000 OA
BRANCH  12  14
ATOM     13  C   UNL     1       5.350   2.835  11.816  0.00  0.00    +0.000 C 
ATOM     14  C   UNL     1       6.278   3.661  12.679  0.00  0.00    +0.000 C 
ENDBRANCH  12  14
ENDBRANCH  10  12
BRANCH  10  15
ATOM     15  O   UNL     1       7.637   5.220  16.339  0.00  0.00    +0.000 OA
BRANCH  15  16
ATOM     16  C   UNL     1       7.226   6.359  17.080  0.00  0.00    +0.000 C 
ATOM     17  C   UNL     1       7.610   6.166  18.534  0.00  0.00    +0.000 C 
ENDBRANCH  15  16
ENDBRANCH  10  15
ENDBRANCH   9  10
ENDBRANCH   8   9
ENDBRANCH   7   8
ENDBRANCH   6   7
ENDBRANCH   1   6
BRANCH   3  18
ATOM     18  C   UNL     1       1.901   8.580  19.791  0.00  0.00    +0.000 C 
BRANCH  18  19
ATOM     19  N   UNL     1       1.037   9.090  20.844  0.00  0.00    +0.000 N 
ATOM     20  C   UNL     1       1.352   9.016  22.174  0.00  0.00    +0.000 A 
ATOM     21  N   UNL     1       0.711   9.911  22.881  0.00  0.00    +0.000 NA
ATOM     22  C   UNL     1      -0.080  10.558  21.974  0.00  0.00    +0.000 A 
ATOM     23  C   UNL     1      -0.757  11.764  22.111  0.00  0.00    +0.000 A 
ATOM     24  C   UNL     1      -1.090  12.310  20.877  0.00  0.00    +0.000 A 
ATOM     25  C   UNL     1       0.011  13.218  20.320  0.00  0.00    +0.000 C 
ATOM     26  C   UNL     1      -1.615  11.475  19.891  0.00  0.00    +0.000 A 
ATOM     27  C   UNL     1      -2.712  12.027  19.017  0.00  0.00    +0.000 C 
ATOM     28  C   UNL     1      -0.949  10.268  19.689  0.00  0.00    +0.000 A 
ATOM     29  C   UNL     1      -0.056   9.914  20.724  0.00  0.00    +0.000 A 
ENDBRANCH  18  19
ENDBRANCH   3  18
TORSDOF 11
ENDMDL
MODEL 6
REMARK VINA RESULT:      -6.7      2.635      4.317
REMARK  Name = 
REMARK  15 active torsions:
REMARK  status: ('A' for Active; 'I' for Inactive)
REMARK    1  A    between atoms: C_1  and  C_2
REMARK    2  A    between atoms: C_2  and  O_3
REMARK    3  A    between atoms: O_3  and  P_4
REMARK    4  A    between atoms: P_4  and  C_6
REMARK    5  A    between atoms: P_4  and  O_27
REMARK    6  A    between atoms: C_6  and  C_7
REMARK    7  A    between atoms: C_7  and  C_8
REMARK    8  A    between atoms: C_8  and  C_9
REMARK    9  A    between atoms: C_9  and  N_10
REMARK   10  A    between atoms: C_12  and  C_13
REMARK   11  A    between atoms: C_13  and  N_14
REMARK   12  A    between atoms: C_19  and  C_20
REMARK   13  A    between atoms: C_21  and  C_22
REMARK   14  A    between atoms: O_27  and  C_28
REMARK   15  A    between atoms: C_28  and  C_29
REMARK                            x       y       z     vdW  Elec       q    Type
REMARK                         _______ _______ _______ _____ _____    ______ ____
ROOT
ATOM      1  N   UNL     1       1.793   8.170  19.762  0.00  0.00    +0.000 N 
ATOM      2  C   UNL     1       2.655   7.163  19.447  0.00  0.00    +0.000 A 
ATOM      3  C   UNL     1       3.034   7.422  18.148  0.00  0.00    +0.000 A 
ATOM      4  N   UNL     1       2.347   8.529  17.710  0.00  0.00    +0.000 NA
ATOM      5  N   UNL     1       1.588   8.976  18.706  0.00  0.00    +0.000 NA
ENDROOT
BRANCH   1   6
ATOM      6  C   UNL     1       1.142   8.402  21.037  0.00  0.00    +0.000 C 
BRANCH   6   7
ATOM      7  C   UNL     1       1.125   9.883  21.444  0.00  0.00    +0.000 C 
BRANCH   7   8
ATOM      8  C   UNL     1      -0.203  10.264  22.092  0.00  0.00    +0.000 C 
BRANCH   8   9
ATOM      9  C   UNL     1      -0.982  11.343  21.322  0.00  0.00    +0.000 C 
BRANCH   9  10
ATOM     10  P   UNL     1       0.169  12.514  20.286  0.00  0.00    +0.000 P 
ATOM     11  O   UNL     1      -0.696  13.714  19.876  0.00  0.00    +0.000 OA
BRANCH  10  12
ATOM     12  O   UNL     1      -0.318  11.666  18.858  0.00  0.00    +0.000 OA
BRANCH  12  14
ATOM     13  C   UNL     1      -1.990  10.166  18.014  0.00  0.00    +0.000 C 
ATOM     14  C   UNL     1      -1.716  11.393  18.854  0.00  0.00    +0.000 C 
ENDBRANCH  12  14
ENDBRANCH  10  12
BRANCH  10  15
ATOM     15  O   UNL     1       0.657  13.363  21.713  0.00  0.00    +0.000 OA
BRANCH  15  16
ATOM     16  C   UNL     1       1.652  14.360  21.546  0.00  0.00    +0.000 C 
ATOM     17  C   UNL     1       2.856  13.747  20.858  0.00  0.00    +0.000 C 
ENDBRANCH  15  16
ENDBRANCH  10  15
ENDBRANCH   9  10
ENDBRANCH   8   9
ENDBRANCH   7   8
ENDBRANCH   6   7
ENDBRANCH   1   6
BRANCH   3  18
ATOM     18  C   UNL     1       3.957   6.652  17.261  0.00  0.00    +0.000 C 
BRANCH  18  19
ATOM     19  N   UNL     1       4.403   5.404  17.860  0.00  0.00    +0.000 N 
ATOM     20  C   UNL     1       5.654   5.229  18.385  0.00  0.00    +0.000 A 
ATOM     21  N   UNL     1       5.689   4.254  19.257  0.00  0.00    +0.000 NA
ATOM     22  C   UNL     1       4.417   3.755  19.260  0.00  0.00    +0.000 A 
ATOM     23  C   UNL     1       3.816   2.905  20.182  0.00  0.00    +0.000 A 
ATOM     24  C   UNL     1       2.429   2.960  20.103  0.00  0.00    +0.000 A 
ATOM     25  C   UNL     1       1.833   4.043  21.008  0.00  0.00    +0.000 C 
ATOM     26  C   UNL     1       1.825   2.951  18.847  0.00  0.00    +0.000 A 
ATOM     27  C   UNL     1       0.544   2.172  18.690  0.00  0.00    +0.000 C 
ATOM     28  C   UNL     1       2.369   3.814  17.897  0.00  0.00    +0.000 A 
ATOM     29  C   UNL     1       3.645   4.319  18.229  0.00  0.00    +0.000 A 
ENDBRANCH  18  19
ENDBRANCH   3  18
TORSDOF 11
ENDMDL
MODEL 7
REMARK VINA RESULT:      -6.7      3.240      4.764
REMARK  Name = 
REMARK  15 active torsions:
REMARK  status: ('A' for Active; 'I' for Inactive)
REMARK    1  A    between atoms: C_1  and  C_2
REMARK    2  A    between atoms: C_2  and  O_3
REMARK    3  A    between atoms: O_3  and  P_4
REMARK    4  A    between atoms: P_4  and  C_6
REMARK    5  A    between atoms: P_4  and  O_27
REMARK    6  A    between atoms: C_6  and  C_7
REMARK    7  A    between atoms: C_7  and  C_8
REMARK    8  A    between atoms: C_8  and  C_9
REMARK    9  A    between atoms: C_9  and  N_10
REMARK   10  A    between atoms: C_12  and  C_13
REMARK   11  A    between atoms: C_13  and  N_14
REMARK   12  A    between atoms: C_19  and  C_20
REMARK   13  A    between atoms: C_21  and  C_22
REMARK   14  A    between atoms: O_27  and  C_28
REMARK   15  A    between atoms: C_28  and  C_29
REMARK                            x       y       z     vdW  Elec       q    Type
REMARK                         _______ _______ _______ _____ _____    ______ ____
ROOT
ATOM      1  N   UNL     1       1.792   8.049  19.896  0.00  0.00    +0.000 N 
ATOM      2  C   UNL     1       2.679   7.069  19.562  0.00  0.00    +0.000 A 
ATOM      3  C   UNL     1       3.021   7.340  18.256  0.00  0.00    +0.000 A 
ATOM      4  N   UNL     1       2.291   8.425  17.833  0.00  0.00    +0.000 NA
ATOM      5  N   UNL     1       1.540   8.848  18.846  0.00  0.00    +0.000 NA
ENDROOT
BRANCH   1   6
ATOM      6  C   UNL     1       1.162   8.259  21.185  0.00  0.00    +0.000 C 
BRANCH   6   7
ATOM      7  C   UNL     1      -0.147   9.057  21.091  0.00  0.00    +0.000 C 
BRANCH   7   8
ATOM      8  C   UNL     1       0.032  10.479  21.614  0.00  0.00    +0.000 C 
BRANCH   8   9
ATOM      9  C   UNL     1      -0.832  10.801  22.846  0.00  0.00    +0.000 C 
BRANCH   9  10
ATOM     10  P   UNL     1      -1.945  12.373  22.600  0.00  0.00    +0.000 P 
ATOM     11  O   UNL     1      -1.499  13.386  23.664  0.00  0.00    +0.000 OA
BRANCH  10  12
ATOM     12  O   UNL     1      -3.082  11.694  23.713  0.00  0.00    +0.000 OA
BRANCH  12  14
ATOM     13  C   UNL     1      -4.926  13.046  22.980  0.00  0.00    +0.000 C 
ATOM     14  C   UNL     1      -4.042  12.656  24.144  0.00  0.00    +0.000 C 
ENDBRANCH  12  14
ENDBRANCH  10  12
BRANCH  10  15
ATOM     15  O   UNL     1      -0.807  13.053  21.487  0.00  0.00    +0.000 OA
BRANCH  15  16
ATOM     16  C   UNL     1      -1.342  13.601  20.293  0.00  0.00    +0.000 C 
ATOM     17  C   UNL     1      -1.719  15.048  20.539  0.00  0.00    +0.000 C 
ENDBRANCH  15  16
ENDBRANCH  10  15
ENDBRANCH   9  10
ENDBRANCH   8   9
ENDBRANCH   7   8
ENDBRANCH   6   7
ENDBRANCH   1   6
BRANCH   3  18
ATOM     18  C   UNL     1       3.949   6.600  17.349  0.00  0.00    +0.000 C 
BRANCH  18  19
ATOM     19  N   UNL     1       4.392   5.332  17.909  0.00  0.00    +0.000 N 
ATOM     20  C   UNL     1       5.648   5.132  18.411  0.00  0.00    +0.000 A 
ATOM     21  N   UNL     1       5.686   4.134  19.256  0.00  0.00    +0.000 NA
ATOM     22  C   UNL     1       4.410   3.647  19.264  0.00  0.00    +0.000 A 
ATOM     23  C   UNL     1       3.813   2.779  20.172  0.00  0.00    +0.000 A 
ATOM     24  C   UNL     1       2.426   2.849  20.115  0.00  0.00    +0.000 A 
ATOM     25  C   UNL     1       1.853   3.913  21.056  0.00  0.00    +0.000 C 
ATOM     26  C   UNL     1       1.805   2.878  18.867  0.00  0.00    +0.000 A 
ATOM     27  C   UNL     1       0.514   2.116  18.709  0.00  0.00    +0.000 C 
ATOM     28  C   UNL     1       2.343   3.761  17.932  0.00  0.00    +0.000 A 
ATOM     29  C   UNL     1       3.629   4.245  18.260  0.00  0.00    +0.000 A 
ENDBRANCH  18  19
ENDBRANCH   3  18
TORSDOF 11
ENDMDL
MODEL 8
REMARK VINA RESULT:      -6.7      6.795      9.500
REMARK  Name = 
REMARK  15 active torsions:
REMARK  status: ('A' for Active; 'I' for Inactive)
REMARK    1  A    between atoms: C_1  and  C_2
REMARK    2  A    between atoms: C_2  and  O_3
REMARK    3  A    between atoms: O_3  and  P_4
REMARK    4  A    between atoms: P_4  and  C_6
REMARK    5  A    between atoms: P_4  and  O_27
REMARK    6  A    between atoms: C_6  and  C_7
REMARK    7  A    between atoms: C_7  and  C_8
REMARK    8  A    between atoms: C_8  and  C_9
REMARK    9  A    between atoms: C_9  and  N_10
REMARK   10  A    between atoms: C_12  and  C_13
REMARK   11  A    between atoms: C_13  and  N_14
REMARK   12  A    between atoms: C_19  and  C_20
REMARK   13  A    between atoms: C_21  and  C_22
REMARK   14  A    between atoms: O_27  and  C_28
REMARK   15  A    between atoms: C_28  and  C_29
REMARK                            x       y       z     vdW  Elec       q    Type
REMARK                         _______ _______ _______ _____ _____    ______ ____
ROOT
ATOM      1  N   UNL     1       7.678   6.393  18.417  0.00  0.00    +0.000 N 
ATOM      2  C   UNL     1       7.222   5.930  17.219  0.00  0.00    +0.000 A 
ATOM      3  C   UNL     1       6.607   4.734  17.519  0.00  0.00    +0.000 A 
ATOM      4  N   UNL     1       6.765   4.492  18.863  0.00  0.00    +0.000 NA
ATOM      5  N   UNL     1       7.426   5.513  19.401  0.00  0.00    +0.000 NA
ENDROOT
BRANCH   1   6
ATOM      6  C   UNL     1       8.356   7.649  18.671  0.00  0.00    +0.000 C 
BRANCH   6   7
ATOM      7  C   UNL     1       7.845   8.798  17.789  0.00  0.00    +0.000 C 
BRANCH   7   8
ATOM      8  C   UNL     1       8.759  10.016  17.881  0.00  0.00    +0.000 C 
BRANCH   8   9
ATOM      9  C   UNL     1       9.341  10.251  19.285  0.00  0.00    +0.000 C 
BRANCH   9  10
ATOM     10  P   UNL     1      10.413  11.865  19.400  0.00  0.00    +0.000 P 
ATOM     11  O   UNL     1      11.871  11.404  19.530  0.00  0.00    +0.000 OA
BRANCH  10  12
ATOM     12  O   UNL     1      10.237  11.815  21.120  0.00  0.00    +0.000 OA
BRANCH  12  14
ATOM     13  C   UNL     1      10.227  14.201  21.380  0.00  0.00    +0.000 C 
ATOM     14  C   UNL     1       9.470  12.912  21.608  0.00  0.00    +0.000 C 
ENDBRANCH  12  14
ENDBRANCH  10  12
BRANCH  10  15
ATOM     15  O   UNL     1      10.590  11.917  17.680  0.00  0.00    +0.000 OA
BRANCH  15  16
ATOM     16  C   UNL     1      11.162  13.097  17.138  0.00  0.00    +0.000 C 
ATOM     17  C   UNL     1      10.393  14.299  17.650  0.00  0.00    +0.000 C 
ENDBRANCH  15  16
ENDBRANCH  10  15
ENDBRANCH   9  10
ENDBRANCH   8   9
ENDBRANCH   7   8
ENDBRANCH   6   7
ENDBRANCH   1   6
BRANCH   3  18
ATOM     18  C   UNL     1       5.931   3.763  16.607  0.00  0.00    +0.000 C 
BRANCH  18  19
ATOM     19  N   UNL     1       4.498   3.674  16.841  0.00  0.00    +0.000 N 
ATOM     20  C   UNL     1       3.829   2.487  16.958  0.00  0.00    +0.000 A 
ATOM     21  N   UNL     1       2.703   2.620  17.610  0.00  0.00    +0.000 NA
ATOM     22  C   UNL     1       2.626   3.955  17.885  0.00  0.00    +0.000 A 
ATOM     23  C   UNL     1       1.793   4.614  18.783  0.00  0.00    +0.000 A 
ATOM     24  C   UNL     1       2.280   5.876  19.106  0.00  0.00    +0.000 A 
ATOM     25  C   UNL     1       3.228   5.848  20.309  0.00  0.00    +0.000 C 
ATOM     26  C   UNL     1       2.768   6.690  18.085  0.00  0.00    +0.000 A 
ATOM     27  C   UNL     1       2.476   8.167  18.166  0.00  0.00    +0.000 C 
ATOM     28  C   UNL     1       3.637   6.085  17.179  0.00  0.00    +0.000 A 
ATOM     29  C   UNL     1       3.635   4.673  17.221  0.00  0.00    +0.000 A 
ENDBRANCH  18  19
ENDBRANCH   3  18
TORSDOF 11
ENDMDL
MODEL 9
REMARK VINA RESULT:      -6.7      4.480      9.561
REMARK  Name = 
REMARK  15 active torsions:
REMARK  status: ('A' for Active; 'I' for Inactive)
REMARK    1  A    between atoms: C_1  and  C_2
REMARK    2  A    between atoms: C_2  and  O_3
REMARK    3  A    between atoms: O_3  and  P_4
REMARK    4  A    between atoms: P_4  and  C_6
REMARK    5  A    between atoms: P_4  and  O_27
REMARK    6  A    between atoms: C_6  and  C_7
REMARK    7  A    between atoms: C_7  and  C_8
REMARK    8  A    between atoms: C_8  and  C_9
REMARK    9  A    between atoms: C_9  and  N_10
REMARK   10  A    between atoms: C_12  and  C_13
REMARK   11  A    between atoms: C_13  and  N_14
REMARK   12  A    between atoms: C_19  and  C_20
REMARK   13  A    between atoms: C_21  and  C_22
REMARK   14  A    between atoms: O_27  and  C_28
REMARK   15  A    between atoms: C_28  and  C_29
REMARK                            x       y       z     vdW  Elec       q    Type
REMARK                         _______ _______ _______ _____ _____    ______ ____
ROOT
ATOM      1  N   UNL     1       2.171   5.278  19.315  0.00  0.00    +0.000 N 
ATOM      2  C   UNL     1       2.303   6.425  18.592  0.00  0.00    +0.000 A 
ATOM      3  C   UNL     1       1.982   7.433  19.475  0.00  0.00    +0.000 A 
ATOM      4  N   UNL     1       1.613   6.860  20.668  0.00  0.00    +0.000 NA
ATOM      5  N   UNL     1       1.729   5.540  20.557  0.00  0.00    +0.000 NA
ENDROOT
BRANCH   1   6
ATOM      6  C   UNL     1       2.445   3.925  18.872  0.00  0.00    +0.000 C 
BRANCH   6   7
ATOM      7  C   UNL     1       3.226   3.871  17.551  0.00  0.00    +0.000 C 
BRANCH   7   8
ATOM      8  C   UNL     1       4.732   3.911  17.795  0.00  0.00    +0.000 C 
BRANCH   8   9
ATOM      9  C   UNL     1       5.568   3.981  16.505  0.00  0.00    +0.000 C 
BRANCH   9  10
ATOM     10  P   UNL     1       6.066   5.795  16.024  0.00  0.00    +0.000 P 
ATOM     11  O   UNL     1       7.598   5.807  15.925  0.00  0.00    +0.000 OA
BRANCH  10  12
ATOM     12  O   UNL     1       6.164   6.174  17.709  0.00  0.00    +0.000 OA
BRANCH  12  14
ATOM     13  C   UNL     1       7.824   5.772  19.396  0.00  0.00    +0.000 C 
ATOM     14  C   UNL     1       7.496   6.490  18.105  0.00  0.00    +0.000 C 
ENDBRANCH  12  14
ENDBRANCH  10  12
BRANCH  10  15
ATOM     15  O   UNL     1       5.969   5.416  14.338  0.00  0.00    +0.000 OA
BRANCH  15  16
ATOM     16  C   UNL     1       5.849   4.042  14.004  0.00  0.00    +0.000 C 
ATOM     17  C   UNL     1       6.516   3.799  12.665  0.00  0.00    +0.000 C 
ENDBRANCH  15  16
ENDBRANCH  10  15
ENDBRANCH   9  10
ENDBRANCH   8   9
ENDBRANCH   7   8
ENDBRANCH   6   7
ENDBRANCH   1   6
BRANCH   3  18
ATOM     18  C   UNL     1       1.935   8.908  19.249  0.00  0.00    +0.000 C 
BRANCH  18  19
ATOM     19  N   UNL     1       0.930   9.572  20.065  0.00  0.00    +0.000 N 
ATOM     20  C   UNL     1       1.140   9.932  21.368  0.00  0.00    +0.000 A 
ATOM     21  N   UNL     1       0.336  10.891  21.748  0.00  0.00    +0.000 NA
ATOM     22  C   UNL     1      -0.451  11.127  20.657  0.00  0.00    +0.000 A 
ATOM     23  C   UNL     1      -1.284  12.211  20.399  0.00  0.00    +0.000 A 
ATOM     24  C   UNL     1      -1.579  12.322  19.046  0.00  0.00    +0.000 A 
ATOM     25  C   UNL     1      -0.557  13.178  18.291  0.00  0.00    +0.000 C 
ATOM     26  C   UNL     1      -1.911  11.171  18.333  0.00  0.00    +0.000 A 
ATOM     27  C   UNL     1      -2.993  11.282  17.288  0.00  0.00    +0.000 C 
ATOM     28  C   UNL     1      -1.085  10.066  18.528  0.00  0.00    +0.000 A 
ATOM     29  C   UNL     1      -0.244  10.159  19.659  0.00  0.00    +0.000 A 
ENDBRANCH  18  19
ENDBRANCH   3  18
TORSDOF 11
ENDMDL
