MODEL 1
REMARK VINA RESULT:      -7.4      0.000      0.000
REMARK  Name = 
REMARK  4 active torsions:
REMARK  status: ('A' for Active; 'I' for Inactive)
REMARK    1  A    between atoms: C_2  and  C_3
REMARK    2  A    between atoms: C_2  and  C_10
REMARK    3  A    between atoms: N_13  and  C_14
REMARK    4  A    between atoms: C_23  and  O_24
REMARK                            x       y       z     vdW  Elec       q    Type
REMARK                         _______ _______ _______ _____ _____    ______ ____
ROOT
ATOM      1  C   UNL     1       1.717   8.056  20.363  0.00  0.00    +0.000 C 
ATOM      2  C   UNL     1       2.114   8.372  18.917  0.00  0.00    +0.000 C 
ATOM      3  C   UNL     1       2.120   7.171  17.975  0.00  0.00    +0.000 C 
ATOM      4  N   UNL     1       2.820   6.006  18.522  0.00  0.00    +0.000 NA
ATOM      5  C   UNL     1       2.019   5.532  19.662  0.00  0.00    +0.000 C 
ATOM      6  C   UNL     1       1.745   6.565  20.768  0.00  0.00    +0.000 C 
ENDROOT
BRANCH   4   7
ATOM      7  C   UNL     1       4.276   6.182  18.813  0.00  0.00    +0.000 C 
ATOM      8  C   UNL     1       5.161   6.675  17.626  0.00  0.00    +0.000 C 
ATOM      9  C   UNL     1       5.425   5.629  16.572  0.00  0.00    +0.000 A 
ATOM     10  C   UNL     1       5.736   6.034  15.266  0.00  0.00    +0.000 A 
ATOM     11  C   UNL     1       5.900   5.093  14.249  0.00  0.00    +0.000 A 
ATOM     12  C   UNL     1       5.793   3.737  14.540  0.00  0.00    +0.000 A 
ATOM     13  C   UNL     1       5.556   3.322  15.850  0.00  0.00    +0.000 A 
ATOM     14  C   UNL     1       5.374   4.261  16.879  0.00  0.00    +0.000 A 
ATOM     15  C   UNL     1       5.064   3.770  18.275  0.00  0.00    +0.000 C 
ATOM     16  C   UNL     1       4.958   4.881  19.339  0.00  0.00    +0.000 C 
BRANCH  16  17
ATOM     17  O   UNL     1       6.272   5.192  19.843  0.00  0.00    +0.000 OA
ATOM     18  H   UNL     1       6.774   5.613  19.120  0.00  0.00    +0.000 HD
ENDBRANCH  16  17
ENDBRANCH   4   7
BRANCH   1  20
ATOM     19  O   UNL     1      -0.403   8.303  21.494  0.00  0.00    +0.000 OA
ATOM     20  C   UNL     1       0.403   8.780  20.698  0.00  0.00    +0.000 C 
BRANCH  20  21
ATOM     21  C   UNL     1       0.053  10.075  19.992  0.00  0.00    +0.000 A 
ATOM     22  C   UNL     1       0.704  11.255  20.373  0.00  0.00    +0.000 A 
ATOM     23  C   UNL     1       0.431  12.476  19.732  0.00  0.00    +0.000 A 
ATOM     24  C   UNL     1      -0.498  12.514  18.703  0.00  0.00    +0.000 A 
ATOM     25  F   UNL     1      -0.757  13.673  18.080  0.00  0.00    +0.000 F 
ATOM     26  C   UNL     1      -1.172  11.362  18.314  0.00  0.00    +0.000 A 
ATOM     27  C   UNL     1      -0.904  10.149  18.958  0.00  0.00    +0.000 A 
ENDBRANCH  20  21
ENDBRANCH   1  20
TORSDOF 4
ENDMDL
MODEL 2
REMARK VINA RESULT:      -7.1      3.266      8.287
REMARK  Name = 
REMARK  4 active torsions:
REMARK  status: ('A' for Active; 'I' for Inactive)
REMARK    1  A    between atoms: C_2  and  C_3
REMARK    2  A    between atoms: C_2  and  C_10
REMARK    3  A    between atoms: N_13  and  C_14
REMARK    4  A    between atoms: C_23  and  O_24
REMARK                            x       y       z     vdW  Elec       q    Type
REMARK                         _______ _______ _______ _____ _____    ______ ____
ROOT
ATOM      1  C   UNL     1       5.549   4.611  16.783  0.00  0.00    +0.000 C 
ATOM      2  C   UNL     1       5.040   6.026  16.483  0.00  0.00    +0.000 C 
ATOM      3  C   UNL     1       4.937   6.943  17.698  0.00  0.00    +0.000 C 
ATOM      4  N   UNL     1       4.264   6.322  18.841  0.00  0.00    +0.000 NA
ATOM      5  C   UNL     1       5.147   5.242  19.312  0.00  0.00    +0.000 C 
ATOM      6  C   UNL     1       5.528   4.180  18.267  0.00  0.00    +0.000 C 
ENDROOT
BRANCH   4   7
ATOM      7  C   UNL     1       2.840   5.917  18.633  0.00  0.00    +0.000 C 
ATOM      8  C   UNL     1       1.872   7.033  18.131  0.00  0.00    +0.000 C 
ATOM      9  C   UNL     1       1.504   8.053  19.180  0.00  0.00    +0.000 A 
ATOM     10  C   UNL     1       1.098   9.334  18.778  0.00  0.00    +0.000 A 
ATOM     11  C   UNL     1       0.834  10.325  19.722  0.00  0.00    +0.000 A 
ATOM     12  C   UNL     1       0.937  10.032  21.078  0.00  0.00    +0.000 A 
ATOM     13  C   UNL     1       1.271   8.741  21.489  0.00  0.00    +0.000 A 
ATOM     14  C   UNL     1       1.552   7.738  20.546  0.00  0.00    +0.000 A 
ATOM     15  C   UNL     1       1.963   6.367  21.032  0.00  0.00    +0.000 C 
ATOM     16  C   UNL     1       2.177   5.326  19.916  0.00  0.00    +0.000 C 
BRANCH  16  17
ATOM     17  O   UNL     1       0.914   4.721  19.575  0.00  0.00    +0.000 OA
ATOM     18  H   UNL     1       0.301   5.438  19.324  0.00  0.00    +0.000 HD
ENDBRANCH  16  17
ENDBRANCH   4   7
BRANCH   1  20
ATOM     19  O   UNL     1       7.926   4.192  16.719  0.00  0.00    +0.000 OA
ATOM     20  C   UNL     1       6.898   4.397  16.078  0.00  0.00    +0.000 C 
BRANCH  20  21
ATOM     21  C   UNL     1       6.987   4.501  14.569  0.00  0.00    +0.000 A 
ATOM     22  C   UNL     1       7.865   5.434  14.003  0.00  0.00    +0.000 A 
ATOM     23  C   UNL     1       8.001   5.551  12.608  0.00  0.00    +0.000 A 
ATOM     24  C   UNL     1       7.254   4.729  11.778  0.00  0.00    +0.000 A 
ATOM     25  F   UNL     1       7.385   4.829  10.447  0.00  0.00    +0.000 F 
ATOM     26  C   UNL     1       6.364   3.805  12.311  0.00  0.00    +0.000 A 
ATOM     27  C   UNL     1       6.224   3.694  13.698  0.00  0.00    +0.000 A 
ENDBRANCH  20  21
ENDBRANCH   1  20
TORSDOF 4
ENDMDL
MODEL 3
REMARK VINA RESULT:      -7.1      1.974      2.521
REMARK  Name = 
REMARK  4 active torsions:
REMARK  status: ('A' for Active; 'I' for Inactive)
REMARK    1  A    between atoms: C_2  and  C_3
REMARK    2  A    between atoms: C_2  and  C_10
REMARK    3  A    between atoms: N_13  and  C_14
REMARK    4  A    between atoms: C_23  and  O_24
REMARK                            x       y       z     vdW  Elec       q    Type
REMARK                         _______ _______ _______ _____ _____    ______ ____
ROOT
ATOM      1  C   UNL     1       2.211   7.551  19.747  0.00  0.00    +0.000 C 
ATOM      2  C   UNL     1       2.759   7.060  18.402  0.00  0.00    +0.000 C 
ATOM      3  C   UNL     1       2.224   5.704  17.947  0.00  0.00    +0.000 C 
ATOM      4  N   UNL     1       2.268   4.680  18.994  0.00  0.00    +0.000 NA
ATOM      5  C   UNL     1       1.301   5.092  20.023  0.00  0.00    +0.000 C 
ATOM      6  C   UNL     1       1.514   6.489  20.628  0.00  0.00    +0.000 C 
ENDROOT
BRANCH   4   7
ATOM      7  C   UNL     1       3.622   4.323  19.516  0.00  0.00    +0.000 C 
ATOM      8  C   UNL     1       4.813   5.184  18.992  0.00  0.00    +0.000 C 
ATOM      9  C   UNL     1       5.208   4.893  17.566  0.00  0.00    +0.000 A 
ATOM     10  C   UNL     1       5.864   5.884  16.820  0.00  0.00    +0.000 A 
ATOM     11  C   UNL     1       6.166   5.678  15.474  0.00  0.00    +0.000 A 
ATOM     12  C   UNL     1       5.848   4.465  14.873  0.00  0.00    +0.000 A 
ATOM     13  C   UNL     1       5.261   3.447  15.625  0.00  0.00    +0.000 A 
ATOM     14  C   UNL     1       4.940   3.648  16.978  0.00  0.00    +0.000 A 
ATOM     15  C   UNL     1       4.255   2.539  17.743  0.00  0.00    +0.000 C 
ATOM     16  C   UNL     1       4.016   2.839  19.236  0.00  0.00    +0.000 C 
BRANCH  16  17
ATOM     17  O   UNL     1       5.197   2.499  19.990  0.00  0.00    +0.000 OA
ATOM     18  H   UNL     1       5.324   1.534  19.921  0.00  0.00    +0.000 HD
ENDBRANCH  16  17
ENDBRANCH   4   7
BRANCH   1  20
ATOM     19  O   UNL     1       1.370   9.393  18.430  0.00  0.00    +0.000 OA
ATOM     20  C   UNL     1       1.389   8.830  19.523  0.00  0.00    +0.000 C 
BRANCH  20  21
ATOM     21  C   UNL     1       0.636   9.457  20.680  0.00  0.00    +0.000 A 
ATOM     22  C   UNL     1      -0.237  10.522  20.426  0.00  0.00    +0.000 A 
ATOM     23  C   UNL     1      -0.976  11.120  21.461  0.00  0.00    +0.000 A 
ATOM     24  C   UNL     1      -0.841  10.646  22.758  0.00  0.00    +0.000 A 
ATOM     25  F   UNL     1      -1.550  11.205  23.749  0.00  0.00    +0.000 F 
ATOM     26  C   UNL     1       0.028   9.600  23.043  0.00  0.00    +0.000 A 
ATOM     27  C   UNL     1       0.769   9.011  22.012  0.00  0.00    +0.000 A 
ENDBRANCH  20  21
ENDBRANCH   1  20
TORSDOF 4
ENDMDL
MODEL 4
REMARK VINA RESULT:      -6.9      1.641      1.949
REMARK  Name = 
REMARK  4 active torsions:
REMARK  status: ('A' for Active; 'I' for Inactive)
REMARK    1  A    between atoms: C_2  and  C_3
REMARK    2  A    between atoms: C_2  and  C_10
REMARK    3  A    between atoms: N_13  and  C_14
REMARK    4  A    between atoms: C_23  and  O_24
REMARK                            x       y       z     vdW  Elec       q    Type
REMARK                         _______ _______ _______ _____ _____    ______ ____
ROOT
ATOM      1  C   UNL     1       1.903   8.763  19.275  0.00  0.00    +0.000 C 
ATOM      2  C   UNL     1       2.330   8.333  17.867  0.00  0.00    +0.000 C 
ATOM      3  C   UNL     1       2.285   6.829  17.612  0.00  0.00    +0.000 C 
ATOM      4  N   UNL     1       2.921   6.040  18.671  0.00  0.00    +0.000 NA
ATOM      5  C   UNL     1       2.085   6.201  19.872  0.00  0.00    +0.000 C 
ATOM      6  C   UNL     1       1.852   7.645  20.342  0.00  0.00    +0.000 C 
ENDROOT
BRANCH   4   7
ATOM      7  C   UNL     1       4.380   6.277  18.889  0.00  0.00    +0.000 C 
ATOM      8  C   UNL     1       5.193   6.768  17.651  0.00  0.00    +0.000 C 
ATOM      9  C   UNL     1       5.448   5.703  16.614  0.00  0.00    +0.000 A 
ATOM     10  C   UNL     1       5.684   6.082  15.285  0.00  0.00    +0.000 A 
ATOM     11  C   UNL     1       5.838   5.120  14.287  0.00  0.00    +0.000 A 
ATOM     12  C   UNL     1       5.795   3.769  14.618  0.00  0.00    +0.000 A 
ATOM     13  C   UNL     1       5.632   3.383  15.948  0.00  0.00    +0.000 A 
ATOM     14  C   UNL     1       5.462   4.343  16.960  0.00  0.00    +0.000 A 
ATOM     15  C   UNL     1       5.234   3.881  18.381  0.00  0.00    +0.000 C 
ATOM     16  C   UNL     1       5.134   5.017  19.418  0.00  0.00    +0.000 C 
BRANCH  16  17
ATOM     17  O   UNL     1       6.457   5.389  19.853  0.00  0.00    +0.000 OA
ATOM     18  H   UNL     1       7.081   5.143  19.145  0.00  0.00    +0.000 HD
ENDBRANCH  16  17
ENDBRANCH   4   7
BRANCH   1  20
ATOM     19  O   UNL     1      -0.008   9.695  18.130  0.00  0.00    +0.000 OA
ATOM     20  C   UNL     1       0.624   9.609  19.181  0.00  0.00    +0.000 C 
BRANCH  20  21
ATOM     21  C   UNL     1       0.158  10.411  20.381  0.00  0.00    +0.000 A 
ATOM     22  C   UNL     1       0.192  11.809  20.319  0.00  0.00    +0.000 A 
ATOM     23  C   UNL     1      -0.252  12.596  21.396  0.00  0.00    +0.000 A 
ATOM     24  C   UNL     1      -0.735  11.977  22.540  0.00  0.00    +0.000 A 
ATOM     25  F   UNL     1      -1.170  12.721  23.568  0.00  0.00    +0.000 F 
ATOM     26  C   UNL     1      -0.768  10.591  22.635  0.00  0.00    +0.000 A 
ATOM     27  C   UNL     1      -0.318   9.810  21.565  0.00  0.00    +0.000 A 
ENDBRANCH  20  21
ENDBRANCH   1  20
TORSDOF 4
ENDMDL
MODEL 5
REMARK VINA RESULT:      -6.9      3.384      8.820
REMARK  Name = 
REMARK  4 active torsions:
REMARK  status: ('A' for Active; 'I' for Inactive)
REMARK    1  A    between atoms: C_2  and  C_3
REMARK    2  A    between atoms: C_2  and  C_10
REMARK    3  A    between atoms: N_13  and  C_14
REMARK    4  A    between atoms: C_23  and  O_24
REMARK                            x       y       z     vdW  Elec       q    Type
REMARK                         _______ _______ _______ _____ _____    ______ ____
ROOT
ATOM      1  C   UNL     1       2.410   7.911  19.124  0.00  0.00    +0.000 C 
ATOM      2  C   UNL     1       1.599   8.109  20.410  0.00  0.00    +0.000 C 
ATOM      3  C   UNL     1       0.211   8.709  20.210  0.00  0.00    +0.000 C 
ATOM      4  N   UNL     1       0.207   9.890  19.342  0.00  0.00    +0.000 NA
ATOM      5  C   UNL     1       0.566   9.420  17.994  0.00  0.00    +0.000 C 
ATOM      6  C   UNL     1       1.902   8.668  17.876  0.00  0.00    +0.000 C 
ENDROOT
BRANCH   4   7
ATOM      7  C   UNL     1       0.991  11.069  19.821  0.00  0.00    +0.000 C 
ATOM      8  C   UNL     1       0.757  11.496  21.303  0.00  0.00    +0.000 C 
ATOM      9  C   UNL     1      -0.563  12.183  21.550  0.00  0.00    +0.000 A 
ATOM     10  C   UNL     1      -1.122  12.154  22.836  0.00  0.00    +0.000 A 
ATOM     11  C   UNL     1      -2.380  12.704  23.077  0.00  0.00    +0.000 A 
ATOM     12  C   UNL     1      -3.073  13.324  22.042  0.00  0.00    +0.000 A 
ATOM     13  C   UNL     1      -2.494  13.421  20.777  0.00  0.00    +0.000 A 
ATOM     14  C   UNL     1      -1.233  12.857  20.519  0.00  0.00    +0.000 A 
ATOM     15  C   UNL     1      -0.666  12.937  19.120  0.00  0.00    +0.000 C 
ATOM     16  C   UNL     1       0.752  12.352  18.967  0.00  0.00    +0.000 C 
BRANCH  16  17
ATOM     17  O   UNL     1       1.727  13.356  19.316  0.00  0.00    +0.000 OA
ATOM     18  H   UNL     1       1.741  14.017  18.597  0.00  0.00    +0.000 HD
ENDBRANCH  16  17
ENDBRANCH   4   7
BRANCH   1  20
ATOM     19  O   UNL     1       2.086   5.564  19.593  0.00  0.00    +0.000 OA
ATOM     20  C   UNL     1       2.651   6.410  18.902  0.00  0.00    +0.000 C 
BRANCH  20  21
ATOM     21  C   UNL     1       3.651   5.951  17.860  0.00  0.00    +0.000 A 
ATOM     22  C   UNL     1       3.631   4.615  17.440  0.00  0.00    +0.000 A 
ATOM     23  C   UNL     1       4.522   4.148  16.459  0.00  0.00    +0.000 A 
ATOM     24  C   UNL     1       5.436   5.025  15.893  0.00  0.00    +0.000 A 
ATOM     25  F   UNL     1       6.283   4.589  14.949  0.00  0.00    +0.000 F 
ATOM     26  C   UNL     1       5.489   6.352  16.300  0.00  0.00    +0.000 A 
ATOM     27  C   UNL     1       4.606   6.814  17.282  0.00  0.00    +0.000 A 
ENDBRANCH  20  21
ENDBRANCH   1  20
TORSDOF 4
ENDMDL
MODEL 6
REMARK VINA RESULT:      -6.9      1.045      1.144
REMARK  Name = 
REMARK  4 active torsions:
REMARK  status: ('A' for Active; 'I' for Inactive)
REMARK    1  A    between atoms: C_2  and  C_3
REMARK    2  A    between atoms: C_2  and  C_10
REMARK    3  A    between atoms: N_13  and  C_14
REMARK    4  A    between atoms: C_23  and  O_24
REMARK                            x       y       z     vdW  Elec       q    Type
REMARK                         _______ _______ _______ _____ _____    ______ ____
ROOT
ATOM      1  C   UNL     1       1.621   7.158  20.727  0.00  0.00    +0.000 C 
ATOM      2  C   UNL     1       2.376   7.615  19.474  0.00  0.00    +0.000 C 
ATOM      3  C   UNL     1       2.244   6.688  18.269  0.00  0.00    +0.000 C 
ATOM      4  N   UNL     1       2.470   5.277  18.593  0.00  0.00    +0.000 NA
ATOM      5  C   UNL     1       1.354   4.862  19.458  0.00  0.00    +0.000 C 
ATOM      6  C   UNL     1       1.155   5.684  20.741  0.00  0.00    +0.000 C 
ENDROOT
BRANCH   4   7
ATOM      7  C   UNL     1       3.827   4.924  19.111  0.00  0.00    +0.000 C 
ATOM      8  C   UNL     1       5.033   5.648  18.436  0.00  0.00    +0.000 C 
ATOM      9  C   UNL     1       5.356   5.152  17.049  0.00  0.00    +0.000 A 
ATOM     10  C   UNL     1       6.025   6.002  16.155  0.00  0.00    +0.000 A 
ATOM     11  C   UNL     1       6.262   5.607  14.839  0.00  0.00    +0.000 A 
ATOM     12  C   UNL     1       5.865   4.342  14.417  0.00  0.00    +0.000 A 
ATOM     13  C   UNL     1       5.264   3.463  15.318  0.00  0.00    +0.000 A 
ATOM     14  C   UNL     1       5.008   3.856  16.642  0.00  0.00    +0.000 A 
ATOM     15  C   UNL     1       4.305   2.893  17.571  0.00  0.00    +0.000 C 
ATOM     16  C   UNL     1       4.141   3.399  19.018  0.00  0.00    +0.000 C 
BRANCH  16  17
ATOM     17  O   UNL     1       5.335   3.102  19.770  0.00  0.00    +0.000 OA
ATOM     18  H   UNL     1       6.015   3.754  19.513  0.00  0.00    +0.000 HD
ENDBRANCH  16  17
ENDBRANCH   4   7
BRANCH   1  20
ATOM     19  O   UNL     1      -0.431   7.878  21.777  0.00  0.00    +0.000 OA
ATOM     20  C   UNL     1       0.517   8.176  21.054  0.00  0.00    +0.000 C 
BRANCH  20  21
ATOM     21  C   UNL     1       0.552   9.556  20.427  0.00  0.00    +0.000 A 
ATOM     22  C   UNL     1       1.063  10.627  21.170  0.00  0.00    +0.000 A 
ATOM     23  C   UNL     1       1.139  11.920  20.623  0.00  0.00    +0.000 A 
ATOM     24  C   UNL     1       0.701  12.140  19.326  0.00  0.00    +0.000 A 
ATOM     25  F   UNL     1       0.778  13.369  18.794  0.00  0.00    +0.000 F 
ATOM     26  C   UNL     1       0.175  11.099  18.570  0.00  0.00    +0.000 A 
ATOM     27  C   UNL     1       0.094   9.814  19.117  0.00  0.00    +0.000 A 
ENDBRANCH  20  21
ENDBRANCH   1  20
TORSDOF 4
ENDMDL
MODEL 7
REMARK VINA RESULT:      -6.9      3.526      8.851
REMARK  Name = 
REMARK  4 active torsions:
REMARK  status: ('A' for Active; 'I' for Inactive)
REMARK    1  A    between atoms: C_2  and  C_3
REMARK    2  A    between atoms: C_2  and  C_10
REMARK    3  A    between atoms: N_13  and  C_14
REMARK    4  A    between atoms: C_23  and  O_24
REMARK                            x       y       z     vdW  Elec       q    Type
REMARK                         _______ _______ _______ _____ _____    ______ ____
ROOT
ATOM      1  C   UNL     1       2.580   7.768  18.792  0.00  0.00    +0.000 C 
ATOM      2  C   UNL     1       1.800   7.656  20.106  0.00  0.00    +0.000 C 
ATOM      3  C   UNL     1       0.389   8.238  20.068  0.00  0.00    +0.000 C 
ATOM      4  N   UNL     1       0.329   9.577  19.477  0.00  0.00    +0.000 NA
ATOM      5  C   UNL     1       0.664   9.422  18.053  0.00  0.00    +0.000 C 
ATOM      6  C   UNL     1       2.017   8.758  17.748  0.00  0.00    +0.000 C 
ENDROOT
BRANCH   4   7
ATOM      7  C   UNL     1       1.091  10.651  20.185  0.00  0.00    +0.000 C 
ATOM      8  C   UNL     1       0.708  10.900  21.676  0.00  0.00    +0.000 C 
ATOM      9  C   UNL     1      -0.609  11.611  21.867  0.00  0.00    +0.000 A 
ATOM     10  C   UNL     1      -1.308  11.447  23.073  0.00  0.00    +0.000 A 
ATOM     11  C   UNL     1      -2.568  12.020  23.248  0.00  0.00    +0.000 A 
ATOM     12  C   UNL     1      -3.122  12.794  22.233  0.00  0.00    +0.000 A 
ATOM     13  C   UNL     1      -2.403  13.021  21.059  0.00  0.00    +0.000 A 
ATOM     14  C   UNL     1      -1.140  12.438  20.866  0.00  0.00    +0.000 A 
ATOM     15  C   UNL     1      -0.418  12.665  19.557  0.00  0.00    +0.000 C 
ATOM     16  C   UNL     1       0.989  12.040  19.482  0.00  0.00    +0.000 C 
BRANCH  16  17
ATOM     17  O   UNL     1       1.950  12.947  20.059  0.00  0.00    +0.000 OA
ATOM     18  H   UNL     1       2.671  12.410  20.440  0.00  0.00    +0.000 HD
ENDBRANCH  16  17
ENDBRANCH   4   7
BRANCH   1  20
ATOM     19  O   UNL     1       1.941   5.586  17.978  0.00  0.00    +0.000 OA
ATOM     20  C   UNL     1       2.859   6.359  18.246  0.00  0.00    +0.000 C 
BRANCH  20  21
ATOM     21  C   UNL     1       4.287   5.877  18.089  0.00  0.00    +0.000 A 
ATOM     22  C   UNL     1       5.009   5.507  19.231  0.00  0.00    +0.000 A 
ATOM     23  C   UNL     1       6.328   5.031  19.136  0.00  0.00    +0.000 A 
ATOM     24  C   UNL     1       6.926   4.924  17.889  0.00  0.00    +0.000 A 
ATOM     25  F   UNL     1       8.181   4.461  17.789  0.00  0.00    +0.000 F 
ATOM     26  C   UNL     1       6.240   5.297  16.740  0.00  0.00    +0.000 A 
ATOM     27  C   UNL     1       4.930   5.777  16.837  0.00  0.00    +0.000 A 
ENDBRANCH  20  21
ENDBRANCH   1  20
TORSDOF 4
ENDMDL
MODEL 8
REMARK VINA RESULT:      -6.8      3.791      8.866
REMARK  Name = 
REMARK  4 active torsions:
REMARK  status: ('A' for Active; 'I' for Inactive)
REMARK    1  A    between atoms: C_2  and  C_3
REMARK    2  A    between atoms: C_2  and  C_10
REMARK    3  A    between atoms: N_13  and  C_14
REMARK    4  A    between atoms: C_23  and  O_24
REMARK                            x       y       z     vdW  Elec       q    Type
REMARK                         _______ _______ _______ _____ _____    ______ ____
ROOT
ATOM      1  C   UNL     1       2.449   8.484  18.728  0.00  0.00    +0.000 C 
ATOM      2  C   UNL     1       1.818   8.374  20.120  0.00  0.00    +0.000 C 
ATOM      3  C   UNL     1       0.324   8.683  20.176  0.00  0.00    +0.000 C 
ATOM      4  N   UNL     1      -0.041   9.917  19.476  0.00  0.00    +0.000 NA
ATOM      5  C   UNL     1       0.196   9.673  18.045  0.00  0.00    +0.000 C 
ATOM      6  C   UNL     1       1.620   9.238  17.663  0.00  0.00    +0.000 C 
ENDROOT
BRANCH   4   7
ATOM      7  C   UNL     1       0.559  11.181  20.002  0.00  0.00    +0.000 C 
ATOM      8  C   UNL     1       0.280  11.504  21.503  0.00  0.00    +0.000 C 
ATOM      9  C   UNL     1      -1.126  11.970  21.787  0.00  0.00    +0.000 A 
ATOM     10  C   UNL     1      -1.658  11.801  23.074  0.00  0.00    +0.000 A 
ATOM     11  C   UNL     1      -2.983  12.142  23.346  0.00  0.00    +0.000 A 
ATOM     12  C   UNL     1      -3.775  12.691  22.342  0.00  0.00    +0.000 A 
ATOM     13  C   UNL     1      -3.233  12.929  21.079  0.00  0.00    +0.000 A 
ATOM     14  C   UNL     1      -1.904  12.577  20.789  0.00  0.00    +0.000 A 
ATOM     15  C   UNL     1      -1.372  12.801  19.392  0.00  0.00    +0.000 C 
ATOM     16  C   UNL     1       0.117  12.448  19.206  0.00  0.00    +0.000 C 
BRANCH  16  17
ATOM     17  O   UNL     1       0.930  13.573  19.594  0.00  0.00    +0.000 OA
ATOM     18  H   UNL     1       1.863  13.333  19.432  0.00  0.00    +0.000 HD
ENDBRANCH  16  17
ENDBRANCH   4   7
BRANCH   1  20
ATOM     19  O   UNL     1       3.782   6.977  17.393  0.00  0.00    +0.000 OA
ATOM     20  C   UNL     1       2.944   7.099  18.284  0.00  0.00    +0.000 C 
BRANCH  20  21
ATOM     21  C   UNL     1       2.348   5.849  18.902  0.00  0.00    +0.000 A 
ATOM     22  C   UNL     1       1.782   4.880  18.064  0.00  0.00    +0.000 A 
ATOM     23  C   UNL     1       1.239   3.694  18.588  0.00  0.00    +0.000 A 
ATOM     24  C   UNL     1       1.266   3.478  19.957  0.00  0.00    +0.000 A 
ATOM     25  F   UNL     1       0.758   2.344  20.464  0.00  0.00    +0.000 F 
ATOM     26  C   UNL     1       1.808   4.428  20.814  0.00  0.00    +0.000 A 
ATOM     27  C   UNL     1       2.341   5.611  20.292  0.00  0.00    +0.000 A 
ENDBRANCH  20  21
ENDBRANCH   1  20
TORSDOF 4
ENDMDL
MODEL 9
REMARK VINA RESULT:      -6.8      3.404      8.738
REMARK  Name = 
REMARK  4 active torsions:
REMARK  status: ('A' for Active; 'I' for Inactive)
REMARK    1  A    between atoms: C_2  and  C_3
REMARK    2  A    between atoms: C_2  and  C_10
REMARK    3  A    between atoms: N_13  and  C_14
REMARK    4  A    between atoms: C_23  and  O_24
REMARK                            x       y       z     vdW  Elec       q    Type
REMARK                         _______ _______ _______ _____ _____    ______ ____
ROOT
ATOM      1  C   UNL     1       2.115   7.769  19.919  0.00  0.00    +0.000 C 
ATOM      2  C   UNL     1       1.010   8.237  20.872  0.00  0.00    +0.000 C 
ATOM      3  C   UNL     1      -0.182   8.908  20.195  0.00  0.00    +0.000 C 
ATOM      4  N   UNL     1       0.203   9.928  19.217  0.00  0.00    +0.000 NA
ATOM      5  C   UNL     1       0.861   9.218  18.108  0.00  0.00    +0.000 C 
ATOM      6  C   UNL     1       2.072   8.351  18.488  0.00  0.00    +0.000 C 
ENDROOT
BRANCH   4   7
ATOM      7  C   UNL     1       0.963  11.102  19.745  0.00  0.00    +0.000 C 
ATOM      8  C   UNL     1       0.736  11.450  21.249  0.00  0.00    +0.000 C 
ATOM      9  C   UNL     1      -0.597  12.091  21.543  0.00  0.00    +0.000 A 
ATOM     10  C   UNL     1      -1.140  11.985  22.832  0.00  0.00    +0.000 A 
ATOM     11  C   UNL     1      -2.409  12.491  23.113  0.00  0.00    +0.000 A 
ATOM     12  C   UNL     1      -3.129  13.142  22.117  0.00  0.00    +0.000 A 
ATOM     13  C   UNL     1      -2.568  13.315  20.852  0.00  0.00    +0.000 A 
ATOM     14  C   UNL     1      -1.297  12.797  20.553  0.00  0.00    +0.000 A 
ATOM     15  C   UNL     1      -0.748  12.959  19.154  0.00  0.00    +0.000 C 
ATOM     16  C   UNL     1       0.683  12.419  18.958  0.00  0.00    +0.000 C 
BRANCH  16  17
ATOM     17  O   UNL     1       1.636  13.429  19.346  0.00  0.00    +0.000 OA
ATOM     18  H   UNL     1       1.195  14.022  19.983  0.00  0.00    +0.000 HD
ENDBRANCH  16  17
ENDBRANCH   4   7
BRANCH   1  20
ATOM     19  O   UNL     1       1.670   5.594  20.870  0.00  0.00    +0.000 OA
ATOM     20  C   UNL     1       2.220   6.236  19.978  0.00  0.00    +0.000 C 
BRANCH  20  21
ATOM     21  C   UNL     1       3.067   5.497  18.961  0.00  0.00    +0.000 A 
ATOM     22  C   UNL     1       4.462   5.591  19.042  0.00  0.00    +0.000 A 
ATOM     23  C   UNL     1       5.290   4.904  18.137  0.00  0.00    +0.000 A 
ATOM     24  C   UNL     1       4.717   4.118  17.149  0.00  0.00    +0.000 A 
ATOM     25  F   UNL     1       5.501   3.452  16.288  0.00  0.00    +0.000 F 
ATOM     26  C   UNL     1       3.336   4.018  17.035  0.00  0.00    +0.000 A 
ATOM     27  C   UNL     1       2.512   4.707  17.932  0.00  0.00    +0.000 A 
ENDBRANCH  20  21
ENDBRANCH   1  20
TORSDOF 4
ENDMDL
