MODEL 1
REMARK VINA RESULT:      -7.1      0.000      0.000
REMARK  Name = 
REMARK  5 active torsions:
REMARK  status: ('A' for Active; 'I' for Inactive)
REMARK    1  A    between atoms: C_1  and  O_2
REMARK    2  A    between atoms: O_2  and  C_3
REMARK    3  A    between atoms: C_6  and  C_7
REMARK    4  A    between atoms: C_7  and  O_8
REMARK    5  A    between atoms: C_7  and  C_9
REMARK                            x       y       z     vdW  Elec       q    Type
REMARK                         _______ _______ _______ _____ _____    ______ ____
ROOT
ATOM      1  C   UNL     1       5.173   4.109  16.264  0.00  0.00    +0.000 C 
ENDROOT
BRANCH   1   2
ATOM      2  C   UNL     1       4.043   3.734  17.209  0.00  0.00    +0.000 A 
ATOM      3  C   UNL     1       3.873   2.405  17.655  0.00  0.00    +0.000 A 
ATOM      4  C   UNL     1       3.077   2.100  18.767  0.00  0.00    +0.000 A 
ATOM      5  C   UNL     1       2.498   3.166  19.420  0.00  0.00    +0.000 A 
ATOM      6  C   UNL     1       2.583   4.453  18.937  0.00  0.00    +0.000 A 
ATOM      7  C   UNL     1       3.306   4.768  17.814  0.00  0.00    +0.000 A 
ATOM      8  O   UNL     1       2.006   5.356  19.783  0.00  0.00    +0.000 OA
ATOM      9  C   UNL     1       1.882   4.526  20.954  0.00  0.00    +0.000 C 
ATOM     10  O   UNL     1       1.877   3.118  20.631  0.00  0.00    +0.000 OA
ENDBRANCH   1   2
BRANCH   1  14
ATOM     11  C   UNL     1       7.791   6.990  18.216  0.00  0.00    +0.000 A 
ATOM     12  C   UNL     1       6.930   7.386  17.192  0.00  0.00    +0.000 A 
ATOM     13  C   UNL     1       6.096   6.462  16.554  0.00  0.00    +0.000 A 
ATOM     14  C   UNL     1       6.123   5.111  16.922  0.00  0.00    +0.000 A 
ATOM     15  C   UNL     1       7.001   4.720  17.952  0.00  0.00    +0.000 A 
ATOM     16  C   UNL     1       7.830   5.650  18.592  0.00  0.00    +0.000 A 
BRANCH  11  18
ATOM     17  C   UNL     1       8.392   9.286  18.187  0.00  0.00    +0.000 C 
ATOM     18  O   UNL     1       8.563   7.988  18.744  0.00  0.00    +0.000 OA
ENDBRANCH  11  18
ENDBRANCH   1  14
BRANCH   1  19
ATOM     19  O   UNL     1       5.883   2.944  15.848  0.00  0.00    +0.000 OA
ATOM     20  H   UNL     1       5.477   2.182  16.293  0.00  0.00    +0.000 HD
ENDBRANCH   1  19
TORSDOF 4
ENDMDL
MODEL 2
REMARK VINA RESULT:      -7.1      0.321      1.149
REMARK  Name = 
REMARK  5 active torsions:
REMARK  status: ('A' for Active; 'I' for Inactive)
REMARK    1  A    between atoms: C_1  and  O_2
REMARK    2  A    between atoms: O_2  and  C_3
REMARK    3  A    between atoms: C_6  and  C_7
REMARK    4  A    between atoms: C_7  and  O_8
REMARK    5  A    between atoms: C_7  and  C_9
REMARK                            x       y       z     vdW  Elec       q    Type
REMARK                         _______ _______ _______ _____ _____    ______ ____
ROOT
ATOM      1  C   UNL     1       4.961   4.048  16.334  0.00  0.00    +0.000 C 
ENDROOT
BRANCH   1   2
ATOM      2  C   UNL     1       3.903   3.583  17.322  0.00  0.00    +0.000 A 
ATOM      3  C   UNL     1       3.778   2.221  17.672  0.00  0.00    +0.000 A 
ATOM      4  C   UNL     1       3.065   1.818  18.808  0.00  0.00    +0.000 A 
ATOM      5  C   UNL     1       2.521   2.820  19.581  0.00  0.00    +0.000 A 
ATOM      6  C   UNL     1       2.559   4.143  19.197  0.00  0.00    +0.000 A 
ATOM      7  C   UNL     1       3.199   4.555  18.055  0.00  0.00    +0.000 A 
ATOM      8  O   UNL     1       2.033   4.968  20.148  0.00  0.00    +0.000 OA
ATOM      9  C   UNL     1       1.998   4.047  21.255  0.00  0.00    +0.000 C 
ATOM     10  O   UNL     1       1.985   2.668  20.824  0.00  0.00    +0.000 OA
ENDBRANCH   1   2
BRANCH   1  14
ATOM     11  C   UNL     1       7.623   7.037  18.051  0.00  0.00    +0.000 A 
ATOM     12  C   UNL     1       7.696   5.702  18.449  0.00  0.00    +0.000 A 
ATOM     13  C   UNL     1       6.836   4.741  17.909  0.00  0.00    +0.000 A 
ATOM     14  C   UNL     1       5.867   5.106  16.966  0.00  0.00    +0.000 A 
ATOM     15  C   UNL     1       5.796   6.459  16.576  0.00  0.00    +0.000 A 
ATOM     16  C   UNL     1       6.663   7.417  17.115  0.00  0.00    +0.000 A 
BRANCH  11  18
ATOM     17  C   UNL     1       8.452   9.247  18.292  0.00  0.00    +0.000 C 
ATOM     18  O   UNL     1       8.509   7.877  18.667  0.00  0.00    +0.000 OA
ENDBRANCH  11  18
ENDBRANCH   1  14
BRANCH   1  19
ATOM     19  O   UNL     1       5.731   2.941  15.870  0.00  0.00    +0.000 OA
ATOM     20  H   UNL     1       5.352   2.658  15.022  0.00  0.00    +0.000 HD
ENDBRANCH   1  19
TORSDOF 4
ENDMDL
MODEL 3
REMARK VINA RESULT:      -7.0      2.396      3.210
REMARK  Name = 
REMARK  5 active torsions:
REMARK  status: ('A' for Active; 'I' for Inactive)
REMARK    1  A    between atoms: C_1  and  O_2
REMARK    2  A    between atoms: O_2  and  C_3
REMARK    3  A    between atoms: C_6  and  C_7
REMARK    4  A    between atoms: C_7  and  O_8
REMARK    5  A    between atoms: C_7  and  C_9
REMARK                            x       y       z     vdW  Elec       q    Type
REMARK                         _______ _______ _______ _____ _____    ______ ____
ROOT
ATOM      1  C   UNL     1       3.520   6.933  18.376  0.00  0.00    +0.000 C 
ENDROOT
BRANCH   1   2
ATOM      2  C   UNL     1       2.574   5.851  18.870  0.00  0.00    +0.000 A 
ATOM      3  C   UNL     1       1.922   4.982  17.969  0.00  0.00    +0.000 A 
ATOM      4  C   UNL     1       1.333   3.786  18.400  0.00  0.00    +0.000 A 
ATOM      5  C   UNL     1       1.451   3.489  19.739  0.00  0.00    +0.000 A 
ATOM      6  C   UNL     1       2.003   4.374  20.639  0.00  0.00    +0.000 A 
ATOM      7  C   UNL     1       2.531   5.580  20.250  0.00  0.00    +0.000 A 
ATOM      8  O   UNL     1       2.091   3.842  21.893  0.00  0.00    +0.000 OA
ATOM      9  C   UNL     1       1.858   2.458  21.571  0.00  0.00    +0.000 C 
ATOM     10  O   UNL     1       1.150   2.295  20.323  0.00  0.00    +0.000 OA
ENDBRANCH   1   2
BRANCH   1  14
ATOM     11  C   UNL     1       6.747   5.320  15.936  0.00  0.00    +0.000 A 
ATOM     12  C   UNL     1       5.743   6.103  15.366  0.00  0.00    +0.000 A 
ATOM     13  C   UNL     1       4.699   6.614  16.143  0.00  0.00    +0.000 A 
ATOM     14  C   UNL     1       4.631   6.332  17.513  0.00  0.00    +0.000 A 
ATOM     15  C   UNL     1       5.645   5.533  18.078  0.00  0.00    +0.000 A 
ATOM     16  C   UNL     1       6.693   5.029  17.297  0.00  0.00    +0.000 A 
BRANCH  11  18
ATOM     17  C   UNL     1       7.337   4.841  13.688  0.00  0.00    +0.000 C 
ATOM     18  O   UNL     1       7.700   4.871  15.063  0.00  0.00    +0.000 OA
ENDBRANCH  11  18
ENDBRANCH   1  14
BRANCH   1  19
ATOM     19  O   UNL     1       2.803   7.928  17.647  0.00  0.00    +0.000 OA
ATOM     20  H   UNL     1       3.413   8.666  17.485  0.00  0.00    +0.000 HD
ENDBRANCH   1  19
TORSDOF 4
ENDMDL
MODEL 4
REMARK VINA RESULT:      -7.0      1.147      1.345
REMARK  Name = 
REMARK  5 active torsions:
REMARK  status: ('A' for Active; 'I' for Inactive)
REMARK    1  A    between atoms: C_1  and  O_2
REMARK    2  A    between atoms: O_2  and  C_3
REMARK    3  A    between atoms: C_6  and  C_7
REMARK    4  A    between atoms: C_7  and  O_8
REMARK    5  A    between atoms: C_7  and  C_9
REMARK                            x       y       z     vdW  Elec       q    Type
REMARK                         _______ _______ _______ _____ _____    ______ ____
ROOT
ATOM      1  C   UNL     1       4.595   4.195  16.869  0.00  0.00    +0.000 C 
ENDROOT
BRANCH   1   2
ATOM      2  C   UNL     1       3.432   4.210  17.848  0.00  0.00    +0.000 A 
ATOM      3  C   UNL     1       2.103   4.025  17.410  0.00  0.00    +0.000 A 
ATOM      4  C   UNL     1       1.075   3.695  18.302  0.00  0.00    +0.000 A 
ATOM      5  C   UNL     1       1.434   3.530  19.621  0.00  0.00    +0.000 A 
ATOM      6  C   UNL     1       2.708   3.800  20.072  0.00  0.00    +0.000 A 
ATOM      7  C   UNL     1       3.717   4.185  19.226  0.00  0.00    +0.000 A 
ATOM      8  O   UNL     1       2.860   3.492  21.393  0.00  0.00    +0.000 OA
ATOM      9  C   UNL     1       1.669   2.705  21.583  0.00  0.00    +0.000 C 
ATOM     10  O   UNL     1       0.650   3.004  20.603  0.00  0.00    +0.000 OA
ENDBRANCH   1   2
BRANCH   1  14
ATOM     11  C   UNL     1       7.634   7.013  18.207  0.00  0.00    +0.000 A 
ATOM     12  C   UNL     1       6.586   7.429  17.387  0.00  0.00    +0.000 A 
ATOM     13  C   UNL     1       5.613   6.526  16.946  0.00  0.00    +0.000 A 
ATOM     14  C   UNL     1       5.686   5.174  17.306  0.00  0.00    +0.000 A 
ATOM     15  C   UNL     1       6.754   4.762  18.127  0.00  0.00    +0.000 A 
ATOM     16  C   UNL     1       7.721   5.671  18.572  0.00  0.00    +0.000 A 
BRANCH  11  18
ATOM     17  C   UNL     1       8.279   9.289  18.025  0.00  0.00    +0.000 C 
ATOM     18  O   UNL     1       8.524   7.991  18.554  0.00  0.00    +0.000 OA
ENDBRANCH  11  18
ENDBRANCH   1  14
BRANCH   1  19
ATOM     19  O   UNL     1       5.124   2.877  16.744  0.00  0.00    +0.000 OA
ATOM     20  H   UNL     1       4.398   2.297  16.462  0.00  0.00    +0.000 HD
ENDBRANCH   1  19
TORSDOF 4
ENDMDL
MODEL 5
REMARK VINA RESULT:      -6.9      2.525      3.885
REMARK  Name = 
REMARK  5 active torsions:
REMARK  status: ('A' for Active; 'I' for Inactive)
REMARK    1  A    between atoms: C_1  and  O_2
REMARK    2  A    between atoms: O_2  and  C_3
REMARK    3  A    between atoms: C_6  and  C_7
REMARK    4  A    between atoms: C_7  and  O_8
REMARK    5  A    between atoms: C_7  and  C_9
REMARK                            x       y       z     vdW  Elec       q    Type
REMARK                         _______ _______ _______ _____ _____    ______ ____
ROOT
ATOM      1  C   UNL     1       4.184   6.358  18.006  0.00  0.00    +0.000 C 
ENDROOT
BRANCH   1   2
ATOM      2  C   UNL     1       3.037   5.549  18.590  0.00  0.00    +0.000 A 
ATOM      3  C   UNL     1       2.176   4.798  17.762  0.00  0.00    +0.000 A 
ATOM      4  C   UNL     1       1.348   3.794  18.283  0.00  0.00    +0.000 A 
ATOM      5  C   UNL     1       1.443   3.558  19.636  0.00  0.00    +0.000 A 
ATOM      6  C   UNL     1       2.211   4.348  20.464  0.00  0.00    +0.000 A 
ATOM      7  C   UNL     1       2.982   5.377  19.986  0.00  0.00    +0.000 A 
ATOM      8  O   UNL     1       2.222   3.885  21.749  0.00  0.00    +0.000 OA
ATOM      9  C   UNL     1       1.673   2.573  21.523  0.00  0.00    +0.000 C 
ATOM     10  O   UNL     1       0.902   2.501  20.303  0.00  0.00    +0.000 OA
ENDBRANCH   1   2
BRANCH   1  14
ATOM     11  C   UNL     1       5.957   4.183  14.675  0.00  0.00    +0.000 A 
ATOM     12  C   UNL     1       5.690   3.543  15.885  0.00  0.00    +0.000 A 
ATOM     13  C   UNL     1       5.130   4.239  16.961  0.00  0.00    +0.000 A 
ATOM     14  C   UNL     1       4.845   5.606  16.849  0.00  0.00    +0.000 A 
ATOM     15  C   UNL     1       5.127   6.246  15.626  0.00  0.00    +0.000 A 
ATOM     16  C   UNL     1       5.681   5.543  14.549  0.00  0.00    +0.000 A 
BRANCH  11  18
ATOM     17  C   UNL     1       5.900   3.417  12.430  0.00  0.00    +0.000 C 
ATOM     18  O   UNL     1       6.518   3.392  13.710  0.00  0.00    +0.000 OA
ENDBRANCH  11  18
ENDBRANCH   1  14
BRANCH   1  19
ATOM     19  O   UNL     1       3.724   7.637  17.575  0.00  0.00    +0.000 OA
ATOM     20  H   UNL     1       2.907   7.496  17.068  0.00  0.00    +0.000 HD
ENDBRANCH   1  19
TORSDOF 4
ENDMDL
MODEL 6
REMARK VINA RESULT:      -6.9      2.256      6.345
REMARK  Name = 
REMARK  5 active torsions:
REMARK  status: ('A' for Active; 'I' for Inactive)
REMARK    1  A    between atoms: C_1  and  O_2
REMARK    2  A    between atoms: O_2  and  C_3
REMARK    3  A    between atoms: C_6  and  C_7
REMARK    4  A    between atoms: C_7  and  O_8
REMARK    5  A    between atoms: C_7  and  C_9
REMARK                            x       y       z     vdW  Elec       q    Type
REMARK                         _______ _______ _______ _____ _____    ______ ____
ROOT
ATOM      1  C   UNL     1       3.091   6.955  17.567  0.00  0.00    +0.000 C 
ENDROOT
BRANCH   1   2
ATOM      2  C   UNL     1       4.529   6.617  17.206  0.00  0.00    +0.000 A 
ATOM      3  C   UNL     1       5.429   6.122  18.173  0.00  0.00    +0.000 A 
ATOM      4  C   UNL     1       6.626   5.491  17.808  0.00  0.00    +0.000 A 
ATOM      5  C   UNL     1       6.860   5.351  16.458  0.00  0.00    +0.000 A 
ATOM      6  C   UNL     1       6.033   5.913  15.510  0.00  0.00    +0.000 A 
ATOM      7  C   UNL     1       4.888   6.590  15.846  0.00  0.00    +0.000 A 
ATOM      8  O   UNL     1       6.410   5.581  14.240  0.00  0.00    +0.000 OA
ATOM      9  C   UNL     1       7.319   4.506  14.545  0.00  0.00    +0.000 C 
ATOM     10  O   UNL     1       7.836   4.588  15.891  0.00  0.00    +0.000 OA
ENDBRANCH   1   2
BRANCH   1  14
ATOM     11  C   UNL     1       1.247   3.898  20.062  0.00  0.00    +0.000 A 
ATOM     12  C   UNL     1       1.717   5.087  20.619  0.00  0.00    +0.000 A 
ATOM     13  C   UNL     1       2.319   6.067  19.824  0.00  0.00    +0.000 A 
ATOM     14  C   UNL     1       2.481   5.863  18.448  0.00  0.00    +0.000 A 
ATOM     15  C   UNL     1       2.012   4.654  17.896  0.00  0.00    +0.000 A 
ATOM     16  C   UNL     1       1.403   3.679  18.695  0.00  0.00    +0.000 A 
BRANCH  11  18
ATOM     17  C   UNL     1       1.580   2.426  21.893  0.00  0.00    +0.000 C 
ATOM     18  O   UNL     1       0.694   3.018  20.951  0.00  0.00    +0.000 OA
ENDBRANCH  11  18
ENDBRANCH   1  14
BRANCH   1  19
ATOM     19  O   UNL     1       3.026   8.221  18.221  0.00  0.00    +0.000 OA
ATOM     20  H   UNL     1       3.899   8.392  18.611  0.00  0.00    +0.000 HD
ENDBRANCH   1  19
TORSDOF 4
ENDMDL
MODEL 7
REMARK VINA RESULT:      -6.9      2.380      3.443
REMARK  Name = 
REMARK  5 active torsions:
REMARK  status: ('A' for Active; 'I' for Inactive)
REMARK    1  A    between atoms: C_1  and  O_2
REMARK    2  A    between atoms: O_2  and  C_3
REMARK    3  A    between atoms: C_6  and  C_7
REMARK    4  A    between atoms: C_7  and  O_8
REMARK    5  A    between atoms: C_7  and  C_9
REMARK                            x       y       z     vdW  Elec       q    Type
REMARK                         _______ _______ _______ _____ _____    ______ ____
ROOT
ATOM      1  C   UNL     1       3.302   6.930  18.532  0.00  0.00    +0.000 C 
ENDROOT
BRANCH   1   2
ATOM      2  C   UNL     1       2.442   5.771  19.011  0.00  0.00    +0.000 A 
ATOM      3  C   UNL     1       1.856   4.869  18.098  0.00  0.00    +0.000 A 
ATOM      4  C   UNL     1       1.360   3.625  18.511  0.00  0.00    +0.000 A 
ATOM      5  C   UNL     1       1.505   3.317  19.845  0.00  0.00    +0.000 A 
ATOM      6  C   UNL     1       1.990   4.228  20.758  0.00  0.00    +0.000 A 
ATOM      7  C   UNL     1       2.424   5.476  20.387  0.00  0.00    +0.000 A 
ATOM      8  O   UNL     1       2.122   3.685  22.003  0.00  0.00    +0.000 OA
ATOM      9  C   UNL     1       1.994   2.292  21.660  0.00  0.00    +0.000 C 
ATOM     10  O   UNL     1       1.297   2.095  20.410  0.00  0.00    +0.000 OA
ENDBRANCH   1   2
BRANCH   1  14
ATOM     11  C   UNL     1       6.474   5.408  15.965  0.00  0.00    +0.000 A 
ATOM     12  C   UNL     1       6.437   5.087  17.322  0.00  0.00    +0.000 A 
ATOM     13  C   UNL     1       5.427   5.582  18.153  0.00  0.00    +0.000 A 
ATOM     14  C   UNL     1       4.438   6.430  17.638  0.00  0.00    +0.000 A 
ATOM     15  C   UNL     1       4.489   6.756  16.268  0.00  0.00    +0.000 A 
ATOM     16  C   UNL     1       5.499   6.252  15.439  0.00  0.00    +0.000 A 
BRANCH  11  18
ATOM     17  C   UNL     1       7.371   4.787  13.858  0.00  0.00    +0.000 C 
ATOM     18  O   UNL     1       7.522   4.871  15.270  0.00  0.00    +0.000 OA
ENDBRANCH  11  18
ENDBRANCH   1  14
BRANCH   1  19
ATOM     19  O   UNL     1       2.505   7.890  17.841  0.00  0.00    +0.000 OA
ATOM     20  H   UNL     1       3.111   8.502  17.393  0.00  0.00    +0.000 HD
ENDBRANCH   1  19
TORSDOF 4
ENDMDL
MODEL 8
REMARK VINA RESULT:      -6.8      2.246      6.313
REMARK  Name = 
REMARK  5 active torsions:
REMARK  status: ('A' for Active; 'I' for Inactive)
REMARK    1  A    between atoms: C_1  and  O_2
REMARK    2  A    between atoms: O_2  and  C_3
REMARK    3  A    between atoms: C_6  and  C_7
REMARK    4  A    between atoms: C_7  and  O_8
REMARK    5  A    between atoms: C_7  and  C_9
REMARK                            x       y       z     vdW  Elec       q    Type
REMARK                         _______ _______ _______ _____ _____    ______ ____
ROOT
ATOM      1  C   UNL     1       3.086   7.065  17.560  0.00  0.00    +0.000 C 
ENDROOT
BRANCH   1   2
ATOM      2  C   UNL     1       4.521   6.695  17.223  0.00  0.00    +0.000 A 
ATOM      3  C   UNL     1       5.406   6.218  18.214  0.00  0.00    +0.000 A 
ATOM      4  C   UNL     1       6.596   5.558  17.880  0.00  0.00    +0.000 A 
ATOM      5  C   UNL     1       6.840   5.371  16.538  0.00  0.00    +0.000 A 
ATOM      6  C   UNL     1       6.030   5.914  15.565  0.00  0.00    +0.000 A 
ATOM      7  C   UNL     1       4.892   6.618  15.868  0.00  0.00    +0.000 A 
ATOM      8  O   UNL     1       6.412   5.535  14.310  0.00  0.00    +0.000 OA
ATOM      9  C   UNL     1       7.302   4.457  14.658  0.00  0.00    +0.000 C 
ATOM     10  O   UNL     1       7.809   4.575  16.006  0.00  0.00    +0.000 OA
ENDBRANCH   1   2
BRANCH   1  14
ATOM     11  C   UNL     1       1.356   3.961  20.079  0.00  0.00    +0.000 A 
ATOM     12  C   UNL     1       1.446   3.792  18.697  0.00  0.00    +0.000 A 
ATOM     13  C   UNL     1       1.991   4.791  17.883  0.00  0.00    +0.000 A 
ATOM     14  C   UNL     1       2.441   5.994  18.441  0.00  0.00    +0.000 A 
ATOM     15  C   UNL     1       2.337   6.158  19.837  0.00  0.00    +0.000 A 
ATOM     16  C   UNL     1       1.797   5.153  20.649  0.00  0.00    +0.000 A 
BRANCH  11  18
ATOM     17  C   UNL     1       1.481   2.459  21.911  0.00  0.00    +0.000 C 
ATOM     18  O   UNL     1       0.789   2.916  20.755  0.00  0.00    +0.000 OA
ENDBRANCH  11  18
ENDBRANCH   1  14
BRANCH   1  19
ATOM     19  O   UNL     1       3.037   8.338  18.201  0.00  0.00    +0.000 OA
ATOM     20  H   UNL     1       2.136   8.457  18.543  0.00  0.00    +0.000 HD
ENDBRANCH   1  19
TORSDOF 4
ENDMDL
MODEL 9
REMARK VINA RESULT:      -6.8      2.766      5.364
REMARK  Name = 
REMARK  5 active torsions:
REMARK  status: ('A' for Active; 'I' for Inactive)
REMARK    1  A    between atoms: C_1  and  O_2
REMARK    2  A    between atoms: O_2  and  C_3
REMARK    3  A    between atoms: C_6  and  C_7
REMARK    4  A    between atoms: C_7  and  O_8
REMARK    5  A    between atoms: C_7  and  C_9
REMARK                            x       y       z     vdW  Elec       q    Type
REMARK                         _______ _______ _______ _____ _____    ______ ____
ROOT
ATOM      1  C   UNL     1       2.381   4.398  18.576  0.00  0.00    +0.000 C 
ENDROOT
BRANCH   1   2
ATOM      2  C   UNL     1       3.867   4.263  18.284  0.00  0.00    +0.000 A 
ATOM      3  C   UNL     1       4.341   4.092  16.966  0.00  0.00    +0.000 A 
ATOM      4  C   UNL     1       5.685   4.307  16.635  0.00  0.00    +0.000 A 
ATOM      5  C   UNL     1       6.510   4.726  17.655  0.00  0.00    +0.000 A 
ATOM      6  C   UNL     1       6.077   4.806  18.961  0.00  0.00    +0.000 A 
ATOM      7  C   UNL     1       4.780   4.539  19.319  0.00  0.00    +0.000 A 
ATOM      8  O   UNL     1       7.035   5.318  19.788  0.00  0.00    +0.000 OA
ATOM      9  C   UNL     1       7.937   5.843  18.796  0.00  0.00    +0.000 C 
ATOM     10  O   UNL     1       7.780   5.197  17.513  0.00  0.00    +0.000 OA
ENDBRANCH   1   2
BRANCH   1  14
ATOM     11  C   UNL     1       1.552   8.414  20.043  0.00  0.00    +0.000 A 
ATOM     12  C   UNL     1       1.376   7.302  20.867  0.00  0.00    +0.000 A 
ATOM     13  C   UNL     1       1.631   6.010  20.397  0.00  0.00    +0.000 A 
ATOM     14  C   UNL     1       2.051   5.805  19.076  0.00  0.00    +0.000 A 
ATOM     15  C   UNL     1       2.216   6.934  18.249  0.00  0.00    +0.000 A 
ATOM     16  C   UNL     1       1.967   8.227  18.726  0.00  0.00    +0.000 A 
BRANCH  11  18
ATOM     17  C   UNL     1       0.883  10.670  19.738  0.00  0.00    +0.000 C 
ATOM     18  O   UNL     1       1.253   9.618  20.620  0.00  0.00    +0.000 OA
ENDBRANCH  11  18
ENDBRANCH   1  14
BRANCH   1  19
ATOM     19  O   UNL     1       1.614   4.085  17.415  0.00  0.00    +0.000 OA
ATOM     20  H   UNL     1       1.878   3.197  17.123  0.00  0.00    +0.000 HD
ENDBRANCH   1  19
TORSDOF 4
ENDMDL
