MODEL 1
REMARK VINA RESULT:      -7.4      0.000      0.000
REMARK  Name = 
REMARK  6 active torsions:
REMARK  status: ('A' for Active; 'I' for Inactive)
REMARK    1  A    between atoms: N_1  and  N_2
REMARK    2  A    between atoms: C_3  and  C_5
REMARK    3  A    between atoms: C_5  and  O_6
REMARK    4  A    between atoms: O_6  and  C_7
REMARK    5  A    between atoms: C_11  and  O_12
REMARK    6  A    between atoms: O_12  and  C_13
REMARK                            x       y       z     vdW  Elec       q    Type
REMARK                         _______ _______ _______ _____ _____    ______ ____
ROOT
ATOM      1  C   UNL     1       5.721   4.340  15.562  0.00  0.00    +0.000 A 
ATOM      2  C   UNL     1       5.502   5.692  15.273  0.00  0.00    +0.000 A 
ATOM      3  C   UNL     1       4.953   6.542  16.230  0.00  0.00    +0.000 A 
ATOM      4  C   UNL     1       4.670   6.061  17.505  0.00  0.00    +0.000 A 
ATOM      5  C   UNL     1       4.938   4.725  17.815  0.00  0.00    +0.000 A 
ATOM      6  C   UNL     1       5.404   3.851  16.821  0.00  0.00    +0.000 A 
ENDROOT
BRANCH   1   7
ATOM      7  O   UNL     1       6.302   3.624  14.553  0.00  0.00    +0.000 OA
BRANCH   7   8
ATOM      8  C   UNL     1       6.304   4.220  13.258  0.00  0.00    +0.000 C 
BRANCH   8  10
ATOM      9  N   UNL     1       6.717   2.246  11.874  0.00  0.00    +0.000 N 
ATOM     10  C   UNL     1       5.787   3.220  12.226  0.00  0.00    +0.000 C 
ATOM     11  O   UNL     1       4.644   3.263  11.770  0.00  0.00    +0.000 OA
ATOM     12  H   UNL     1       7.597   2.222  12.390  0.00  0.00    +0.000 HD
BRANCH   9  13
ATOM     13  N   UNL     1       6.353   1.175  11.037  0.00  0.00    +0.000 NA
ATOM     14  H   UNL     1       6.059   1.548  10.131  0.00  0.00    +0.000 HD
ATOM     15  H   UNL     1       5.514   0.747  11.442  0.00  0.00    +0.000 HD
ENDBRANCH   9  13
ENDBRANCH   8  10
ENDBRANCH   7   8
ENDBRANCH   1   7
BRANCH   5  16
ATOM     16  O   UNL     1       4.685   4.337  19.112  0.00  0.00    +0.000 OA
BRANCH  16  17
ATOM     17  C   UNL     1       3.390   4.034  19.480  0.00  0.00    +0.000 A 
ATOM     18  C   UNL     1       2.549   4.897  20.192  0.00  0.00    +0.000 A 
ATOM     19  C   UNL     1       1.269   4.480  20.564  0.00  0.00    +0.000 A 
ATOM     20  C   UNL     1       0.807   3.222  20.180  0.00  0.00    +0.000 A 
ATOM     21  C   UNL     1       1.619   2.386  19.414  0.00  0.00    +0.000 A 
ATOM     22  C   UNL     1       2.908   2.792  19.063  0.00  0.00    +0.000 A 
ENDBRANCH  16  17
ENDBRANCH   5  16
TORSDOF 6
ENDMDL
MODEL 2
REMARK VINA RESULT:      -7.4      0.333      1.109
REMARK  Name = 
REMARK  6 active torsions:
REMARK  status: ('A' for Active; 'I' for Inactive)
REMARK    1  A    between atoms: N_1  and  N_2
REMARK    2  A    between atoms: C_3  and  C_5
REMARK    3  A    between atoms: C_5  and  O_6
REMARK    4  A    between atoms: O_6  and  C_7
REMARK    5  A    between atoms: C_11  and  O_12
REMARK    6  A    between atoms: O_12  and  C_13
REMARK                            x       y       z     vdW  Elec       q    Type
REMARK                         _______ _______ _______ _____ _____    ______ ____
ROOT
ATOM      1  C   UNL     1       5.820   4.350  15.441  0.00  0.00    +0.000 A 
ATOM      2  C   UNL     1       5.567   5.710  15.228  0.00  0.00    +0.000 A 
ATOM      3  C   UNL     1       4.936   6.476  16.207  0.00  0.00    +0.000 A 
ATOM      4  C   UNL     1       4.605   5.902  17.431  0.00  0.00    +0.000 A 
ATOM      5  C   UNL     1       4.906   4.559  17.669  0.00  0.00    +0.000 A 
ATOM      6  C   UNL     1       5.457   3.768  16.648  0.00  0.00    +0.000 A 
ENDROOT
BRANCH   1   7
ATOM      7  O   UNL     1       6.480   3.723  14.422  0.00  0.00    +0.000 OA
BRANCH   7   8
ATOM      8  C   UNL     1       6.327   4.277  13.117  0.00  0.00    +0.000 C 
BRANCH   8  10
ATOM      9  N   UNL     1       6.706   2.219  11.851  0.00  0.00    +0.000 N 
ATOM     10  C   UNL     1       5.786   3.215  12.163  0.00  0.00    +0.000 C 
ATOM     11  O   UNL     1       4.632   3.232  11.732  0.00  0.00    +0.000 OA
ATOM     12  H   UNL     1       7.599   2.227  12.347  0.00  0.00    +0.000 HD
BRANCH   9  13
ATOM     13  N   UNL     1       6.322   1.099  11.092  0.00  0.00    +0.000 NA
ATOM     14  H   UNL     1       5.403   0.783  11.410  0.00  0.00    +0.000 HD
ATOM     15  H   UNL     1       6.969   0.338  11.327  0.00  0.00    +0.000 HD
ENDBRANCH   9  13
ENDBRANCH   8  10
ENDBRANCH   7   8
ENDBRANCH   1   7
BRANCH   5  16
ATOM     16  O   UNL     1       4.601   4.078  18.922  0.00  0.00    +0.000 OA
BRANCH  16  17
ATOM     17  C   UNL     1       3.294   3.738  19.209  0.00  0.00    +0.000 A 
ATOM     18  C   UNL     1       2.551   2.791  18.496  0.00  0.00    +0.000 A 
ATOM     19  C   UNL     1       1.215   2.553  18.830  0.00  0.00    +0.000 A 
ATOM     20  C   UNL     1       0.637   3.219  19.910  0.00  0.00    +0.000 A 
ATOM     21  C   UNL     1       1.396   4.114  20.662  0.00  0.00    +0.000 A 
ATOM     22  C   UNL     1       2.724   4.372  20.314  0.00  0.00    +0.000 A 
ENDBRANCH  16  17
ENDBRANCH   5  16
TORSDOF 6
ENDMDL
MODEL 3
REMARK VINA RESULT:      -7.3      3.918      4.501
REMARK  Name = 
REMARK  6 active torsions:
REMARK  status: ('A' for Active; 'I' for Inactive)
REMARK    1  A    between atoms: N_1  and  N_2
REMARK    2  A    between atoms: C_3  and  C_5
REMARK    3  A    between atoms: C_5  and  O_6
REMARK    4  A    between atoms: O_6  and  C_7
REMARK    5  A    between atoms: C_11  and  O_12
REMARK    6  A    between atoms: O_12  and  C_13
REMARK                            x       y       z     vdW  Elec       q    Type
REMARK                         _______ _______ _______ _____ _____    ______ ____
ROOT
ATOM      1  C   UNL     1       4.994   6.051  16.865  0.00  0.00    +0.000 A 
ATOM      2  C   UNL     1       4.544   7.341  17.170  0.00  0.00    +0.000 A 
ATOM      3  C   UNL     1       3.263   7.543  17.680  0.00  0.00    +0.000 A 
ATOM      4  C   UNL     1       2.441   6.452  17.945  0.00  0.00    +0.000 A 
ATOM      5  C   UNL     1       2.907   5.158  17.693  0.00  0.00    +0.000 A 
ATOM      6  C   UNL     1       4.161   4.965  17.094  0.00  0.00    +0.000 A 
ENDROOT
BRANCH   1   7
ATOM      7  O   UNL     1       6.282   5.985  16.411  0.00  0.00    +0.000 OA
BRANCH   7   8
ATOM      8  C   UNL     1       7.287   6.565  17.240  0.00  0.00    +0.000 C 
BRANCH   8  10
ATOM      9  N   UNL     1       7.987   6.102  19.538  0.00  0.00    +0.000 N 
ATOM     10  C   UNL     1       7.749   5.550  18.283  0.00  0.00    +0.000 C 
ATOM     11  O   UNL     1       7.874   4.350  18.035  0.00  0.00    +0.000 OA
ATOM     12  H   UNL     1       7.745   7.084  19.677  0.00  0.00    +0.000 HD
BRANCH   9  13
ATOM     13  N   UNL     1       8.289   5.280  20.638  0.00  0.00    +0.000 NA
ATOM     14  H   UNL     1       9.005   4.604  20.360  0.00  0.00    +0.000 HD
ATOM     15  H   UNL     1       7.451   4.724  20.839  0.00  0.00    +0.000 HD
ENDBRANCH   9  13
ENDBRANCH   8  10
ENDBRANCH   7   8
ENDBRANCH   1   7
BRANCH   5  16
ATOM     16  O   UNL     1       2.060   4.128  18.034  0.00  0.00    +0.000 OA
BRANCH  16  17
ATOM     17  C   UNL     1       2.176   3.551  19.283  0.00  0.00    +0.000 A 
ATOM     18  C   UNL     1       3.366   3.034  19.806  0.00  0.00    +0.000 A 
ATOM     19  C   UNL     1       3.373   2.422  21.061  0.00  0.00    +0.000 A 
ATOM     20  C   UNL     1       2.204   2.374  21.819  0.00  0.00    +0.000 A 
ATOM     21  C   UNL     1       1.032   2.948  21.328  0.00  0.00    +0.000 A 
ATOM     22  C   UNL     1       1.018   3.537  20.062  0.00  0.00    +0.000 A 
ENDBRANCH  16  17
ENDBRANCH   5  16
TORSDOF 6
ENDMDL
MODEL 4
REMARK VINA RESULT:      -7.3      2.029      2.278
REMARK  Name = 
REMARK  6 active torsions:
REMARK  status: ('A' for Active; 'I' for Inactive)
REMARK    1  A    between atoms: N_1  and  N_2
REMARK    2  A    between atoms: C_3  and  C_5
REMARK    3  A    between atoms: C_5  and  O_6
REMARK    4  A    between atoms: O_6  and  C_7
REMARK    5  A    between atoms: C_11  and  O_12
REMARK    6  A    between atoms: O_12  and  C_13
REMARK                            x       y       z     vdW  Elec       q    Type
REMARK                         _______ _______ _______ _____ _____    ______ ____
ROOT
ATOM      1  C   UNL     1       6.053   4.302  16.333  0.00  0.00    +0.000 A 
ATOM      2  C   UNL     1       7.069   4.554  17.263  0.00  0.00    +0.000 A 
ATOM      3  C   UNL     1       6.800   5.265  18.430  0.00  0.00    +0.000 A 
ATOM      4  C   UNL     1       5.501   5.683  18.706  0.00  0.00    +0.000 A 
ATOM      5  C   UNL     1       4.474   5.386  17.806  0.00  0.00    +0.000 A 
ATOM      6  C   UNL     1       4.765   4.750  16.590  0.00  0.00    +0.000 A 
ENDROOT
BRANCH   1   7
ATOM      7  O   UNL     1       6.437   3.559  15.252  0.00  0.00    +0.000 OA
BRANCH   7   8
ATOM      8  C   UNL     1       5.913   3.949  13.983  0.00  0.00    +0.000 C 
BRANCH   8  10
ATOM      9  N   UNL     1       7.795   5.500  13.790  0.00  0.00    +0.000 N 
ATOM     10  C   UNL     1       7.026   4.549  13.126  0.00  0.00    +0.000 C 
ATOM     11  O   UNL     1       7.232   4.201  11.963  0.00  0.00    +0.000 OA
ATOM     12  H   UNL     1       7.622   5.637  14.787  0.00  0.00    +0.000 HD
BRANCH   9  13
ATOM     13  N   UNL     1       8.939   6.049  13.184  0.00  0.00    +0.000 NA
ATOM     14  H   UNL     1       9.126   5.545  12.313  0.00  0.00    +0.000 HD
ATOM     15  H   UNL     1       9.735   5.842  13.796  0.00  0.00    +0.000 HD
ENDBRANCH   9  13
ENDBRANCH   8  10
ENDBRANCH   7   8
ENDBRANCH   1   7
BRANCH   5  16
ATOM     16  O   UNL     1       3.207   5.780  18.175  0.00  0.00    +0.000 OA
BRANCH  16  17
ATOM     17  C   UNL     1       2.396   4.886  18.845  0.00  0.00    +0.000 A 
ATOM     18  C   UNL     1       2.132   4.938  20.218  0.00  0.00    +0.000 A 
ATOM     19  C   UNL     1       1.339   3.956  20.817  0.00  0.00    +0.000 A 
ATOM     20  C   UNL     1       0.764   2.954  20.037  0.00  0.00    +0.000 A 
ATOM     21  C   UNL     1       0.972   2.939  18.658  0.00  0.00    +0.000 A 
ATOM     22  C   UNL     1       1.786   3.905  18.063  0.00  0.00    +0.000 A 
ENDBRANCH  16  17
ENDBRANCH   5  16
TORSDOF 6
ENDMDL
MODEL 5
REMARK VINA RESULT:      -7.3      1.410      1.946
REMARK  Name = 
REMARK  6 active torsions:
REMARK  status: ('A' for Active; 'I' for Inactive)
REMARK    1  A    between atoms: N_1  and  N_2
REMARK    2  A    between atoms: C_3  and  C_5
REMARK    3  A    between atoms: C_5  and  O_6
REMARK    4  A    between atoms: O_6  and  C_7
REMARK    5  A    between atoms: C_11  and  O_12
REMARK    6  A    between atoms: O_12  and  C_13
REMARK                            x       y       z     vdW  Elec       q    Type
REMARK                         _______ _______ _______ _____ _____    ______ ____
ROOT
ATOM      1  C   UNL     1       6.222   5.277  15.731  0.00  0.00    +0.000 A 
ATOM      2  C   UNL     1       7.187   4.737  16.588  0.00  0.00    +0.000 A 
ATOM      3  C   UNL     1       7.009   4.773  17.970  0.00  0.00    +0.000 A 
ATOM      4  C   UNL     1       5.837   5.300  18.505  0.00  0.00    +0.000 A 
ATOM      5  C   UNL     1       4.847   5.791  17.650  0.00  0.00    +0.000 A 
ATOM      6  C   UNL     1       5.070   5.836  16.265  0.00  0.00    +0.000 A 
ENDROOT
BRANCH   1   7
ATOM      7  O   UNL     1       6.497   5.141  14.399  0.00  0.00    +0.000 OA
BRANCH   7   8
ATOM      8  C   UNL     1       5.678   4.235  13.662  0.00  0.00    +0.000 C 
BRANCH   8  10
ATOM      9  N   UNL     1       6.151   2.302  12.239  0.00  0.00    +0.000 N 
ATOM     10  C   UNL     1       6.482   3.625  12.516  0.00  0.00    +0.000 C 
ATOM     11  O   UNL     1       7.328   4.259  11.884  0.00  0.00    +0.000 OA
ATOM     12  H   UNL     1       5.357   1.898  12.739  0.00  0.00    +0.000 HD
BRANCH   9  13
ATOM     13  N   UNL     1       6.705   1.640  11.129  0.00  0.00    +0.000 NA
ATOM     14  H   UNL     1       5.958   1.429  10.462  0.00  0.00    +0.000 HD
ATOM     15  H   UNL     1       7.043   0.729  11.457  0.00  0.00    +0.000 HD
ENDBRANCH   9  13
ENDBRANCH   8  10
ENDBRANCH   7   8
ENDBRANCH   1   7
BRANCH   5  16
ATOM     16  O   UNL     1       3.692   6.242  18.250  0.00  0.00    +0.000 OA
BRANCH  16  17
ATOM     17  C   UNL     1       2.773   5.321  18.710  0.00  0.00    +0.000 A 
ATOM     18  C   UNL     1       2.247   4.278  17.939  0.00  0.00    +0.000 A 
ATOM     19  C   UNL     1       1.281   3.425  18.478  0.00  0.00    +0.000 A 
ATOM     20  C   UNL     1       0.878   3.579  19.804  0.00  0.00    +0.000 A 
ATOM     21  C   UNL     1       1.449   4.576  20.594  0.00  0.00    +0.000 A 
ATOM     22  C   UNL     1       2.396   5.445  20.048  0.00  0.00    +0.000 A 
ENDBRANCH  16  17
ENDBRANCH   5  16
TORSDOF 6
ENDMDL
MODEL 6
REMARK VINA RESULT:      -7.3      1.833      2.284
REMARK  Name = 
REMARK  6 active torsions:
REMARK  status: ('A' for Active; 'I' for Inactive)
REMARK    1  A    between atoms: N_1  and  N_2
REMARK    2  A    between atoms: C_3  and  C_5
REMARK    3  A    between atoms: C_5  and  O_6
REMARK    4  A    between atoms: O_6  and  C_7
REMARK    5  A    between atoms: C_11  and  O_12
REMARK    6  A    between atoms: O_12  and  C_13
REMARK                            x       y       z     vdW  Elec       q    Type
REMARK                         _______ _______ _______ _____ _____    ______ ____
ROOT
ATOM      1  C   UNL     1       5.262   5.909  16.618  0.00  0.00    +0.000 A 
ATOM      2  C   UNL     1       4.742   7.104  17.131  0.00  0.00    +0.000 A 
ATOM      3  C   UNL     1       3.500   7.123  17.763  0.00  0.00    +0.000 A 
ATOM      4  C   UNL     1       2.792   5.938  17.939  0.00  0.00    +0.000 A 
ATOM      5  C   UNL     1       3.333   4.734  17.477  0.00  0.00    +0.000 A 
ATOM      6  C   UNL     1       4.540   4.733  16.761  0.00  0.00    +0.000 A 
ENDROOT
BRANCH   1   7
ATOM      7  O   UNL     1       6.505   6.017  16.061  0.00  0.00    +0.000 OA
BRANCH   7   8
ATOM      8  C   UNL     1       7.156   4.802  15.697  0.00  0.00    +0.000 C 
BRANCH   8  10
ATOM      9  N   UNL     1       6.353   3.449  13.823  0.00  0.00    +0.000 N 
ATOM     10  C   UNL     1       7.058   4.593  14.187  0.00  0.00    +0.000 C 
ATOM     11  O   UNL     1       7.540   5.381  13.373  0.00  0.00    +0.000 OA
ATOM     12  H   UNL     1       5.892   2.921  14.565  0.00  0.00    +0.000 HD
BRANCH   9  13
ATOM     13  N   UNL     1       6.060   3.187  12.473  0.00  0.00    +0.000 NA
ATOM     14  H   UNL     1       5.376   2.427  12.424  0.00  0.00    +0.000 HD
ATOM     15  H   UNL     1       6.913   2.813  12.045  0.00  0.00    +0.000 HD
ENDBRANCH   9  13
ENDBRANCH   8  10
ENDBRANCH   7   8
ENDBRANCH   1   7
BRANCH   5  16
ATOM     16  O   UNL     1       2.602   3.597  17.739  0.00  0.00    +0.000 OA
BRANCH  16  17
ATOM     17  C   UNL     1       2.334   3.260  19.051  0.00  0.00    +0.000 A 
ATOM     18  C   UNL     1       1.060   3.288  19.627  0.00  0.00    +0.000 A 
ATOM     19  C   UNL     1       0.895   2.980  20.980  0.00  0.00    +0.000 A 
ATOM     20  C   UNL     1       1.994   2.591  21.744  0.00  0.00    +0.000 A 
ATOM     21  C   UNL     1       3.255   2.499  21.155  0.00  0.00    +0.000 A 
ATOM     22  C   UNL     1       3.424   2.832  19.809  0.00  0.00    +0.000 A 
ENDBRANCH  16  17
ENDBRANCH   5  16
TORSDOF 6
ENDMDL
MODEL 7
REMARK VINA RESULT:      -7.2      1.392      1.627
REMARK  Name = 
REMARK  6 active torsions:
REMARK  status: ('A' for Active; 'I' for Inactive)
REMARK    1  A    between atoms: N_1  and  N_2
REMARK    2  A    between atoms: C_3  and  C_5
REMARK    3  A    between atoms: C_5  and  O_6
REMARK    4  A    between atoms: O_6  and  C_7
REMARK    5  A    between atoms: C_11  and  O_12
REMARK    6  A    between atoms: O_12  and  C_13
REMARK                            x       y       z     vdW  Elec       q    Type
REMARK                         _______ _______ _______ _____ _____    ______ ____
ROOT
ATOM      1  C   UNL     1       6.043   4.479  16.312  0.00  0.00    +0.000 A 
ATOM      2  C   UNL     1       7.103   4.586  17.221  0.00  0.00    +0.000 A 
ATOM      3  C   UNL     1       6.902   5.142  18.483  0.00  0.00    +0.000 A 
ATOM      4  C   UNL     1       5.626   5.543  18.870  0.00  0.00    +0.000 A 
ATOM      5  C   UNL     1       4.555   5.387  17.986  0.00  0.00    +0.000 A 
ATOM      6  C   UNL     1       4.779   4.912  16.684  0.00  0.00    +0.000 A 
ENDROOT
BRANCH   1   7
ATOM      7  O   UNL     1       6.362   3.879  15.127  0.00  0.00    +0.000 OA
BRANCH   7   8
ATOM      8  C   UNL     1       6.824   4.728  14.078  0.00  0.00    +0.000 C 
BRANCH   8  10
ATOM      9  N   UNL     1       6.088   2.780  12.796  0.00  0.00    +0.000 N 
ATOM     10  C   UNL     1       6.807   3.971  12.752  0.00  0.00    +0.000 C 
ATOM     11  O   UNL     1       7.360   4.394  11.736  0.00  0.00    +0.000 OA
ATOM     12  H   UNL     1       5.568   2.571  13.649  0.00  0.00    +0.000 HD
BRANCH   9  13
ATOM     13  N   UNL     1       5.865   2.033  11.625  0.00  0.00    +0.000 NA
ATOM     14  H   UNL     1       6.307   2.513  10.837  0.00  0.00    +0.000 HD
ATOM     15  H   UNL     1       4.858   2.063  11.434  0.00  0.00    +0.000 HD
ENDBRANCH   9  13
ENDBRANCH   8  10
ENDBRANCH   7   8
ENDBRANCH   1   7
BRANCH   5  16
ATOM     16  O   UNL     1       3.315   5.752  18.460  0.00  0.00    +0.000 OA
BRANCH  16  17
ATOM     17  C   UNL     1       2.565   4.826  19.157  0.00  0.00    +0.000 A 
ATOM     18  C   UNL     1       2.492   4.762  20.553  0.00  0.00    +0.000 A 
ATOM     19  C   UNL     1       1.746   3.755  21.170  0.00  0.00    +0.000 A 
ATOM     20  C   UNL     1       1.030   2.844  20.395  0.00  0.00    +0.000 A 
ATOM     21  C   UNL     1       1.048   2.947  19.005  0.00  0.00    +0.000 A 
ATOM     22  C   UNL     1       1.814   3.938  18.387  0.00  0.00    +0.000 A 
ENDBRANCH  16  17
ENDBRANCH   5  16
TORSDOF 6
ENDMDL
MODEL 8
REMARK VINA RESULT:      -7.2      1.015      1.319
REMARK  Name = 
REMARK  6 active torsions:
REMARK  status: ('A' for Active; 'I' for Inactive)
REMARK    1  A    between atoms: N_1  and  N_2
REMARK    2  A    between atoms: C_3  and  C_5
REMARK    3  A    between atoms: C_5  and  O_6
REMARK    4  A    between atoms: O_6  and  C_7
REMARK    5  A    between atoms: C_11  and  O_12
REMARK    6  A    between atoms: O_12  and  C_13
REMARK                            x       y       z     vdW  Elec       q    Type
REMARK                         _______ _______ _______ _____ _____    ______ ____
ROOT
ATOM      1  C   UNL     1       5.572   4.567  15.969  0.00  0.00    +0.000 A 
ATOM      2  C   UNL     1       6.932   4.375  16.241  0.00  0.00    +0.000 A 
ATOM      3  C   UNL     1       7.449   4.657  17.504  0.00  0.00    +0.000 A 
ATOM      4  C   UNL     1       6.601   5.079  18.523  0.00  0.00    +0.000 A 
ATOM      5  C   UNL     1       5.234   5.219  18.271  0.00  0.00    +0.000 A 
ATOM      6  C   UNL     1       4.732   5.023  16.975  0.00  0.00    +0.000 A 
ENDROOT
BRANCH   1   7
ATOM      7  O   UNL     1       5.184   4.214  14.707  0.00  0.00    +0.000 OA
BRANCH   7   8
ATOM      8  C   UNL     1       6.191   4.222  13.697  0.00  0.00    +0.000 C 
BRANCH   8  10
ATOM      9  N   UNL     1       6.705   2.438  12.104  0.00  0.00    +0.000 N 
ATOM     10  C   UNL     1       5.748   3.360  12.517  0.00  0.00    +0.000 C 
ATOM     11  O   UNL     1       4.635   3.462  11.999  0.00  0.00    +0.000 OA
ATOM     12  H   UNL     1       7.551   2.349  12.668  0.00  0.00    +0.000 HD
BRANCH   9  13
ATOM     13  N   UNL     1       6.403   1.483  11.117  0.00  0.00    +0.000 NA
ATOM     14  H   UNL     1       7.064   0.706  11.195  0.00  0.00    +0.000 HD
ATOM     15  H   UNL     1       6.594   1.915  10.208  0.00  0.00    +0.000 HD
ENDBRANCH   9  13
ENDBRANCH   8  10
ENDBRANCH   7   8
ENDBRANCH   1   7
BRANCH   5  16
ATOM     16  O   UNL     1       4.450   5.584  19.343  0.00  0.00    +0.000 OA
BRANCH  16  17
ATOM     17  C   UNL     1       3.396   4.771  19.710  0.00  0.00    +0.000 A 
ATOM     18  C   UNL     1       2.100   5.228  19.969  0.00  0.00    +0.000 A 
ATOM     19  C   UNL     1       1.111   4.334  20.385  0.00  0.00    +0.000 A 
ATOM     20  C   UNL     1       1.400   2.974  20.489  0.00  0.00    +0.000 A 
ATOM     21  C   UNL     1       2.673   2.507  20.167  0.00  0.00    +0.000 A 
ATOM     22  C   UNL     1       3.670   3.404  19.776  0.00  0.00    +0.000 A 
ENDBRANCH  16  17
ENDBRANCH   5  16
TORSDOF 6
ENDMDL
MODEL 9
REMARK VINA RESULT:      -7.2      1.251      1.347
REMARK  Name = 
REMARK  6 active torsions:
REMARK  status: ('A' for Active; 'I' for Inactive)
REMARK    1  A    between atoms: N_1  and  N_2
REMARK    2  A    between atoms: C_3  and  C_5
REMARK    3  A    between atoms: C_5  and  O_6
REMARK    4  A    between atoms: O_6  and  C_7
REMARK    5  A    between atoms: C_11  and  O_12
REMARK    6  A    between atoms: O_12  and  C_13
REMARK                            x       y       z     vdW  Elec       q    Type
REMARK                         _______ _______ _______ _____ _____    ______ ____
ROOT
ATOM      1  C   UNL     1       6.050   5.323  16.254  0.00  0.00    +0.000 A 
ATOM      2  C   UNL     1       7.042   6.166  16.767  0.00  0.00    +0.000 A 
ATOM      3  C   UNL     1       7.306   6.199  18.135  0.00  0.00    +0.000 A 
ATOM      4  C   UNL     1       6.621   5.347  18.996  0.00  0.00    +0.000 A 
ATOM      5  C   UNL     1       5.668   4.464  18.480  0.00  0.00    +0.000 A 
ATOM      6  C   UNL     1       5.340   4.499  17.116  0.00  0.00    +0.000 A 
ENDROOT
BRANCH   1   7
ATOM      7  O   UNL     1       5.918   5.354  14.894  0.00  0.00    +0.000 OA
BRANCH   7   8
ATOM      8  C   UNL     1       6.758   4.478  14.145  0.00  0.00    +0.000 C 
BRANCH   8  10
ATOM      9  N   UNL     1       6.648   2.755  12.412  0.00  0.00    +0.000 N 
ATOM     10  C   UNL     1       5.923   3.703  13.127  0.00  0.00    +0.000 C 
ATOM     11  O   UNL     1       4.715   3.890  12.976  0.00  0.00    +0.000 OA
ATOM     12  H   UNL     1       7.618   2.593  12.688  0.00  0.00    +0.000 HD
BRANCH   9  13
ATOM     13  N   UNL     1       6.000   1.868  11.534  0.00  0.00    +0.000 NA
ATOM     14  H   UNL     1       6.148   2.187  10.573  0.00  0.00    +0.000 HD
ATOM     15  H   UNL     1       4.992   1.961  11.700  0.00  0.00    +0.000 HD
ENDBRANCH   9  13
ENDBRANCH   8  10
ENDBRANCH   7   8
ENDBRANCH   1   7
BRANCH   5  16
ATOM     16  O   UNL     1       5.073   3.613  19.384  0.00  0.00    +0.000 OA
BRANCH  16  17
ATOM     17  C   UNL     1       3.697   3.606  19.492  0.00  0.00    +0.000 A 
ATOM     18  C   UNL     1       2.945   4.639  20.063  0.00  0.00    +0.000 A 
ATOM     19  C   UNL     1       1.558   4.518  20.174  0.00  0.00    +0.000 A 
ATOM     20  C   UNL     1       0.914   3.391  19.666  0.00  0.00    +0.000 A 
ATOM     21  C   UNL     1       1.654   2.391  19.036  0.00  0.00    +0.000 A 
ATOM     22  C   UNL     1       3.044   2.499  18.948  0.00  0.00    +0.000 A 
ENDBRANCH  16  17
ENDBRANCH   5  16
TORSDOF 6
ENDMDL
