MODEL 1
REMARK VINA RESULT:      -7.2      0.000      0.000
REMARK  Name = 
REMARK  15 active torsions:
REMARK  status: ('A' for Active; 'I' for Inactive)
REMARK    1  A    between atoms: C_1  and  C_2
REMARK    2  A    between atoms: C_2  and  O_3
REMARK    3  A    between atoms: O_3  and  C_4
REMARK    4  A    between atoms: C_6  and  C_7
REMARK    5  A    between atoms: C_7  and  O_8
REMARK    6  A    between atoms: O_8  and  C_9
REMARK    7  A    between atoms: C_9  and  C_11
REMARK    8  A    between atoms: C_14  and  C_15
REMARK    9  A    between atoms: C_18  and  N_19
REMARK   10  A    between atoms: C_26  and  O_27
REMARK   11  A    between atoms: O_27  and  C_28
REMARK   12  A    between atoms: C_28  and  C_29
REMARK   13  A    between atoms: C_30  and  O_31
REMARK   14  A    between atoms: O_31  and  C_32
REMARK   15  A    between atoms: C_32  and  C_33
REMARK                            x       y       z     vdW  Elec       q    Type
REMARK                         _______ _______ _______ _____ _____    ______ ____
ROOT
ATOM      1  O   UNL     1       4.901   6.717  16.197  0.00  0.00    +0.000 OA
ENDROOT
BRANCH   1   2
ATOM      2  C   UNL     1       6.218   6.391  16.031  0.00  0.00    +0.000 C 
ATOM      3  O   UNL     1       6.675   5.829  15.047  0.00  0.00    +0.000 OA
BRANCH   2   4
ATOM      4  C   UNL     1       7.017   6.909  17.123  0.00  0.00    +0.000 A 
ATOM      5  C   UNL     1       7.618   6.244  18.175  0.00  0.00    +0.000 A 
ATOM      6  C   UNL     1       8.350   7.212  18.904  0.00  0.00    +0.000 A 
ATOM      7  C   UNL     1       8.161   8.421  18.265  0.00  0.00    +0.000 A 
ATOM      8  O   UNL     1       7.337   8.241  17.187  0.00  0.00    +0.000 OA
BRANCH   7   9
ATOM      9  C   UNL     1       8.656   9.780  18.479  0.00  0.00    +0.000 A 
ATOM     10  C   UNL     1       9.456  10.080  19.593  0.00  0.00    +0.000 A 
ATOM     11  C   UNL     1       9.956  11.373  19.800  0.00  0.00    +0.000 A 
ATOM     12  C   UNL     1       9.652  12.383  18.881  0.00  0.00    +0.000 A 
ATOM     13  C   UNL     1       8.854  12.109  17.767  0.00  0.00    +0.000 A 
ATOM     14  C   UNL     1       8.360  10.813  17.573  0.00  0.00    +0.000 A 
BRANCH  12  15
ATOM     15  N   UNL     1      10.181  13.737  19.084  0.00  0.00    +0.000 N 
ATOM     16  O   UNL     1       9.598  14.468  19.899  0.00  0.00    +0.000 OA
ATOM     17  O   UNL     1      11.181  14.071  18.433  0.00  0.00    +0.000 OA
ENDBRANCH  12  15
ENDBRANCH   7   9
ENDBRANCH   2   4
ENDBRANCH   1   2
BRANCH   1  18
ATOM     18  C   UNL     1       4.109   5.693  16.795  0.00  0.00    +0.000 C 
BRANCH  18  21
ATOM     19  C   UNL     1       2.359   5.824  20.187  0.00  0.00    +0.000 A 
ATOM     20  C   UNL     1       2.948   5.336  19.004  0.00  0.00    +0.000 A 
ATOM     21  C   UNL     1       3.239   6.177  17.930  0.00  0.00    +0.000 A 
ATOM     22  C   UNL     1       2.798   7.496  17.991  0.00  0.00    +0.000 A 
ATOM     23  C   UNL     1       2.134   7.993  19.125  0.00  0.00    +0.000 A 
ATOM     24  C   UNL     1       1.938   7.173  20.264  0.00  0.00    +0.000 A 
BRANCH  19  25
ATOM     25  O   UNL     1       2.174   4.970  21.256  0.00  0.00    +0.000 OA
BRANCH  25  27
ATOM     26  C   UNL     1       1.430   2.735  21.817  0.00  0.00    +0.000 C 
ATOM     27  C   UNL     1       2.365   3.577  20.967  0.00  0.00    +0.000 C 
ENDBRANCH  25  27
ENDBRANCH  19  25
BRANCH  23  28
ATOM     28  O   UNL     1       1.836   9.329  18.993  0.00  0.00    +0.000 OA
BRANCH  28  29
ATOM     29  C   UNL     1       0.944   9.712  17.951  0.00  0.00    +0.000 C 
ATOM     30  C   UNL     1      -0.356  10.170  18.596  0.00  0.00    +0.000 C 
ENDBRANCH  28  29
ENDBRANCH  23  28
BRANCH  24  31
ATOM     31  O   UNL     1       1.390   7.794  21.363  0.00  0.00    +0.000 OA
BRANCH  31  32
ATOM     32  C   UNL     1      -0.025   7.967  21.428  0.00  0.00    +0.000 C 
ATOM     33  C   UNL     1      -0.354   9.176  22.292  0.00  0.00    +0.000 C 
ENDBRANCH  31  32
ENDBRANCH  24  31
ENDBRANCH  18  21
ENDBRANCH   1  18
TORSDOF 12
ENDMDL
MODEL 2
REMARK VINA RESULT:      -7.1      4.715      8.584
REMARK  Name = 
REMARK  15 active torsions:
REMARK  status: ('A' for Active; 'I' for Inactive)
REMARK    1  A    between atoms: C_1  and  C_2
REMARK    2  A    between atoms: C_2  and  O_3
REMARK    3  A    between atoms: O_3  and  C_4
REMARK    4  A    between atoms: C_6  and  C_7
REMARK    5  A    between atoms: C_7  and  O_8
REMARK    6  A    between atoms: O_8  and  C_9
REMARK    7  A    between atoms: C_9  and  C_11
REMARK    8  A    between atoms: C_14  and  C_15
REMARK    9  A    between atoms: C_18  and  N_19
REMARK   10  A    between atoms: C_26  and  O_27
REMARK   11  A    between atoms: O_27  and  C_28
REMARK   12  A    between atoms: C_28  and  C_29
REMARK   13  A    between atoms: C_30  and  O_31
REMARK   14  A    between atoms: O_31  and  C_32
REMARK   15  A    between atoms: C_32  and  C_33
REMARK                            x       y       z     vdW  Elec       q    Type
REMARK                         _______ _______ _______ _____ _____    ______ ____
ROOT
ATOM      1  O   UNL     1       1.714   8.680  18.069  0.00  0.00    +0.000 OA
ENDROOT
BRANCH   1   2
ATOM      2  C   UNL     1       1.628   9.926  18.625  0.00  0.00    +0.000 C 
ATOM      3  O   UNL     1       2.059  10.946  18.110  0.00  0.00    +0.000 OA
BRANCH   2   4
ATOM      4  C   UNL     1       0.852   9.890  19.847  0.00  0.00    +0.000 A 
ATOM      5  C   UNL     1       0.605   8.841  20.711  0.00  0.00    +0.000 A 
ATOM      6  C   UNL     1      -0.137   9.369  21.795  0.00  0.00    +0.000 A 
ATOM      7  C   UNL     1      -0.307  10.716  21.542  0.00  0.00    +0.000 A 
ATOM      8  O   UNL     1       0.282  11.034  20.349  0.00  0.00    +0.000 OA
BRANCH   7   9
ATOM      9  C   UNL     1      -0.937  11.821  22.264  0.00  0.00    +0.000 A 
ATOM     10  C   UNL     1      -2.113  11.611  23.003  0.00  0.00    +0.000 A 
ATOM     11  C   UNL     1      -2.715  12.656  23.717  0.00  0.00    +0.000 A 
ATOM     12  C   UNL     1      -2.136  13.929  23.696  0.00  0.00    +0.000 A 
ATOM     13  C   UNL     1      -0.968  14.161  22.964  0.00  0.00    +0.000 A 
ATOM     14  C   UNL     1      -0.377  13.110  22.253  0.00  0.00    +0.000 A 
BRANCH  12  15
ATOM     15  N   UNL     1      -2.755  15.025  24.451  0.00  0.00    +0.000 N 
ATOM     16  O   UNL     1      -2.008  15.899  24.917  0.00  0.00    +0.000 OA
ATOM     17  O   UNL     1      -3.988  15.016  24.577  0.00  0.00    +0.000 OA
ENDBRANCH  12  15
ENDBRANCH   7   9
ENDBRANCH   2   4
ENDBRANCH   1   2
BRANCH   1  18
ATOM     18  C   UNL     1       3.043   8.243  17.799  0.00  0.00    +0.000 C 
BRANCH  18  21
ATOM     19  C   UNL     1       4.486   4.715  17.554  0.00  0.00    +0.000 A 
ATOM     20  C   UNL     1       4.043   6.006  17.205  0.00  0.00    +0.000 A 
ATOM     21  C   UNL     1       3.274   6.777  18.077  0.00  0.00    +0.000 A 
ATOM     22  C   UNL     1       2.824   6.185  19.254  0.00  0.00    +0.000 A 
ATOM     23  C   UNL     1       3.182   4.869  19.593  0.00  0.00    +0.000 A 
ATOM     24  C   UNL     1       4.056   4.122  18.766  0.00  0.00    +0.000 A 
BRANCH  19  25
ATOM     25  O   UNL     1       5.320   4.028  16.695  0.00  0.00    +0.000 OA
BRANCH  25  27
ATOM     26  C   UNL     1       7.492   4.658  17.560  0.00  0.00    +0.000 C 
ATOM     27  C   UNL     1       6.548   4.695  16.370  0.00  0.00    +0.000 C 
ENDBRANCH  25  27
ENDBRANCH  19  25
BRANCH  23  28
ATOM     28  O   UNL     1       2.674   4.506  20.818  0.00  0.00    +0.000 OA
BRANCH  28  29
ATOM     29  C   UNL     1       1.344   3.996  20.862  0.00  0.00    +0.000 C 
ATOM     30  C   UNL     1       1.389   2.637  21.544  0.00  0.00    +0.000 C 
ENDBRANCH  28  29
ENDBRANCH  23  28
BRANCH  24  31
ATOM     31  O   UNL     1       4.440   2.894  19.252  0.00  0.00    +0.000 OA
BRANCH  31  32
ATOM     32  C   UNL     1       3.746   1.727  18.816  0.00  0.00    +0.000 C 
ATOM     33  C   UNL     1       2.608   2.124  17.887  0.00  0.00    +0.000 C 
ENDBRANCH  31  32
ENDBRANCH  24  31
ENDBRANCH  18  21
ENDBRANCH   1  18
TORSDOF 12
ENDMDL
MODEL 3
REMARK VINA RESULT:      -7.1      4.614      9.089
REMARK  Name = 
REMARK  15 active torsions:
REMARK  status: ('A' for Active; 'I' for Inactive)
REMARK    1  A    between atoms: C_1  and  C_2
REMARK    2  A    between atoms: C_2  and  O_3
REMARK    3  A    between atoms: O_3  and  C_4
REMARK    4  A    between atoms: C_6  and  C_7
REMARK    5  A    between atoms: C_7  and  O_8
REMARK    6  A    between atoms: O_8  and  C_9
REMARK    7  A    between atoms: C_9  and  C_11
REMARK    8  A    between atoms: C_14  and  C_15
REMARK    9  A    between atoms: C_18  and  N_19
REMARK   10  A    between atoms: C_26  and  O_27
REMARK   11  A    between atoms: O_27  and  C_28
REMARK   12  A    between atoms: C_28  and  C_29
REMARK   13  A    between atoms: C_30  and  O_31
REMARK   14  A    between atoms: O_31  and  C_32
REMARK   15  A    between atoms: C_32  and  C_33
REMARK                            x       y       z     vdW  Elec       q    Type
REMARK                         _______ _______ _______ _____ _____    ______ ____
ROOT
ATOM      1  O   UNL     1       0.848   9.286  18.676  0.00  0.00    +0.000 OA
ENDROOT
BRANCH   1   2
ATOM      2  C   UNL     1       1.063  10.484  19.299  0.00  0.00    +0.000 C 
ATOM      3  O   UNL     1       1.672  11.422  18.807  0.00  0.00    +0.000 OA
BRANCH   2   4
ATOM      4  C   UNL     1       0.370  10.533  20.570  0.00  0.00    +0.000 A 
ATOM      5  C   UNL     1       0.440   9.678  21.652  0.00  0.00    +0.000 A 
ATOM      6  C   UNL     1      -0.373  10.236  22.668  0.00  0.00    +0.000 A 
ATOM      7  C   UNL     1      -0.902  11.405  22.158  0.00  0.00    +0.000 A 
ATOM      8  O   UNL     1      -0.462  11.582  20.874  0.00  0.00    +0.000 OA
BRANCH   7   9
ATOM      9  C   UNL     1      -1.773  12.452  22.690  0.00  0.00    +0.000 A 
ATOM     10  C   UNL     1      -3.159  12.407  22.468  0.00  0.00    +0.000 A 
ATOM     11  C   UNL     1      -4.008  13.392  22.991  0.00  0.00    +0.000 A 
ATOM     12  C   UNL     1      -3.468  14.437  23.748  0.00  0.00    +0.000 A 
ATOM     13  C   UNL     1      -2.090  14.504  23.978  0.00  0.00    +0.000 A 
ATOM     14  C   UNL     1      -1.253  13.515  23.448  0.00  0.00    +0.000 A 
BRANCH  12  15
ATOM     15  N   UNL     1      -4.352  15.466  24.308  0.00  0.00    +0.000 N 
ATOM     16  O   UNL     1      -3.834  16.366  24.984  0.00  0.00    +0.000 OA
ATOM     17  O   UNL     1      -5.565  15.377  24.069  0.00  0.00    +0.000 OA
ENDBRANCH  12  15
ENDBRANCH   7   9
ENDBRANCH   2   4
ENDBRANCH   1   2
BRANCH   1  18
ATOM     18  C   UNL     1       1.874   8.901  17.765  0.00  0.00    +0.000 C 
BRANCH  18  21
ATOM     19  C   UNL     1       3.008   5.815  19.709  0.00  0.00    +0.000 A 
ATOM     20  C   UNL     1       2.356   7.017  19.369  0.00  0.00    +0.000 A 
ATOM     21  C   UNL     1       2.747   7.777  18.266  0.00  0.00    +0.000 A 
ATOM     22  C   UNL     1       3.900   7.397  17.584  0.00  0.00    +0.000 A 
ATOM     23  C   UNL     1       4.621   6.247  17.950  0.00  0.00    +0.000 A 
ATOM     24  C   UNL     1       4.162   5.410  18.997  0.00  0.00    +0.000 A 
BRANCH  19  25
ATOM     25  O   UNL     1       2.526   5.054  20.754  0.00  0.00    +0.000 OA
BRANCH  25  27
ATOM     26  C   UNL     1       1.175   3.052  20.938  0.00  0.00    +0.000 C 
ATOM     27  C   UNL     1       1.204   4.525  20.570  0.00  0.00    +0.000 C 
ENDBRANCH  25  27
ENDBRANCH  19  25
BRANCH  23  28
ATOM     28  O   UNL     1       5.690   6.032  17.112  0.00  0.00    +0.000 OA
BRANCH  28  29
ATOM     29  C   UNL     1       6.997   6.083  17.676  0.00  0.00    +0.000 C 
ATOM     30  C   UNL     1       7.524   7.499  17.503  0.00  0.00    +0.000 C 
ENDBRANCH  28  29
ENDBRANCH  23  28
BRANCH  24  31
ATOM     31  O   UNL     1       4.872   4.247  19.190  0.00  0.00    +0.000 OA
BRANCH  31  32
ATOM     32  C   UNL     1       4.293   3.006  18.788  0.00  0.00    +0.000 C 
ATOM     33  C   UNL     1       4.391   2.002  19.927  0.00  0.00    +0.000 C 
ENDBRANCH  31  32
ENDBRANCH  24  31
ENDBRANCH  18  21
ENDBRANCH   1  18
TORSDOF 12
ENDMDL
MODEL 4
REMARK VINA RESULT:      -7.0      4.772      9.508
REMARK  Name = 
REMARK  15 active torsions:
REMARK  status: ('A' for Active; 'I' for Inactive)
REMARK    1  A    between atoms: C_1  and  C_2
REMARK    2  A    between atoms: C_2  and  O_3
REMARK    3  A    between atoms: O_3  and  C_4
REMARK    4  A    between atoms: C_6  and  C_7
REMARK    5  A    between atoms: C_7  and  O_8
REMARK    6  A    between atoms: O_8  and  C_9
REMARK    7  A    between atoms: C_9  and  C_11
REMARK    8  A    between atoms: C_14  and  C_15
REMARK    9  A    between atoms: C_18  and  N_19
REMARK   10  A    between atoms: C_26  and  O_27
REMARK   11  A    between atoms: O_27  and  C_28
REMARK   12  A    between atoms: C_28  and  C_29
REMARK   13  A    between atoms: C_30  and  O_31
REMARK   14  A    between atoms: O_31  and  C_32
REMARK   15  A    between atoms: C_32  and  C_33
REMARK                            x       y       z     vdW  Elec       q    Type
REMARK                         _______ _______ _______ _____ _____    ______ ____
ROOT
ATOM      1  O   UNL     1       1.828   8.683  18.159  0.00  0.00    +0.000 OA
ENDROOT
BRANCH   1   2
ATOM      2  C   UNL     1       1.729  10.046  18.180  0.00  0.00    +0.000 C 
ATOM      3  O   UNL     1       2.435  10.803  17.531  0.00  0.00    +0.000 OA
BRANCH   2   4
ATOM      4  C   UNL     1       0.598  10.466  18.981  0.00  0.00    +0.000 A 
ATOM      5  C   UNL     1       0.520  10.732  20.335  0.00  0.00    +0.000 A 
ATOM      6  C   UNL     1      -0.795  11.192  20.585  0.00  0.00    +0.000 A 
ATOM      7  C   UNL     1      -1.458  11.184  19.374  0.00  0.00    +0.000 A 
ATOM      8  O   UNL     1      -0.615  10.729  18.397  0.00  0.00    +0.000 OA
BRANCH   7   9
ATOM      9  C   UNL     1      -2.801  11.567  18.940  0.00  0.00    +0.000 A 
ATOM     10  C   UNL     1      -3.638  12.312  19.786  0.00  0.00    +0.000 A 
ATOM     11  C   UNL     1      -4.920  12.704  19.376  0.00  0.00    +0.000 A 
ATOM     12  C   UNL     1      -5.374  12.348  18.101  0.00  0.00    +0.000 A 
ATOM     13  C   UNL     1      -4.559  11.603  17.244  0.00  0.00    +0.000 A 
ATOM     14  C   UNL     1      -3.282  11.216  17.667  0.00  0.00    +0.000 A 
BRANCH  12  15
ATOM     15  N   UNL     1      -6.710  12.765  17.660  0.00  0.00    +0.000 N 
ATOM     16  O   UNL     1      -7.689  12.257  18.226  0.00  0.00    +0.000 OA
ATOM     17  O   UNL     1      -6.783  13.603  16.749  0.00  0.00    +0.000 OA
ENDBRANCH  12  15
ENDBRANCH   7   9
ENDBRANCH   2   4
ENDBRANCH   1   2
BRANCH   1  18
ATOM     18  C   UNL     1       3.010   8.184  17.537  0.00  0.00    +0.000 C 
BRANCH  18  21
ATOM     19  C   UNL     1       5.033   4.972  17.959  0.00  0.00    +0.000 A 
ATOM     20  C   UNL     1       4.482   6.143  17.400  0.00  0.00    +0.000 A 
ATOM     21  C   UNL     1       3.404   6.801  17.993  0.00  0.00    +0.000 A 
ATOM     22  C   UNL     1       2.781   6.193  19.079  0.00  0.00    +0.000 A 
ATOM     23  C   UNL     1       3.257   4.982  19.611  0.00  0.00    +0.000 A 
ATOM     24  C   UNL     1       4.421   4.369  19.083  0.00  0.00    +0.000 A 
BRANCH  19  25
ATOM     25  O   UNL     1       6.155   4.410  17.385  0.00  0.00    +0.000 OA
BRANCH  25  27
ATOM     26  C   UNL     1       7.768   5.580  18.761  0.00  0.00    +0.000 C 
ATOM     27  C   UNL     1       7.314   5.256  17.349  0.00  0.00    +0.000 C 
ENDBRANCH  25  27
ENDBRANCH  19  25
BRANCH  23  28
ATOM     28  O   UNL     1       2.528   4.590  20.709  0.00  0.00    +0.000 OA
BRANCH  28  29
ATOM     29  C   UNL     1       1.111   4.538  20.584  0.00  0.00    +0.000 C 
ATOM     30  C   UNL     1       0.739   3.158  20.065  0.00  0.00    +0.000 C 
ENDBRANCH  28  29
ENDBRANCH  23  28
BRANCH  24  31
ATOM     31  O   UNL     1       4.870   3.256  19.756  0.00  0.00    +0.000 OA
BRANCH  31  32
ATOM     32  C   UNL     1       4.231   2.001  19.526  0.00  0.00    +0.000 C 
ATOM     33  C   UNL     1       3.630   1.980  18.128  0.00  0.00    +0.000 C 
ENDBRANCH  31  32
ENDBRANCH  24  31
ENDBRANCH  18  21
ENDBRANCH   1  18
TORSDOF 12
ENDMDL
MODEL 5
REMARK VINA RESULT:      -7.0      0.827      3.257
REMARK  Name = 
REMARK  15 active torsions:
REMARK  status: ('A' for Active; 'I' for Inactive)
REMARK    1  A    between atoms: C_1  and  C_2
REMARK    2  A    between atoms: C_2  and  O_3
REMARK    3  A    between atoms: O_3  and  C_4
REMARK    4  A    between atoms: C_6  and  C_7
REMARK    5  A    between atoms: C_7  and  O_8
REMARK    6  A    between atoms: O_8  and  C_9
REMARK    7  A    between atoms: C_9  and  C_11
REMARK    8  A    between atoms: C_14  and  C_15
REMARK    9  A    between atoms: C_18  and  N_19
REMARK   10  A    between atoms: C_26  and  O_27
REMARK   11  A    between atoms: O_27  and  C_28
REMARK   12  A    between atoms: C_28  and  C_29
REMARK   13  A    between atoms: C_30  and  O_31
REMARK   14  A    between atoms: O_31  and  C_32
REMARK   15  A    between atoms: C_32  and  C_33
REMARK                            x       y       z     vdW  Elec       q    Type
REMARK                         _______ _______ _______ _____ _____    ______ ____
ROOT
ATOM      1  O   UNL     1       5.598   4.693  16.832  0.00  0.00    +0.000 OA
ENDROOT
BRANCH   1   2
ATOM      2  C   UNL     1       6.329   5.705  16.275  0.00  0.00    +0.000 C 
ATOM      3  O   UNL     1       6.280   6.028  15.097  0.00  0.00    +0.000 OA
BRANCH   2   4
ATOM      4  C   UNL     1       7.077   6.418  17.289  0.00  0.00    +0.000 A 
ATOM      5  C   UNL     1       7.691   5.947  18.434  0.00  0.00    +0.000 A 
ATOM      6  C   UNL     1       8.357   7.048  19.023  0.00  0.00    +0.000 A 
ATOM      7  C   UNL     1       8.119   8.139  18.211  0.00  0.00    +0.000 A 
ATOM      8  O   UNL     1       7.328   7.761  17.161  0.00  0.00    +0.000 OA
BRANCH   7   9
ATOM      9  C   UNL     1       8.539   9.540  18.231  0.00  0.00    +0.000 A 
ATOM     10  C   UNL     1       7.893  10.488  17.422  0.00  0.00    +0.000 A 
ATOM     11  C   UNL     1       8.270  11.838  17.446  0.00  0.00    +0.000 A 
ATOM     12  C   UNL     1       9.307  12.249  18.291  0.00  0.00    +0.000 A 
ATOM     13  C   UNL     1       9.967  11.321  19.101  0.00  0.00    +0.000 A 
ATOM     14  C   UNL     1       9.581   9.975  19.067  0.00  0.00    +0.000 A 
BRANCH  12  15
ATOM     15  N   UNL     1       9.700  13.663  18.330  0.00  0.00    +0.000 N 
ATOM     16  O   UNL     1       9.254  14.360  19.253  0.00  0.00    +0.000 OA
ATOM     17  O   UNL     1      10.457  14.076  17.440  0.00  0.00    +0.000 OA
ENDBRANCH  12  15
ENDBRANCH   7   9
ENDBRANCH   2   4
ENDBRANCH   1   2
BRANCH   1  18
ATOM     18  C   UNL     1       4.188   4.828  16.680  0.00  0.00    +0.000 C 
BRANCH  18  21
ATOM     19  C   UNL     1       2.519   7.676  18.603  0.00  0.00    +0.000 A 
ATOM     20  C   UNL     1       3.350   6.972  17.708  0.00  0.00    +0.000 A 
ATOM     21  C   UNL     1       3.521   5.591  17.799  0.00  0.00    +0.000 A 
ATOM     22  C   UNL     1       2.965   4.931  18.892  0.00  0.00    +0.000 A 
ATOM     23  C   UNL     1       2.198   5.619  19.848  0.00  0.00    +0.000 A 
ATOM     24  C   UNL     1       1.926   7.001  19.697  0.00  0.00    +0.000 A 
BRANCH  19  25
ATOM     25  O   UNL     1       2.311   9.027  18.416  0.00  0.00    +0.000 OA
BRANCH  25  27
ATOM     26  C   UNL     1       0.530  10.656  18.610  0.00  0.00    +0.000 C 
ATOM     27  C   UNL     1       1.010   9.385  17.930  0.00  0.00    +0.000 C 
ENDBRANCH  25  27
ENDBRANCH  19  25
BRANCH  23  28
ATOM     28  O   UNL     1       1.703   4.767  20.808  0.00  0.00    +0.000 OA
BRANCH  28  29
ATOM     29  C   UNL     1       1.515   3.401  20.452  0.00  0.00    +0.000 C 
ATOM     30  C   UNL     1       1.836   2.553  21.674  0.00  0.00    +0.000 C 
ENDBRANCH  28  29
ENDBRANCH  23  28
BRANCH  24  31
ATOM     31  O   UNL     1       1.064   7.547  20.620  0.00  0.00    +0.000 OA
BRANCH  31  32
ATOM     32  C   UNL     1       1.594   8.339  21.681  0.00  0.00    +0.000 C 
ATOM     33  C   UNL     1       0.533   9.313  22.174  0.00  0.00    +0.000 C 
ENDBRANCH  31  32
ENDBRANCH  24  31
ENDBRANCH  18  21
ENDBRANCH   1  18
TORSDOF 12
ENDMDL
MODEL 6
REMARK VINA RESULT:      -7.0      4.627      9.790
REMARK  Name = 
REMARK  15 active torsions:
REMARK  status: ('A' for Active; 'I' for Inactive)
REMARK    1  A    between atoms: C_1  and  C_2
REMARK    2  A    between atoms: C_2  and  O_3
REMARK    3  A    between atoms: O_3  and  C_4
REMARK    4  A    between atoms: C_6  and  C_7
REMARK    5  A    between atoms: C_7  and  O_8
REMARK    6  A    between atoms: O_8  and  C_9
REMARK    7  A    between atoms: C_9  and  C_11
REMARK    8  A    between atoms: C_14  and  C_15
REMARK    9  A    between atoms: C_18  and  N_19
REMARK   10  A    between atoms: C_26  and  O_27
REMARK   11  A    between atoms: O_27  and  C_28
REMARK   12  A    between atoms: C_28  and  C_29
REMARK   13  A    between atoms: C_30  and  O_31
REMARK   14  A    between atoms: O_31  and  C_32
REMARK   15  A    between atoms: C_32  and  C_33
REMARK                            x       y       z     vdW  Elec       q    Type
REMARK                         _______ _______ _______ _____ _____    ______ ____
ROOT
ATOM      1  O   UNL     1       2.121   8.952  18.682  0.00  0.00    +0.000 OA
ENDROOT
BRANCH   1   2
ATOM      2  C   UNL     1       1.281   9.299  19.703  0.00  0.00    +0.000 C 
ATOM      3  O   UNL     1       1.267   8.766  20.802  0.00  0.00    +0.000 OA
BRANCH   2   4
ATOM      4  C   UNL     1       0.492  10.461  19.346  0.00  0.00    +0.000 A 
ATOM      5  C   UNL     1       0.892  11.684  18.843  0.00  0.00    +0.000 A 
ATOM      6  C   UNL     1      -0.287  12.426  18.589  0.00  0.00    +0.000 A 
ATOM      7  C   UNL     1      -1.350  11.622  18.949  0.00  0.00    +0.000 A 
ATOM      8  O   UNL     1      -0.878  10.428  19.424  0.00  0.00    +0.000 OA
BRANCH   7   9
ATOM      9  C   UNL     1      -2.804  11.768  18.906  0.00  0.00    +0.000 A 
ATOM     10  C   UNL     1      -3.551  11.161  17.883  0.00  0.00    +0.000 A 
ATOM     11  C   UNL     1      -4.948  11.274  17.841  0.00  0.00    +0.000 A 
ATOM     12  C   UNL     1      -5.610  12.004  18.835  0.00  0.00    +0.000 A 
ATOM     13  C   UNL     1      -4.886  12.621  19.859  0.00  0.00    +0.000 A 
ATOM     14  C   UNL     1      -3.491  12.501  19.889  0.00  0.00    +0.000 A 
BRANCH  12  15
ATOM     15  N   UNL     1      -7.073  12.118  18.804  0.00  0.00    +0.000 N 
ATOM     16  O   UNL     1      -7.715  11.554  19.702  0.00  0.00    +0.000 OA
ATOM     17  O   UNL     1      -7.582  12.774  17.883  0.00  0.00    +0.000 OA
ENDBRANCH  12  15
ENDBRANCH   7   9
ENDBRANCH   2   4
ENDBRANCH   1   2
BRANCH   1  18
ATOM     18  C   UNL     1       1.779   7.736  18.021  0.00  0.00    +0.000 C 
BRANCH  18  21
ATOM     19  C   UNL     1       3.758   4.515  17.478  0.00  0.00    +0.000 A 
ATOM     20  C   UNL     1       2.764   5.419  17.902  0.00  0.00    +0.000 A 
ATOM     21  C   UNL     1       2.946   6.799  17.822  0.00  0.00    +0.000 A 
ATOM     22  C   UNL     1       4.199   7.275  17.447  0.00  0.00    +0.000 A 
ATOM     23  C   UNL     1       5.239   6.398  17.096  0.00  0.00    +0.000 A 
ATOM     24  C   UNL     1       5.023   4.998  17.066  0.00  0.00    +0.000 A 
BRANCH  19  25
ATOM     25  O   UNL     1       3.495   3.160  17.493  0.00  0.00    +0.000 OA
BRANCH  25  27
ATOM     26  C   UNL     1       2.020   2.050  19.060  0.00  0.00    +0.000 C 
ATOM     27  C   UNL     1       3.425   2.564  18.796  0.00  0.00    +0.000 C 
ENDBRANCH  25  27
ENDBRANCH  19  25
BRANCH  23  28
ATOM     28  O   UNL     1       6.369   7.080  16.709  0.00  0.00    +0.000 OA
BRANCH  28  29
ATOM     29  C   UNL     1       7.467   7.116  17.615  0.00  0.00    +0.000 C 
ATOM     30  C   UNL     1       7.941   8.558  17.716  0.00  0.00    +0.000 C 
ENDBRANCH  28  29
ENDBRANCH  23  28
BRANCH  24  31
ATOM     31  O   UNL     1       6.069   4.240  16.589  0.00  0.00    +0.000 OA
BRANCH  31  32
ATOM     32  C   UNL     1       6.020   3.757  15.248  0.00  0.00    +0.000 C 
ATOM     33  C   UNL     1       6.812   4.686  14.339  0.00  0.00    +0.000 C 
ENDBRANCH  31  32
ENDBRANCH  24  31
ENDBRANCH  18  21
ENDBRANCH   1  18
TORSDOF 12
ENDMDL
MODEL 7
REMARK VINA RESULT:      -7.0      4.568      8.032
REMARK  Name = 
REMARK  15 active torsions:
REMARK  status: ('A' for Active; 'I' for Inactive)
REMARK    1  A    between atoms: C_1  and  C_2
REMARK    2  A    between atoms: C_2  and  O_3
REMARK    3  A    between atoms: O_3  and  C_4
REMARK    4  A    between atoms: C_6  and  C_7
REMARK    5  A    between atoms: C_7  and  O_8
REMARK    6  A    between atoms: O_8  and  C_9
REMARK    7  A    between atoms: C_9  and  C_11
REMARK    8  A    between atoms: C_14  and  C_15
REMARK    9  A    between atoms: C_18  and  N_19
REMARK   10  A    between atoms: C_26  and  O_27
REMARK   11  A    between atoms: O_27  and  C_28
REMARK   12  A    between atoms: C_28  and  C_29
REMARK   13  A    between atoms: C_30  and  O_31
REMARK   14  A    between atoms: O_31  and  C_32
REMARK   15  A    between atoms: C_32  and  C_33
REMARK                            x       y       z     vdW  Elec       q    Type
REMARK                         _______ _______ _______ _____ _____    ______ ____
ROOT
ATOM      1  O   UNL     1       0.669   9.182  19.316  0.00  0.00    +0.000 OA
ENDROOT
BRANCH   1   2
ATOM      2  C   UNL     1       1.259   8.643  20.425  0.00  0.00    +0.000 C 
ATOM      3  O   UNL     1       1.190   9.120  21.548  0.00  0.00    +0.000 OA
BRANCH   2   4
ATOM      4  C   UNL     1       1.873   7.369  20.112  0.00  0.00    +0.000 A 
ATOM      5  C   UNL     1       1.674   6.125  20.678  0.00  0.00    +0.000 A 
ATOM      6  C   UNL     1       2.462   5.209  19.940  0.00  0.00    +0.000 A 
ATOM      7  C   UNL     1       3.105   5.937  18.959  0.00  0.00    +0.000 A 
ATOM      8  O   UNL     1       2.759   7.256  19.070  0.00  0.00    +0.000 OA
BRANCH   7   9
ATOM      9  C   UNL     1       4.015   5.599  17.866  0.00  0.00    +0.000 A 
ATOM     10  C   UNL     1       3.920   4.357  17.217  0.00  0.00    +0.000 A 
ATOM     11  C   UNL     1       4.772   4.028  16.154  0.00  0.00    +0.000 A 
ATOM     12  C   UNL     1       5.733   4.952  15.729  0.00  0.00    +0.000 A 
ATOM     13  C   UNL     1       5.848   6.193  16.363  0.00  0.00    +0.000 A 
ATOM     14  C   UNL     1       4.992   6.508  17.425  0.00  0.00    +0.000 A 
BRANCH  12  15
ATOM     15  N   UNL     1       6.621   4.619  14.609  0.00  0.00    +0.000 N 
ATOM     16  O   UNL     1       7.686   5.244  14.511  0.00  0.00    +0.000 OA
ATOM     17  O   UNL     1       6.255   3.729  13.827  0.00  0.00    +0.000 OA
ENDBRANCH  12  15
ENDBRANCH   7   9
ENDBRANCH   2   4
ENDBRANCH   1   2
BRANCH   1  18
ATOM     18  C   UNL     1       0.349  10.567  19.429  0.00  0.00    +0.000 C 
BRANCH  18  21
ATOM     19  C   UNL     1      -3.034  12.302  19.792  0.00  0.00    +0.000 A 
ATOM     20  C   UNL     1      -1.745  11.810  20.080  0.00  0.00    +0.000 A 
ATOM     21  C   UNL     1      -1.119  10.871  19.259  0.00  0.00    +0.000 A 
ATOM     22  C   UNL     1      -1.857  10.314  18.218  0.00  0.00    +0.000 A 
ATOM     23  C   UNL     1      -3.175  10.725  17.955  0.00  0.00    +0.000 A 
ATOM     24  C   UNL     1      -3.774  11.759  18.715  0.00  0.00    +0.000 A 
BRANCH  19  25
ATOM     25  O   UNL     1      -3.573  13.296  20.584  0.00  0.00    +0.000 OA
BRANCH  25  27
ATOM     26  C   UNL     1      -2.470  15.440  20.812  0.00  0.00    +0.000 C 
ATOM     27  C   UNL     1      -2.626  14.035  21.369  0.00  0.00    +0.000 C 
ENDBRANCH  25  27
ENDBRANCH  19  25
BRANCH  23  28
ATOM     28  O   UNL     1      -3.694  10.085  16.854  0.00  0.00    +0.000 OA
BRANCH  28  29
ATOM     29  C   UNL     1      -3.733  10.803  15.624  0.00  0.00    +0.000 C 
ATOM     30  C   UNL     1      -2.850  10.068  14.628  0.00  0.00    +0.000 C 
ENDBRANCH  28  29
ENDBRANCH  23  28
BRANCH  24  31
ATOM     31  O   UNL     1      -5.019  12.169  18.294  0.00  0.00    +0.000 OA
BRANCH  31  32
ATOM     32  C   UNL     1      -6.178  11.564  18.865  0.00  0.00    +0.000 C 
ATOM     33  C   UNL     1      -7.206  12.637  19.196  0.00  0.00    +0.000 C 
ENDBRANCH  31  32
ENDBRANCH  24  31
ENDBRANCH  18  21
ENDBRANCH   1  18
TORSDOF 12
ENDMDL
MODEL 8
REMARK VINA RESULT:      -6.9      3.491      6.565
REMARK  Name = 
REMARK  15 active torsions:
REMARK  status: ('A' for Active; 'I' for Inactive)
REMARK    1  A    between atoms: C_1  and  C_2
REMARK    2  A    between atoms: C_2  and  O_3
REMARK    3  A    between atoms: O_3  and  C_4
REMARK    4  A    between atoms: C_6  and  C_7
REMARK    5  A    between atoms: C_7  and  O_8
REMARK    6  A    between atoms: O_8  and  C_9
REMARK    7  A    between atoms: C_9  and  C_11
REMARK    8  A    between atoms: C_14  and  C_15
REMARK    9  A    between atoms: C_18  and  N_19
REMARK   10  A    between atoms: C_26  and  O_27
REMARK   11  A    between atoms: O_27  and  C_28
REMARK   12  A    between atoms: C_28  and  C_29
REMARK   13  A    between atoms: C_30  and  O_31
REMARK   14  A    between atoms: O_31  and  C_32
REMARK   15  A    between atoms: C_32  and  C_33
REMARK                            x       y       z     vdW  Elec       q    Type
REMARK                         _______ _______ _______ _____ _____    ______ ____
ROOT
ATOM      1  O   UNL     1       1.400   9.912  18.922  0.00  0.00    +0.000 OA
ENDROOT
BRANCH   1   2
ATOM      2  C   UNL     1       0.172  10.462  18.680  0.00  0.00    +0.000 C 
ATOM      3  O   UNL     1      -0.865   9.825  18.576  0.00  0.00    +0.000 OA
BRANCH   2   4
ATOM      4  C   UNL     1       0.248  11.909  18.684  0.00  0.00    +0.000 A 
ATOM      5  C   UNL     1      -0.763  12.850  18.703  0.00  0.00    +0.000 A 
ATOM      6  C   UNL     1      -0.140  14.118  18.787  0.00  0.00    +0.000 A 
ATOM      7  C   UNL     1       1.222  13.892  18.815  0.00  0.00    +0.000 A 
ATOM      8  O   UNL     1       1.462  12.547  18.738  0.00  0.00    +0.000 OA
BRANCH   7   9
ATOM      9  C   UNL     1       2.400  14.751  18.928  0.00  0.00    +0.000 A 
ATOM     10  C   UNL     1       3.415  14.700  17.959  0.00  0.00    +0.000 A 
ATOM     11  C   UNL     1       4.539  15.532  18.042  0.00  0.00    +0.000 A 
ATOM     12  C   UNL     1       4.653  16.431  19.109  0.00  0.00    +0.000 A 
ATOM     13  C   UNL     1       3.657  16.496  20.087  0.00  0.00    +0.000 A 
ATOM     14  C   UNL     1       2.540  15.657  19.993  0.00  0.00    +0.000 A 
BRANCH  12  15
ATOM     15  N   UNL     1       5.822  17.314  19.197  0.00  0.00    +0.000 N 
ATOM     16  O   UNL     1       6.827  17.009  18.538  0.00  0.00    +0.000 OA
ATOM     17  O   UNL     1       5.736  18.316  19.922  0.00  0.00    +0.000 OA
ENDBRANCH  12  15
ENDBRANCH   7   9
ENDBRANCH   2   4
ENDBRANCH   1   2
BRANCH   1  18
ATOM     18  C   UNL     1       1.935   9.158  17.837  0.00  0.00    +0.000 C 
BRANCH  18  21
ATOM     19  C   UNL     1       2.706   5.896  19.668  0.00  0.00    +0.000 A 
ATOM     20  C   UNL     1       2.231   7.193  19.387  0.00  0.00    +0.000 A 
ATOM     21  C   UNL     1       2.652   7.900  18.261  0.00  0.00    +0.000 A 
ATOM     22  C   UNL     1       3.672   7.355  17.487  0.00  0.00    +0.000 A 
ATOM     23  C   UNL     1       4.225   6.098  17.788  0.00  0.00    +0.000 A 
ATOM     24  C   UNL     1       3.721   5.325  18.863  0.00  0.00    +0.000 A 
BRANCH  19  25
ATOM     25  O   UNL     1       2.191   5.203  20.744  0.00  0.00    +0.000 OA
BRANCH  25  27
ATOM     26  C   UNL     1       1.286   3.008  21.224  0.00  0.00    +0.000 C 
ATOM     27  C   UNL     1       1.123   4.296  20.434  0.00  0.00    +0.000 C 
ENDBRANCH  25  27
ENDBRANCH  19  25
BRANCH  23  28
ATOM     28  O   UNL     1       5.178   5.730  16.866  0.00  0.00    +0.000 OA
BRANCH  28  29
ATOM     29  C   UNL     1       6.546   5.926  17.210  0.00  0.00    +0.000 C 
ATOM     30  C   UNL     1       7.280   4.616  16.964  0.00  0.00    +0.000 C 
ENDBRANCH  28  29
ENDBRANCH  23  28
BRANCH  24  31
ATOM     31  O   UNL     1       4.248   4.061  18.992  0.00  0.00    +0.000 OA
BRANCH  31  32
ATOM     32  C   UNL     1       3.893   3.060  18.039  0.00  0.00    +0.000 C 
ATOM     33  C   UNL     1       3.667   1.733  18.749  0.00  0.00    +0.000 C 
ENDBRANCH  31  32
ENDBRANCH  24  31
ENDBRANCH  18  21
ENDBRANCH   1  18
TORSDOF 12
ENDMDL
MODEL 9
REMARK VINA RESULT:      -6.9      4.275      9.103
REMARK  Name = 
REMARK  15 active torsions:
REMARK  status: ('A' for Active; 'I' for Inactive)
REMARK    1  A    between atoms: C_1  and  C_2
REMARK    2  A    between atoms: C_2  and  O_3
REMARK    3  A    between atoms: O_3  and  C_4
REMARK    4  A    between atoms: C_6  and  C_7
REMARK    5  A    between atoms: C_7  and  O_8
REMARK    6  A    between atoms: O_8  and  C_9
REMARK    7  A    between atoms: C_9  and  C_11
REMARK    8  A    between atoms: C_14  and  C_15
REMARK    9  A    between atoms: C_18  and  N_19
REMARK   10  A    between atoms: C_26  and  O_27
REMARK   11  A    between atoms: O_27  and  C_28
REMARK   12  A    between atoms: C_28  and  C_29
REMARK   13  A    between atoms: C_30  and  O_31
REMARK   14  A    between atoms: O_31  and  C_32
REMARK   15  A    between atoms: C_32  and  C_33
REMARK                            x       y       z     vdW  Elec       q    Type
REMARK                         _______ _______ _______ _____ _____    ______ ____
ROOT
ATOM      1  O   UNL     1       1.460   8.581  17.816  0.00  0.00    +0.000 OA
ENDROOT
BRANCH   1   2
ATOM      2  C   UNL     1       1.424   9.924  18.064  0.00  0.00    +0.000 C 
ATOM      3  O   UNL     1       2.390  10.669  17.991  0.00  0.00    +0.000 OA
BRANCH   2   4
ATOM      4  C   UNL     1       0.066  10.365  18.306  0.00  0.00    +0.000 A 
ATOM      5  C   UNL     1      -1.104  10.040  17.647  0.00  0.00    +0.000 A 
ATOM      6  C   UNL     1      -2.157  10.679  18.344  0.00  0.00    +0.000 A 
ATOM      7  C   UNL     1      -1.582  11.364  19.396  0.00  0.00    +0.000 A 
ATOM      8  O   UNL     1      -0.225  11.186  19.367  0.00  0.00    +0.000 OA
BRANCH   7   9
ATOM      9  C   UNL     1      -2.102  12.179  20.493  0.00  0.00    +0.000 A 
ATOM     10  C   UNL     1      -3.350  12.812  20.380  0.00  0.00    +0.000 A 
ATOM     11  C   UNL     1      -3.871  13.579  21.431  0.00  0.00    +0.000 A 
ATOM     12  C   UNL     1      -3.136  13.716  22.614  0.00  0.00    +0.000 A 
ATOM     13  C   UNL     1      -1.889  13.098  22.746  0.00  0.00    +0.000 A 
ATOM     14  C   UNL     1      -1.379  12.337  21.688  0.00  0.00    +0.000 A 
BRANCH  12  15
ATOM     15  N   UNL     1      -3.680  14.508  23.723  0.00  0.00    +0.000 N 
ATOM     16  O   UNL     1      -4.873  14.346  24.017  0.00  0.00    +0.000 OA
ATOM     17  O   UNL     1      -2.914  15.291  24.305  0.00  0.00    +0.000 OA
ENDBRANCH  12  15
ENDBRANCH   7   9
ENDBRANCH   2   4
ENDBRANCH   1   2
BRANCH   1  18
ATOM     18  C   UNL     1       2.173   7.818  18.787  0.00  0.00    +0.000 C 
BRANCH  18  21
ATOM     19  C   UNL     1       3.406   4.544  17.256  0.00  0.00    +0.000 A 
ATOM     20  C   UNL     1       2.672   5.468  18.027  0.00  0.00    +0.000 A 
ATOM     21  C   UNL     1       3.099   6.785  18.194  0.00  0.00    +0.000 A 
ATOM     22  C   UNL     1       4.352   7.136  17.701  0.00  0.00    +0.000 A 
ATOM     23  C   UNL     1       5.146   6.214  16.998  0.00  0.00    +0.000 A 
ATOM     24  C   UNL     1       4.667   4.909  16.726  0.00  0.00    +0.000 A 
BRANCH  19  25
ATOM     25  O   UNL     1       2.896   3.279  17.046  0.00  0.00    +0.000 OA
BRANCH  25  27
ATOM     26  C   UNL     1       3.600   1.462  18.483  0.00  0.00    +0.000 C 
ATOM     27  C   UNL     1       2.566   2.546  18.234  0.00  0.00    +0.000 C 
ENDBRANCH  25  27
ENDBRANCH  19  25
BRANCH  23  28
ATOM     28  O   UNL     1       6.317   6.785  16.557  0.00  0.00    +0.000 OA
BRANCH  28  29
ATOM     29  C   UNL     1       7.219   7.293  17.535  0.00  0.00    +0.000 C 
ATOM     30  C   UNL     1       7.691   6.123  18.385  0.00  0.00    +0.000 C 
ENDBRANCH  28  29
ENDBRANCH  23  28
BRANCH  24  31
ATOM     31  O   UNL     1       5.470   4.129  15.925  0.00  0.00    +0.000 OA
BRANCH  31  32
ATOM     32  C   UNL     1       5.414   4.301  14.510  0.00  0.00    +0.000 C 
ATOM     33  C   UNL     1       6.823   4.452  13.955  0.00  0.00    +0.000 C 
ENDBRANCH  31  32
ENDBRANCH  24  31
ENDBRANCH  18  21
ENDBRANCH   1  18
TORSDOF 12
ENDMDL
