MODEL 1
REMARK VINA RESULT:      -8.3      0.000      0.000
REMARK  Name = 
REMARK  11 active torsions:
REMARK  status: ('A' for Active; 'I' for Inactive)
REMARK    1  A    between atoms: C_1  and  O_2
REMARK    2  A    between atoms: O_2  and  C_3
REMARK    3  A    between atoms: C_5  and  C_6
REMARK    4  A    between atoms: N_8  and  C_9
REMARK    5  A    between atoms: C_9  and  C_10
REMARK    6  A    between atoms: N_12  and  C_13
REMARK    7  A    between atoms: C_14  and  C_15
REMARK    8  A    between atoms: C_19  and  C_20
REMARK    9  A    between atoms: C_23  and  O_24
REMARK   10  A    between atoms: O_24  and  C_25
REMARK   11  A    between atoms: C_25  and  C_26
REMARK                            x       y       z     vdW  Elec       q    Type
REMARK                         _______ _______ _______ _____ _____    ______ ____
ROOT
ATOM      1  C   UNL     1       1.506   4.297  19.913  0.00  0.00    +0.000 A 
ATOM      2  C   UNL     1       1.501   5.579  20.497  0.00  0.00    +0.000 A 
ATOM      3  C   UNL     1       1.834   6.717  19.751  0.00  0.00    +0.000 A 
ATOM      4  C   UNL     1       2.234   6.551  18.426  0.00  0.00    +0.000 A 
ATOM      5  C   UNL     1       2.294   5.281  17.860  0.00  0.00    +0.000 A 
ATOM      6  C   UNL     1       1.967   4.135  18.591  0.00  0.00    +0.000 A 
ENDROOT
BRANCH   3   7
ATOM      7  C   UNL     1       1.678   8.067  20.380  0.00  0.00    +0.000 C 
ATOM      8  O   UNL     1       1.722   8.198  21.598  0.00  0.00    +0.000 OA
ATOM      9  N   UNL     1       1.444   9.117  19.535  0.00  0.00    +0.000 N 
ATOM     10  H   UNL     1       1.367   8.995  18.534  0.00  0.00    +0.000 HD
BRANCH   9  11
ATOM     11  C   UNL     1       1.098  10.453  19.984  0.00  0.00    +0.000 C 
BRANCH  11  12
ATOM     12  C   UNL     1      -0.435  10.528  19.988  0.00  0.00    +0.000 C 
ATOM     13  O   UNL     1      -1.094   9.852  20.783  0.00  0.00    +0.000 OA
ATOM     14  N   UNL     1      -0.964  11.389  19.040  0.00  0.00    +0.000 N 
ATOM     15  H   UNL     1      -0.409  11.494  18.201  0.00  0.00    +0.000 HD
BRANCH  14  16
ATOM     16  C   UNL     1      -2.366  11.555  18.895  0.00  0.00    +0.000 A 
ATOM     17  C   UNL     1      -3.104  12.415  19.739  0.00  0.00    +0.000 A 
ATOM     18  C   UNL     1      -2.500  13.306  20.792  0.00  0.00    +0.000 C 
ATOM     19  C   UNL     1      -4.496  12.520  19.561  0.00  0.00    +0.000 A 
ATOM     20  C   UNL     1      -5.145  11.823  18.547  0.00  0.00    +0.000 A 
ATOM     21  C   UNL     1      -4.412  11.005  17.695  0.00  0.00    +0.000 A 
ATOM     22  C   UNL     1      -3.024  10.854  17.859  0.00  0.00    +0.000 A 
ATOM     23  C   UNL     1      -2.306   9.887  16.956  0.00  0.00    +0.000 C 
ENDBRANCH  14  16
ENDBRANCH  11  12
ENDBRANCH   9  11
ENDBRANCH   3   7
BRANCH   1  25
ATOM     24  C   UNL     1       1.894   2.807  21.706  0.00  0.00    +0.000 C 
ATOM     25  O   UNL     1       1.073   3.183  20.595  0.00  0.00    +0.000 OA
ENDBRANCH   1  25
BRANCH   6  26
ATOM     26  O   UNL     1       2.096   2.859  18.067  0.00  0.00    +0.000 OA
BRANCH  26  27
ATOM     27  C   UNL     1       3.418   2.325  18.127  0.00  0.00    +0.000 C 
BRANCH  27  28
ATOM     28  C   UNL     1       4.539   3.224  18.663  0.00  0.00    +0.000 C 
ATOM     29  O   UNL     1       4.775   3.265  19.874  0.00  0.00    +0.000 OA
ATOM     30  N   UNL     1       5.363   3.840  17.733  0.00  0.00    +0.000 N 
ATOM     31  C   UNL     1       5.039   3.982  16.310  0.00  0.00    +0.000 C 
ATOM     32  C   UNL     1       6.302   3.951  15.447  0.00  0.00    +0.000 C 
ATOM     33  O   UNL     1       7.277   4.900  15.901  0.00  0.00    +0.000 OA
ATOM     34  C   UNL     1       7.654   4.619  17.258  0.00  0.00    +0.000 C 
ATOM     35  C   UNL     1       6.452   4.704  18.200  0.00  0.00    +0.000 C 
ENDBRANCH  27  28
ENDBRANCH  26  27
ENDBRANCH   6  26
TORSDOF 8
ENDMDL
MODEL 2
REMARK VINA RESULT:      -8.3      0.147      1.526
REMARK  Name = 
REMARK  11 active torsions:
REMARK  status: ('A' for Active; 'I' for Inactive)
REMARK    1  A    between atoms: C_1  and  O_2
REMARK    2  A    between atoms: O_2  and  C_3
REMARK    3  A    between atoms: C_5  and  C_6
REMARK    4  A    between atoms: N_8  and  C_9
REMARK    5  A    between atoms: C_9  and  C_10
REMARK    6  A    between atoms: N_12  and  C_13
REMARK    7  A    between atoms: C_14  and  C_15
REMARK    8  A    between atoms: C_19  and  C_20
REMARK    9  A    between atoms: C_23  and  O_24
REMARK   10  A    between atoms: O_24  and  C_25
REMARK   11  A    between atoms: C_25  and  C_26
REMARK                            x       y       z     vdW  Elec       q    Type
REMARK                         _______ _______ _______ _____ _____    ______ ____
ROOT
ATOM      1  C   UNL     1       1.578   4.189  19.927  0.00  0.00    +0.000 A 
ATOM      2  C   UNL     1       1.574   5.479  20.491  0.00  0.00    +0.000 A 
ATOM      3  C   UNL     1       1.831   6.613  19.710  0.00  0.00    +0.000 A 
ATOM      4  C   UNL     1       2.154   6.437  18.366  0.00  0.00    +0.000 A 
ATOM      5  C   UNL     1       2.213   5.159  17.815  0.00  0.00    +0.000 A 
ATOM      6  C   UNL     1       1.962   4.017  18.582  0.00  0.00    +0.000 A 
ENDROOT
BRANCH   3   7
ATOM      7  C   UNL     1       1.677   7.968  20.328  0.00  0.00    +0.000 C 
ATOM      8  O   UNL     1       1.708   8.108  21.544  0.00  0.00    +0.000 OA
ATOM      9  N   UNL     1       1.460   9.015  19.473  0.00  0.00    +0.000 N 
ATOM     10  H   UNL     1       1.394   8.885  18.472  0.00  0.00    +0.000 HD
BRANCH   9  11
ATOM     11  C   UNL     1       1.118  10.356  19.908  0.00  0.00    +0.000 C 
BRANCH  11  12
ATOM     12  C   UNL     1      -0.414  10.440  19.899  0.00  0.00    +0.000 C 
ATOM     13  O   UNL     1      -1.087   9.685  20.608  0.00  0.00    +0.000 OA
ATOM     14  N   UNL     1      -0.926  11.402  19.044  0.00  0.00    +0.000 N 
ATOM     15  H   UNL     1      -0.358  11.594  18.228  0.00  0.00    +0.000 HD
BRANCH  14  16
ATOM     16  C   UNL     1      -2.324  11.591  18.898  0.00  0.00    +0.000 A 
ATOM     17  C   UNL     1      -3.059  10.943  17.880  0.00  0.00    +0.000 A 
ATOM     18  C   UNL     1      -2.488   9.930  16.924  0.00  0.00    +0.000 C 
ATOM     19  C   UNL     1      -4.440  11.189  17.770  0.00  0.00    +0.000 A 
ATOM     20  C   UNL     1      -5.094  12.025  18.669  0.00  0.00    +0.000 A 
ATOM     21  C   UNL     1      -4.376  12.634  19.692  0.00  0.00    +0.000 A 
ATOM     22  C   UNL     1      -2.991  12.434  19.816  0.00  0.00    +0.000 A 
ATOM     23  C   UNL     1      -2.260  13.191  20.894  0.00  0.00    +0.000 C 
ENDBRANCH  14  16
ENDBRANCH  11  12
ENDBRANCH   9  11
ENDBRANCH   3   7
BRANCH   1  25
ATOM     24  C   UNL     1       1.975   2.871  21.848  0.00  0.00    +0.000 C 
ATOM     25  O   UNL     1       1.218   3.075  20.650  0.00  0.00    +0.000 OA
ENDBRANCH   1  25
BRANCH   6  26
ATOM     26  O   UNL     1       2.093   2.737  18.070  0.00  0.00    +0.000 OA
BRANCH  26  27
ATOM     27  C   UNL     1       3.438   2.269  17.982  0.00  0.00    +0.000 C 
BRANCH  27  28
ATOM     28  C   UNL     1       4.550   3.142  18.577  0.00  0.00    +0.000 C 
ATOM     29  O   UNL     1       4.779   3.111  19.790  0.00  0.00    +0.000 OA
ATOM     30  N   UNL     1       5.375   3.819  17.691  0.00  0.00    +0.000 N 
ATOM     31  C   UNL     1       5.056   4.044  16.278  0.00  0.00    +0.000 C 
ATOM     32  C   UNL     1       6.324   4.075  15.422  0.00  0.00    +0.000 C 
ATOM     33  O   UNL     1       7.290   5.002  15.938  0.00  0.00    +0.000 OA
ATOM     34  C   UNL     1       7.662   4.642  17.277  0.00  0.00    +0.000 C 
ATOM     35  C   UNL     1       6.454   4.661  18.216  0.00  0.00    +0.000 C 
ENDBRANCH  27  28
ENDBRANCH  26  27
ENDBRANCH   6  26
TORSDOF 8
ENDMDL
MODEL 3
REMARK VINA RESULT:      -8.1      1.338      2.300
REMARK  Name = 
REMARK  11 active torsions:
REMARK  status: ('A' for Active; 'I' for Inactive)
REMARK    1  A    between atoms: C_1  and  O_2
REMARK    2  A    between atoms: O_2  and  C_3
REMARK    3  A    between atoms: C_5  and  C_6
REMARK    4  A    between atoms: N_8  and  C_9
REMARK    5  A    between atoms: C_9  and  C_10
REMARK    6  A    between atoms: N_12  and  C_13
REMARK    7  A    between atoms: C_14  and  C_15
REMARK    8  A    between atoms: C_19  and  C_20
REMARK    9  A    between atoms: C_23  and  O_24
REMARK   10  A    between atoms: O_24  and  C_25
REMARK   11  A    between atoms: C_25  and  C_26
REMARK                            x       y       z     vdW  Elec       q    Type
REMARK                         _______ _______ _______ _____ _____    ______ ____
ROOT
ATOM      1  C   UNL     1       1.722   4.959  19.979  0.00  0.00    +0.000 A 
ATOM      2  C   UNL     1       1.545   6.196  20.630  0.00  0.00    +0.000 A 
ATOM      3  C   UNL     1       1.814   7.405  19.976  0.00  0.00    +0.000 A 
ATOM      4  C   UNL     1       2.324   7.362  18.680  0.00  0.00    +0.000 A 
ATOM      5  C   UNL     1       2.552   6.141  18.050  0.00  0.00    +0.000 A 
ATOM      6  C   UNL     1       2.291   4.925  18.690  0.00  0.00    +0.000 A 
ENDROOT
BRANCH   3   7
ATOM      7  C   UNL     1       1.477   8.691  20.664  0.00  0.00    +0.000 C 
ATOM      8  O   UNL     1       1.516   8.776  21.886  0.00  0.00    +0.000 OA
ATOM      9  N   UNL     1       1.089   9.734  19.867  0.00  0.00    +0.000 N 
ATOM     10  H   UNL     1       1.019   9.644  18.862  0.00  0.00    +0.000 HD
BRANCH   9  11
ATOM     11  C   UNL     1       0.564  10.987  20.375  0.00  0.00    +0.000 C 
BRANCH  11  12
ATOM     12  C   UNL     1      -0.485  11.463  19.362  0.00  0.00    +0.000 C 
ATOM     13  O   UNL     1      -0.216  12.357  18.554  0.00  0.00    +0.000 OA
ATOM     14  N   UNL     1      -1.706  10.815  19.459  0.00  0.00    +0.000 N 
ATOM     15  H   UNL     1      -1.944  10.489  20.387  0.00  0.00    +0.000 HD
BRANCH  14  16
ATOM     16  C   UNL     1      -2.792  11.154  18.612  0.00  0.00    +0.000 A 
ATOM     17  C   UNL     1      -2.890  10.654  17.294  0.00  0.00    +0.000 A 
ATOM     18  C   UNL     1      -1.943   9.655  16.684  0.00  0.00    +0.000 C 
ATOM     19  C   UNL     1      -3.979  11.045  16.493  0.00  0.00    +0.000 A 
ATOM     20  C   UNL     1      -4.973  11.881  16.990  0.00  0.00    +0.000 A 
ATOM     21  C   UNL     1      -4.893  12.344  18.299  0.00  0.00    +0.000 A 
ATOM     22  C   UNL     1      -3.807  11.996  19.120  0.00  0.00    +0.000 A 
ATOM     23  C   UNL     1      -3.739  12.601  20.497  0.00  0.00    +0.000 C 
ENDBRANCH  14  16
ENDBRANCH  11  12
ENDBRANCH   9  11
ENDBRANCH   3   7
BRANCH   1  25
ATOM     24  C   UNL     1       2.162   3.379  21.681  0.00  0.00    +0.000 C 
ATOM     25  O   UNL     1       1.356   3.768  20.563  0.00  0.00    +0.000 OA
ENDBRANCH   1  25
BRANCH   6  26
ATOM     26  O   UNL     1       2.586   3.703  18.109  0.00  0.00    +0.000 OA
BRANCH  26  27
ATOM     27  C   UNL     1       3.972   3.362  18.117  0.00  0.00    +0.000 C 
BRANCH  27  28
ATOM     28  C   UNL     1       4.893   4.049  17.101  0.00  0.00    +0.000 C 
ATOM     29  O   UNL     1       4.580   4.084  15.907  0.00  0.00    +0.000 OA
ATOM     30  N   UNL     1       5.978   4.756  17.597  0.00  0.00    +0.000 N 
ATOM     31  C   UNL     1       6.505   4.608  18.957  0.00  0.00    +0.000 C 
ATOM     32  C   UNL     1       7.095   5.924  19.469  0.00  0.00    +0.000 C 
ATOM     33  O   UNL     1       8.051   6.469  18.549  0.00  0.00    +0.000 OA
ATOM     34  C   UNL     1       7.434   6.720  17.277  0.00  0.00    +0.000 C 
ATOM     35  C   UNL     1       6.881   5.433  16.662  0.00  0.00    +0.000 C 
ENDBRANCH  27  28
ENDBRANCH  26  27
ENDBRANCH   6  26
TORSDOF 8
ENDMDL
MODEL 4
REMARK VINA RESULT:      -8.0      1.349      1.762
REMARK  Name = 
REMARK  11 active torsions:
REMARK  status: ('A' for Active; 'I' for Inactive)
REMARK    1  A    between atoms: C_1  and  O_2
REMARK    2  A    between atoms: O_2  and  C_3
REMARK    3  A    between atoms: C_5  and  C_6
REMARK    4  A    between atoms: N_8  and  C_9
REMARK    5  A    between atoms: C_9  and  C_10
REMARK    6  A    between atoms: N_12  and  C_13
REMARK    7  A    between atoms: C_14  and  C_15
REMARK    8  A    between atoms: C_19  and  C_20
REMARK    9  A    between atoms: C_23  and  O_24
REMARK   10  A    between atoms: O_24  and  C_25
REMARK   11  A    between atoms: C_25  and  C_26
REMARK                            x       y       z     vdW  Elec       q    Type
REMARK                         _______ _______ _______ _____ _____    ______ ____
ROOT
ATOM      1  C   UNL     1       1.595   5.027  20.095  0.00  0.00    +0.000 A 
ATOM      2  C   UNL     1       1.450   6.263  20.753  0.00  0.00    +0.000 A 
ATOM      3  C   UNL     1       1.778   7.467  20.116  0.00  0.00    +0.000 A 
ATOM      4  C   UNL     1       2.315   7.415  18.830  0.00  0.00    +0.000 A 
ATOM      5  C   UNL     1       2.511   6.192  18.195  0.00  0.00    +0.000 A 
ATOM      6  C   UNL     1       2.191   4.982  18.818  0.00  0.00    +0.000 A 
ENDROOT
BRANCH   3   7
ATOM      7  C   UNL     1       1.475   8.759  20.808  0.00  0.00    +0.000 C 
ATOM      8  O   UNL     1       1.610   8.866  22.021  0.00  0.00    +0.000 OA
ATOM      9  N   UNL     1       1.004   9.781  20.028  0.00  0.00    +0.000 N 
ATOM     10  H   UNL     1       0.855   9.672  19.034  0.00  0.00    +0.000 HD
BRANCH   9  11
ATOM     11  C   UNL     1       0.499  11.034  20.557  0.00  0.00    +0.000 C 
BRANCH  11  12
ATOM     12  C   UNL     1      -0.548  11.539  19.556  0.00  0.00    +0.000 C 
ATOM     13  O   UNL     1      -0.340  12.559  18.892  0.00  0.00    +0.000 OA
ATOM     14  N   UNL     1      -1.695  10.765  19.493  0.00  0.00    +0.000 N 
ATOM     15  H   UNL     1      -1.939  10.292  20.354  0.00  0.00    +0.000 HD
BRANCH  14  16
ATOM     16  C   UNL     1      -2.772  11.109  18.636  0.00  0.00    +0.000 A 
ATOM     17  C   UNL     1      -3.822  11.952  19.064  0.00  0.00    +0.000 A 
ATOM     18  C   UNL     1      -3.872  12.647  20.399  0.00  0.00    +0.000 C 
ATOM     19  C   UNL     1      -4.875  12.239  18.176  0.00  0.00    +0.000 A 
ATOM     20  C   UNL     1      -4.878  11.737  16.879  0.00  0.00    +0.000 A 
ATOM     21  C   UNL     1      -3.826  10.936  16.448  0.00  0.00    +0.000 A 
ATOM     22  C   UNL     1      -2.771  10.606  17.315  0.00  0.00    +0.000 A 
ATOM     23  C   UNL     1      -1.709   9.665  16.811  0.00  0.00    +0.000 C 
ENDBRANCH  14  16
ENDBRANCH  11  12
ENDBRANCH   9  11
ENDBRANCH   3   7
BRANCH   1  25
ATOM     24  C   UNL     1       2.069   3.293  21.630  0.00  0.00    +0.000 C 
ATOM     25  O   UNL     1       1.172   3.845  20.660  0.00  0.00    +0.000 OA
ENDBRANCH   1  25
BRANCH   6  26
ATOM     26  O   UNL     1       2.452   3.754  18.232  0.00  0.00    +0.000 OA
BRANCH  26  27
ATOM     27  C   UNL     1       3.833   3.393  18.206  0.00  0.00    +0.000 C 
BRANCH  27  28
ATOM     28  C   UNL     1       4.736   4.056  17.157  0.00  0.00    +0.000 C 
ATOM     29  O   UNL     1       4.374   4.114  15.978  0.00  0.00    +0.000 OA
ATOM     30  N   UNL     1       5.864   4.719  17.614  0.00  0.00    +0.000 N 
ATOM     31  C   UNL     1       6.442   4.539  18.950  0.00  0.00    +0.000 C 
ATOM     32  C   UNL     1       7.100   5.828  19.447  0.00  0.00    +0.000 C 
ATOM     33  O   UNL     1       8.036   6.348  18.493  0.00  0.00    +0.000 OA
ATOM     34  C   UNL     1       7.376   6.633  17.250  0.00  0.00    +0.000 C 
ATOM     35  C   UNL     1       6.753   5.372  16.648  0.00  0.00    +0.000 C 
ENDBRANCH  27  28
ENDBRANCH  26  27
ENDBRANCH   6  26
TORSDOF 8
ENDMDL
MODEL 5
REMARK VINA RESULT:      -8.0      1.160      1.267
REMARK  Name = 
REMARK  11 active torsions:
REMARK  status: ('A' for Active; 'I' for Inactive)
REMARK    1  A    between atoms: C_1  and  O_2
REMARK    2  A    between atoms: O_2  and  C_3
REMARK    3  A    between atoms: C_5  and  C_6
REMARK    4  A    between atoms: N_8  and  C_9
REMARK    5  A    between atoms: C_9  and  C_10
REMARK    6  A    between atoms: N_12  and  C_13
REMARK    7  A    between atoms: C_14  and  C_15
REMARK    8  A    between atoms: C_19  and  C_20
REMARK    9  A    between atoms: C_23  and  O_24
REMARK   10  A    between atoms: O_24  and  C_25
REMARK   11  A    between atoms: C_25  and  C_26
REMARK                            x       y       z     vdW  Elec       q    Type
REMARK                         _______ _______ _______ _____ _____    ______ ____
ROOT
ATOM      1  C   UNL     1       1.750   5.007  19.999  0.00  0.00    +0.000 A 
ATOM      2  C   UNL     1       1.496   6.196  20.709  0.00  0.00    +0.000 A 
ATOM      3  C   UNL     1       1.736   7.450  20.132  0.00  0.00    +0.000 A 
ATOM      4  C   UNL     1       2.293   7.501  18.856  0.00  0.00    +0.000 A 
ATOM      5  C   UNL     1       2.598   6.328  18.171  0.00  0.00    +0.000 A 
ATOM      6  C   UNL     1       2.367   5.069  18.733  0.00  0.00    +0.000 A 
ENDROOT
BRANCH   3   7
ATOM      7  C   UNL     1       1.318   8.681  20.877  0.00  0.00    +0.000 C 
ATOM      8  O   UNL     1       0.950   8.612  22.043  0.00  0.00    +0.000 OA
ATOM      9  N   UNL     1       1.332   9.858  20.178  0.00  0.00    +0.000 N 
ATOM     10  H   UNL     1       1.597   9.900  19.203  0.00  0.00    +0.000 HD
BRANCH   9  11
ATOM     11  C   UNL     1       0.796  11.106  20.689  0.00  0.00    +0.000 C 
BRANCH  11  12
ATOM     12  C   UNL     1      -0.262  11.571  19.679  0.00  0.00    +0.000 C 
ATOM     13  O   UNL     1      -0.095  12.609  19.031  0.00  0.00    +0.000 OA
ATOM     14  N   UNL     1      -1.369  10.742  19.591  0.00  0.00    +0.000 N 
ATOM     15  H   UNL     1      -1.600  10.247  20.443  0.00  0.00    +0.000 HD
BRANCH  14  16
ATOM     16  C   UNL     1      -2.450  11.044  18.724  0.00  0.00    +0.000 A 
ATOM     17  C   UNL     1      -3.515  11.880  19.127  0.00  0.00    +0.000 A 
ATOM     18  C   UNL     1      -3.580  12.610  20.442  0.00  0.00    +0.000 C 
ATOM     19  C   UNL     1      -4.571  12.124  18.230  0.00  0.00    +0.000 A 
ATOM     20  C   UNL     1      -4.562  11.587  16.947  0.00  0.00    +0.000 A 
ATOM     21  C   UNL     1      -3.496  10.793  16.539  0.00  0.00    +0.000 A 
ATOM     22  C   UNL     1      -2.437  10.506  17.417  0.00  0.00    +0.000 A 
ATOM     23  C   UNL     1      -1.357   9.571  16.940  0.00  0.00    +0.000 C 
ENDBRANCH  14  16
ENDBRANCH  11  12
ENDBRANCH   9  11
ENDBRANCH   3   7
BRANCH   1  25
ATOM     24  C   UNL     1       2.155   3.380  21.666  0.00  0.00    +0.000 C 
ATOM     25  O   UNL     1       1.416   3.770  20.502  0.00  0.00    +0.000 OA
ENDBRANCH   1  25
BRANCH   6  26
ATOM     26  O   UNL     1       2.735   3.894  18.097  0.00  0.00    +0.000 OA
BRANCH  26  27
ATOM     27  C   UNL     1       4.012   3.387  18.485  0.00  0.00    +0.000 C 
BRANCH  27  28
ATOM     28  C   UNL     1       5.229   4.312  18.357  0.00  0.00    +0.000 C 
ATOM     29  O   UNL     1       5.858   4.649  19.364  0.00  0.00    +0.000 OA
ATOM     30  N   UNL     1       5.678   4.604  17.078  0.00  0.00    +0.000 N 
ATOM     31  C   UNL     1       4.889   4.394  15.860  0.00  0.00    +0.000 C 
ATOM     32  C   UNL     1       5.788   4.050  14.670  0.00  0.00    +0.000 C 
ATOM     33  O   UNL     1       6.838   5.011  14.504  0.00  0.00    +0.000 OA
ATOM     34  C   UNL     1       7.657   5.067  15.682  0.00  0.00    +0.000 C 
ATOM     35  C   UNL     1       6.842   5.479  16.908  0.00  0.00    +0.000 C 
ENDBRANCH  27  28
ENDBRANCH  26  27
ENDBRANCH   6  26
TORSDOF 8
ENDMDL
MODEL 6
REMARK VINA RESULT:      -7.9      1.320      1.606
REMARK  Name = 
REMARK  11 active torsions:
REMARK  status: ('A' for Active; 'I' for Inactive)
REMARK    1  A    between atoms: C_1  and  O_2
REMARK    2  A    between atoms: O_2  and  C_3
REMARK    3  A    between atoms: C_5  and  C_6
REMARK    4  A    between atoms: N_8  and  C_9
REMARK    5  A    between atoms: C_9  and  C_10
REMARK    6  A    between atoms: N_12  and  C_13
REMARK    7  A    between atoms: C_14  and  C_15
REMARK    8  A    between atoms: C_19  and  C_20
REMARK    9  A    between atoms: C_23  and  O_24
REMARK   10  A    between atoms: O_24  and  C_25
REMARK   11  A    between atoms: C_25  and  C_26
REMARK                            x       y       z     vdW  Elec       q    Type
REMARK                         _______ _______ _______ _____ _____    ______ ____
ROOT
ATOM      1  C   UNL     1       2.297   4.194  20.270  0.00  0.00    +0.000 A 
ATOM      2  C   UNL     1       2.222   5.540  20.677  0.00  0.00    +0.000 A 
ATOM      3  C   UNL     1       1.947   6.561  19.758  0.00  0.00    +0.000 A 
ATOM      4  C   UNL     1       1.809   6.226  18.412  0.00  0.00    +0.000 A 
ATOM      5  C   UNL     1       1.936   4.904  17.996  0.00  0.00    +0.000 A 
ATOM      6  C   UNL     1       2.213   3.874  18.900  0.00  0.00    +0.000 A 
ENDROOT
BRANCH   3   7
ATOM      7  C   UNL     1       1.740   7.955  20.265  0.00  0.00    +0.000 C 
ATOM      8  O   UNL     1       1.760   8.909  19.497  0.00  0.00    +0.000 OA
ATOM      9  N   UNL     1       1.574   8.101  21.616  0.00  0.00    +0.000 N 
ATOM     10  H   UNL     1       1.601   7.312  22.248  0.00  0.00    +0.000 HD
BRANCH   9  11
ATOM     11  C   UNL     1       1.537   9.385  22.290  0.00  0.00    +0.000 C 
BRANCH  11  12
ATOM     12  C   UNL     1       0.127   9.950  22.074  0.00  0.00    +0.000 C 
ATOM     13  O   UNL     1      -0.847   9.433  22.629  0.00  0.00    +0.000 OA
ATOM     14  N   UNL     1       0.076  11.043  21.223  0.00  0.00    +0.000 N 
ATOM     15  H   UNL     1       0.793  11.062  20.509  0.00  0.00    +0.000 HD
BRANCH  14  16
ATOM     16  C   UNL     1      -1.155  11.668  20.897  0.00  0.00    +0.000 A 
ATOM     17  C   UNL     1      -1.797  12.553  21.792  0.00  0.00    +0.000 A 
ATOM     18  C   UNL     1      -1.226  13.003  23.110  0.00  0.00    +0.000 C 
ATOM     19  C   UNL     1      -3.029  13.125  21.423  0.00  0.00    +0.000 A 
ATOM     20  C   UNL     1      -3.599  12.863  20.181  0.00  0.00    +0.000 A 
ATOM     21  C   UNL     1      -2.947  12.021  19.287  0.00  0.00    +0.000 A 
ATOM     22  C   UNL     1      -1.729  11.410  19.632  0.00  0.00    +0.000 A 
ATOM     23  C   UNL     1      -1.121  10.442  18.652  0.00  0.00    +0.000 C 
ENDBRANCH  14  16
ENDBRANCH  11  12
ENDBRANCH   9  11
ENDBRANCH   3   7
BRANCH   1  25
ATOM     24  C   UNL     1       1.230   2.655  21.712  0.00  0.00    +0.000 C 
ATOM     25  O   UNL     1       2.453   3.166  21.172  0.00  0.00    +0.000 OA
ENDBRANCH   1  25
BRANCH   6  26
ATOM     26  O   UNL     1       2.421   2.566  18.493  0.00  0.00    +0.000 OA
BRANCH  26  27
ATOM     27  C   UNL     1       3.706   2.319  17.925  0.00  0.00    +0.000 C 
BRANCH  27  28
ATOM     28  C   UNL     1       4.887   3.175  18.403  0.00  0.00    +0.000 C 
ATOM     29  O   UNL     1       5.315   3.049  19.554  0.00  0.00    +0.000 OA
ATOM     30  N   UNL     1       5.540   3.949  17.456  0.00  0.00    +0.000 N 
ATOM     31  C   UNL     1       4.986   4.282  16.140  0.00  0.00    +0.000 C 
ATOM     32  C   UNL     1       6.093   4.424  15.093  0.00  0.00    +0.000 C 
ATOM     33  O   UNL     1       7.115   5.334  15.522  0.00  0.00    +0.000 OA
ATOM     34  C   UNL     1       7.711   4.876  16.745  0.00  0.00    +0.000 C 
ATOM     35  C   UNL     1       6.677   4.778  17.868  0.00  0.00    +0.000 C 
ENDBRANCH  27  28
ENDBRANCH  26  27
ENDBRANCH   6  26
TORSDOF 8
ENDMDL
MODEL 7
REMARK VINA RESULT:      -7.9      2.356      3.445
REMARK  Name = 
REMARK  11 active torsions:
REMARK  status: ('A' for Active; 'I' for Inactive)
REMARK    1  A    between atoms: C_1  and  O_2
REMARK    2  A    between atoms: O_2  and  C_3
REMARK    3  A    between atoms: C_5  and  C_6
REMARK    4  A    between atoms: N_8  and  C_9
REMARK    5  A    between atoms: C_9  and  C_10
REMARK    6  A    between atoms: N_12  and  C_13
REMARK    7  A    between atoms: C_14  and  C_15
REMARK    8  A    between atoms: C_19  and  C_20
REMARK    9  A    between atoms: C_23  and  O_24
REMARK   10  A    between atoms: O_24  and  C_25
REMARK   11  A    between atoms: C_25  and  C_26
REMARK                            x       y       z     vdW  Elec       q    Type
REMARK                         _______ _______ _______ _____ _____    ______ ____
ROOT
ATOM      1  C   UNL     1       1.805   5.026  20.040  0.00  0.00    +0.000 A 
ATOM      2  C   UNL     1       1.482   6.187  20.770  0.00  0.00    +0.000 A 
ATOM      3  C   UNL     1       1.700   7.464  20.235  0.00  0.00    +0.000 A 
ATOM      4  C   UNL     1       2.304   7.567  18.983  0.00  0.00    +0.000 A 
ATOM      5  C   UNL     1       2.675   6.424  18.281  0.00  0.00    +0.000 A 
ATOM      6  C   UNL     1       2.468   5.143  18.802  0.00  0.00    +0.000 A 
ENDROOT
BRANCH   3   7
ATOM      7  C   UNL     1       1.211   8.659  20.993  0.00  0.00    +0.000 C 
ATOM      8  O   UNL     1       1.513   8.820  22.169  0.00  0.00    +0.000 OA
ATOM      9  N   UNL     1       0.388   9.521  20.320  0.00  0.00    +0.000 N 
ATOM     10  H   UNL     1       0.110   9.359  19.361  0.00  0.00    +0.000 HD
BRANCH   9  11
ATOM     11  C   UNL     1      -0.311  10.626  20.948  0.00  0.00    +0.000 C 
BRANCH  11  12
ATOM     12  C   UNL     1       0.525  11.883  20.673  0.00  0.00    +0.000 C 
ATOM     13  O   UNL     1       1.410  12.232  21.461  0.00  0.00    +0.000 OA
ATOM     14  N   UNL     1       0.184  12.549  19.507  0.00  0.00    +0.000 N 
ATOM     15  H   UNL     1      -0.786  12.461  19.233  0.00  0.00    +0.000 HD
BRANCH  14  16
ATOM     16  C   UNL     1       0.844  13.744  19.120  0.00  0.00    +0.000 A 
ATOM     17  C   UNL     1       2.086  13.722  18.447  0.00  0.00    +0.000 A 
ATOM     18  C   UNL     1       2.787  12.473  17.985  0.00  0.00    +0.000 C 
ATOM     19  C   UNL     1       2.703  14.941  18.109  0.00  0.00    +0.000 A 
ATOM     20  C   UNL     1       2.093  16.158  18.392  0.00  0.00    +0.000 A 
ATOM     21  C   UNL     1       0.853  16.177  19.022  0.00  0.00    +0.000 A 
ATOM     22  C   UNL     1       0.219  14.981  19.399  0.00  0.00    +0.000 A 
ATOM     23  C   UNL     1      -1.080  15.076  20.154  0.00  0.00    +0.000 C 
ENDBRANCH  14  16
ENDBRANCH  11  12
ENDBRANCH   9  11
ENDBRANCH   3   7
BRANCH   1  25
ATOM     24  C   UNL     1       2.155   3.395  21.715  0.00  0.00    +0.000 C 
ATOM     25  O   UNL     1       1.496   3.766  20.499  0.00  0.00    +0.000 OA
ENDBRANCH   1  25
BRANCH   6  26
ATOM     26  O   UNL     1       2.902   3.999  18.152  0.00  0.00    +0.000 OA
BRANCH  26  27
ATOM     27  C   UNL     1       4.157   3.498  18.610  0.00  0.00    +0.000 C 
BRANCH  27  28
ATOM     28  C   UNL     1       5.404   4.366  18.399  0.00  0.00    +0.000 C 
ATOM     29  O   UNL     1       6.144   4.627  19.353  0.00  0.00    +0.000 OA
ATOM     30  N   UNL     1       5.744   4.691  17.095  0.00  0.00    +0.000 N 
ATOM     31  C   UNL     1       4.833   4.573  15.953  0.00  0.00    +0.000 C 
ATOM     32  C   UNL     1       5.594   4.237  14.669  0.00  0.00    +0.000 C 
ATOM     33  O   UNL     1       6.674   5.152  14.438  0.00  0.00    +0.000 OA
ATOM     34  C   UNL     1       7.603   5.115  15.531  0.00  0.00    +0.000 C 
ATOM     35  C   UNL     1       6.932   5.513  16.847  0.00  0.00    +0.000 C 
ENDBRANCH  27  28
ENDBRANCH  26  27
ENDBRANCH   6  26
TORSDOF 8
ENDMDL
MODEL 8
REMARK VINA RESULT:      -7.9      2.234      3.748
REMARK  Name = 
REMARK  11 active torsions:
REMARK  status: ('A' for Active; 'I' for Inactive)
REMARK    1  A    between atoms: C_1  and  O_2
REMARK    2  A    between atoms: O_2  and  C_3
REMARK    3  A    between atoms: C_5  and  C_6
REMARK    4  A    between atoms: N_8  and  C_9
REMARK    5  A    between atoms: C_9  and  C_10
REMARK    6  A    between atoms: N_12  and  C_13
REMARK    7  A    between atoms: C_14  and  C_15
REMARK    8  A    between atoms: C_19  and  C_20
REMARK    9  A    between atoms: C_23  and  O_24
REMARK   10  A    between atoms: O_24  and  C_25
REMARK   11  A    between atoms: C_25  and  C_26
REMARK                            x       y       z     vdW  Elec       q    Type
REMARK                         _______ _______ _______ _____ _____    ______ ____
ROOT
ATOM      1  C   UNL     1       1.346   8.282  20.240  0.00  0.00    +0.000 A 
ATOM      2  C   UNL     1       1.170   9.658  19.997  0.00  0.00    +0.000 A 
ATOM      3  C   UNL     1       1.580  10.240  18.790  0.00  0.00    +0.000 A 
ATOM      4  C   UNL     1       2.227   9.439  17.851  0.00  0.00    +0.000 A 
ATOM      5  C   UNL     1       2.452   8.089  18.108  0.00  0.00    +0.000 A 
ATOM      6  C   UNL     1       2.052   7.494  19.308  0.00  0.00    +0.000 A 
ENDROOT
BRANCH   3   7
ATOM      7  C   UNL     1       1.243  11.675  18.527  0.00  0.00    +0.000 C 
ATOM      8  O   UNL     1       2.117  12.533  18.531  0.00  0.00    +0.000 OA
ATOM      9  N   UNL     1      -0.078  11.972  18.329  0.00  0.00    +0.000 N 
ATOM     10  H   UNL     1      -0.799  11.264  18.368  0.00  0.00    +0.000 HD
BRANCH   9  11
ATOM     11  C   UNL     1      -0.597  13.324  18.235  0.00  0.00    +0.000 C 
BRANCH  11  12
ATOM     12  C   UNL     1      -1.356  13.590  19.542  0.00  0.00    +0.000 C 
ATOM     13  O   UNL     1      -1.256  14.680  20.114  0.00  0.00    +0.000 OA
ATOM     14  N   UNL     1      -2.120  12.522  19.984  0.00  0.00    +0.000 N 
ATOM     15  H   UNL     1      -1.765  11.609  19.729  0.00  0.00    +0.000 HD
BRANCH  14  16
ATOM     16  C   UNL     1      -2.864  12.595  21.190  0.00  0.00    +0.000 A 
ATOM     17  C   UNL     1      -4.227  12.966  21.200  0.00  0.00    +0.000 A 
ATOM     18  C   UNL     1      -5.054  13.221  19.968  0.00  0.00    +0.000 C 
ATOM     19  C   UNL     1      -4.906  13.045  22.430  0.00  0.00    +0.000 A 
ATOM     20  C   UNL     1      -4.268  12.726  23.624  0.00  0.00    +0.000 A 
ATOM     21  C   UNL     1      -2.936  12.326  23.609  0.00  0.00    +0.000 A 
ATOM     22  C   UNL     1      -2.218  12.263  22.403  0.00  0.00    +0.000 A 
ATOM     23  C   UNL     1      -0.757  11.906  22.467  0.00  0.00    +0.000 C 
ENDBRANCH  14  16
ENDBRANCH  11  12
ENDBRANCH   9  11
ENDBRANCH   3   7
BRANCH   1  25
ATOM     24  C   UNL     1      -0.302   8.306  21.934  0.00  0.00    +0.000 C 
ATOM     25  O   UNL     1       0.850   7.671  21.368  0.00  0.00    +0.000 OA
ENDBRANCH   1  25
BRANCH   6  26
ATOM     26  O   UNL     1       2.339   6.174  19.613  0.00  0.00    +0.000 OA
BRANCH  26  27
ATOM     27  C   UNL     1       3.678   5.775  19.320  0.00  0.00    +0.000 C 
BRANCH  27  28
ATOM     28  C   UNL     1       3.928   4.951  18.051  0.00  0.00    +0.000 C 
ATOM     29  O   UNL     1       3.018   4.273  17.564  0.00  0.00    +0.000 OA
ATOM     30  N   UNL     1       5.138   5.132  17.400  0.00  0.00    +0.000 N 
ATOM     31  C   UNL     1       6.313   5.766  18.006  0.00  0.00    +0.000 C 
ATOM     32  C   UNL     1       7.145   6.508  16.958  0.00  0.00    +0.000 C 
ATOM     33  O   UNL     1       7.471   5.663  15.845  0.00  0.00    +0.000 OA
ATOM     34  C   UNL     1       6.273   5.187  15.211  0.00  0.00    +0.000 C 
ATOM     35  C   UNL     1       5.418   4.369  16.180  0.00  0.00    +0.000 C 
ENDBRANCH  27  28
ENDBRANCH  26  27
ENDBRANCH   6  26
TORSDOF 8
ENDMDL
MODEL 9
REMARK VINA RESULT:      -7.9      1.310      2.194
REMARK  Name = 
REMARK  11 active torsions:
REMARK  status: ('A' for Active; 'I' for Inactive)
REMARK    1  A    between atoms: C_1  and  O_2
REMARK    2  A    between atoms: O_2  and  C_3
REMARK    3  A    between atoms: C_5  and  C_6
REMARK    4  A    between atoms: N_8  and  C_9
REMARK    5  A    between atoms: C_9  and  C_10
REMARK    6  A    between atoms: N_12  and  C_13
REMARK    7  A    between atoms: C_14  and  C_15
REMARK    8  A    between atoms: C_19  and  C_20
REMARK    9  A    between atoms: C_23  and  O_24
REMARK   10  A    between atoms: O_24  and  C_25
REMARK   11  A    between atoms: C_25  and  C_26
REMARK                            x       y       z     vdW  Elec       q    Type
REMARK                         _______ _______ _______ _____ _____    ______ ____
ROOT
ATOM      1  C   UNL     1       2.314   4.197  20.239  0.00  0.00    +0.000 A 
ATOM      2  C   UNL     1       2.223   5.542  20.645  0.00  0.00    +0.000 A 
ATOM      3  C   UNL     1       1.960   6.563  19.721  0.00  0.00    +0.000 A 
ATOM      4  C   UNL     1       1.851   6.228  18.373  0.00  0.00    +0.000 A 
ATOM      5  C   UNL     1       1.994   4.907  17.958  0.00  0.00    +0.000 A 
ATOM      6  C   UNL     1       2.259   3.877  18.867  0.00  0.00    +0.000 A 
ENDROOT
BRANCH   3   7
ATOM      7  C   UNL     1       1.736   7.955  20.225  0.00  0.00    +0.000 C 
ATOM      8  O   UNL     1       1.733   8.906  19.453  0.00  0.00    +0.000 OA
ATOM      9  N   UNL     1       1.580   8.104  21.576  0.00  0.00    +0.000 N 
ATOM     10  H   UNL     1       1.625   7.318  22.212  0.00  0.00    +0.000 HD
BRANCH   9  11
ATOM     11  C   UNL     1       1.528   9.389  22.246  0.00  0.00    +0.000 C 
BRANCH  11  12
ATOM     12  C   UNL     1       0.121   9.951  22.003  0.00  0.00    +0.000 C 
ATOM     13  O   UNL     1      -0.864   9.420  22.524  0.00  0.00    +0.000 OA
ATOM     14  N   UNL     1       0.087  11.058  21.170  0.00  0.00    +0.000 N 
ATOM     15  H   UNL     1       0.822  11.092  20.476  0.00  0.00    +0.000 HD
BRANCH  14  16
ATOM     16  C   UNL     1      -1.139  11.683  20.823  0.00  0.00    +0.000 A 
ATOM     17  C   UNL     1      -1.793  11.408  19.602  0.00  0.00    +0.000 A 
ATOM     18  C   UNL     1      -1.339  10.381  18.599  0.00  0.00    +0.000 C 
ATOM     19  C   UNL     1      -2.994  12.077  19.303  0.00  0.00    +0.000 A 
ATOM     20  C   UNL     1      -3.563  12.970  20.205  0.00  0.00    +0.000 A 
ATOM     21  C   UNL     1      -2.937  13.211  21.423  0.00  0.00    +0.000 A 
ATOM     22  C   UNL     1      -1.722  12.583  21.744  0.00  0.00    +0.000 A 
ATOM     23  C   UNL     1      -1.054  12.955  23.041  0.00  0.00    +0.000 C 
ENDBRANCH  14  16
ENDBRANCH  11  12
ENDBRANCH   9  11
ENDBRANCH   3   7
BRANCH   1  25
ATOM     24  C   UNL     1       1.227   2.671  21.680  0.00  0.00    +0.000 C 
ATOM     25  O   UNL     1       2.457   3.169  21.143  0.00  0.00    +0.000 OA
ENDBRANCH   1  25
BRANCH   6  26
ATOM     26  O   UNL     1       2.481   2.571  18.463  0.00  0.00    +0.000 OA
BRANCH  26  27
ATOM     27  C   UNL     1       3.784   2.329  17.933  0.00  0.00    +0.000 C 
BRANCH  27  28
ATOM     28  C   UNL     1       4.934   3.235  18.392  0.00  0.00    +0.000 C 
ATOM     29  O   UNL     1       5.354   3.162  19.550  0.00  0.00    +0.000 OA
ATOM     30  N   UNL     1       5.573   3.996  17.425  0.00  0.00    +0.000 N 
ATOM     31  C   UNL     1       5.023   4.267  16.093  0.00  0.00    +0.000 C 
ATOM     32  C   UNL     1       6.135   4.407  15.052  0.00  0.00    +0.000 C 
ATOM     33  O   UNL     1       7.125   5.361  15.458  0.00  0.00    +0.000 OA
ATOM     34  C   UNL     1       7.723   4.962  16.701  0.00  0.00    +0.000 C 
ATOM     35  C   UNL     1       6.681   4.871  17.818  0.00  0.00    +0.000 C 
ENDBRANCH  27  28
ENDBRANCH  26  27
ENDBRANCH   6  26
TORSDOF 8
ENDMDL
