MODEL 1
REMARK VINA RESULT:      -6.6      0.000      0.000
REMARK  Name = 
REMARK  4 active torsions:
REMARK  status: ('A' for Active; 'I' for Inactive)
REMARK    1  A    between atoms: C_2  and  C_3
REMARK    2  A    between atoms: C_2  and  C_12
REMARK    3  A    between atoms: C_3  and  N_4
REMARK    4  A    between atoms: N_4  and  C_5
REMARK                            x       y       z     vdW  Elec       q    Type
REMARK                         _______ _______ _______ _____ _____    ______ ____
ROOT
ATOM      1  N   UNL     1       3.703   5.995  18.719  0.00  0.00    +0.000 NA
ATOM      2  H   UNL     1       3.964   5.750  17.734  0.00  0.00    +0.000 HD
ENDROOT
BRANCH   1   3
ATOM      3  C   UNL     1       2.285   5.607  18.927  0.00  0.00    +0.000 C 
ATOM      4  C   UNL     1       1.763   4.722  17.771  0.00  0.00    +0.000 C 
ATOM      5  C   UNL     1       2.197   3.256  17.816  0.00  0.00    +0.000 C 
ATOM      6  C   UNL     1       1.187   2.415  18.605  0.00  0.00    +0.000 C 
ATOM      7  C   UNL     1       1.120   2.661  20.116  0.00  0.00    +0.000 C 
ATOM      8  C   UNL     1       0.898   4.116  20.584  0.00  0.00    +0.000 C 
ATOM      9  C   UNL     1       2.140   4.986  20.338  0.00  0.00    +0.000 C 
ENDBRANCH   1   3
BRANCH   1  10
ATOM     10  C   UNL     1       4.623   5.225  19.577  0.00  0.00    +0.000 C 
BRANCH  10  12
ATOM     11  O   UNL     1       6.982   5.275  19.744  0.00  0.00    +0.000 OA
ATOM     12  C   UNL     1       6.013   5.158  19.007  0.00  0.00    +0.000 C 
BRANCH  12  13
ATOM     13  C   UNL     1       6.211   4.907  17.562  0.00  0.00    +0.000 A 
ATOM     14  C   UNL     1       5.628   3.882  16.818  0.00  0.00    +0.000 A 
ATOM     15  C   UNL     1       5.981   3.910  15.466  0.00  0.00    +0.000 A 
ATOM     16  C   UNL     1       6.841   4.949  15.138  0.00  0.00    +0.000 A 
ATOM     17  S   UNL     1       7.161   5.837  16.531  0.00  0.00    +0.000 S 
ENDBRANCH  12  13
ENDBRANCH  10  12
ENDBRANCH   1  10
TORSDOF 4
ENDMDL
MODEL 2
REMARK VINA RESULT:      -6.5      1.072      1.212
REMARK  Name = 
REMARK  4 active torsions:
REMARK  status: ('A' for Active; 'I' for Inactive)
REMARK    1  A    between atoms: C_2  and  C_3
REMARK    2  A    between atoms: C_2  and  C_12
REMARK    3  A    between atoms: C_3  and  N_4
REMARK    4  A    between atoms: N_4  and  C_5
REMARK                            x       y       z     vdW  Elec       q    Type
REMARK                         _______ _______ _______ _____ _____    ______ ____
ROOT
ATOM      1  N   UNL     1       3.447   5.968  18.116  0.00  0.00    +0.000 NA
ATOM      2  H   UNL     1       3.705   5.434  17.252  0.00  0.00    +0.000 HD
ENDROOT
BRANCH   1   3
ATOM      3  C   UNL     1       2.093   5.526  18.539  0.00  0.00    +0.000 C 
ATOM      4  C   UNL     1       1.549   4.406  17.623  0.00  0.00    +0.000 C 
ATOM      5  C   UNL     1       2.113   3.009  17.884  0.00  0.00    +0.000 C 
ATOM      6  C   UNL     1       1.258   2.262  18.913  0.00  0.00    +0.000 C 
ATOM      7  C   UNL     1       1.308   2.781  20.354  0.00  0.00    +0.000 C 
ATOM      8  C   UNL     1       1.001   4.278  20.574  0.00  0.00    +0.000 C 
ATOM      9  C   UNL     1       2.134   5.172  20.046  0.00  0.00    +0.000 C 
ENDBRANCH   1   3
BRANCH   1  10
ATOM     10  C   UNL     1       4.481   5.631  19.114  0.00  0.00    +0.000 C 
BRANCH  10  12
ATOM     11  O   UNL     1       5.645   3.592  19.398  0.00  0.00    +0.000 OA
ATOM     12  C   UNL     1       5.384   4.523  18.648  0.00  0.00    +0.000 C 
BRANCH  12  13
ATOM     13  C   UNL     1       5.921   4.534  17.269  0.00  0.00    +0.000 A 
ATOM     14  C   UNL     1       7.126   5.105  16.860  0.00  0.00    +0.000 A 
ATOM     15  C   UNL     1       7.384   4.935  15.497  0.00  0.00    +0.000 A 
ATOM     16  C   UNL     1       6.390   4.237  14.827  0.00  0.00    +0.000 A 
ATOM     17  S   UNL     1       5.189   3.825  15.930  0.00  0.00    +0.000 S 
ENDBRANCH  12  13
ENDBRANCH  10  12
ENDBRANCH   1  10
TORSDOF 4
ENDMDL
MODEL 3
REMARK VINA RESULT:      -6.4      2.189      3.127
REMARK  Name = 
REMARK  4 active torsions:
REMARK  status: ('A' for Active; 'I' for Inactive)
REMARK    1  A    between atoms: C_2  and  C_3
REMARK    2  A    between atoms: C_2  and  C_12
REMARK    3  A    between atoms: C_3  and  N_4
REMARK    4  A    between atoms: N_4  and  C_5
REMARK                            x       y       z     vdW  Elec       q    Type
REMARK                         _______ _______ _______ _____ _____    ______ ____
ROOT
ATOM      1  N   UNL     1       4.539   2.999  17.592  0.00  0.00    +0.000 NA
ATOM      2  H   UNL     1       5.205   3.409  18.288  0.00  0.00    +0.000 HD
ENDROOT
BRANCH   1   3
ATOM      3  C   UNL     1       3.532   2.200  18.337  0.00  0.00    +0.000 C 
ATOM      4  C   UNL     1       3.760   2.281  19.864  0.00  0.00    +0.000 C 
ATOM      5  C   UNL     1       3.274   3.566  20.535  0.00  0.00    +0.000 C 
ATOM      6  C   UNL     1       1.819   3.420  20.995  0.00  0.00    +0.000 C 
ATOM      7  C   UNL     1       0.755   3.342  19.895  0.00  0.00    +0.000 C 
ATOM      8  C   UNL     1       0.950   2.269  18.802  0.00  0.00    +0.000 C 
ATOM      9  C   UNL     1       2.118   2.618  17.867  0.00  0.00    +0.000 C 
ENDBRANCH   1   3
BRANCH   1  10
ATOM     10  C   UNL     1       3.933   4.149  16.895  0.00  0.00    +0.000 C 
BRANCH  10  12
ATOM     11  O   UNL     1       3.220   6.082  18.058  0.00  0.00    +0.000 OA
ATOM     12  C   UNL     1       4.169   5.444  17.622  0.00  0.00    +0.000 C 
BRANCH  12  13
ATOM     13  C   UNL     1       5.549   5.927  17.849  0.00  0.00    +0.000 A 
ATOM     14  C   UNL     1       6.223   6.881  17.087  0.00  0.00    +0.000 A 
ATOM     15  C   UNL     1       7.510   7.157  17.557  0.00  0.00    +0.000 A 
ATOM     16  C   UNL     1       7.858   6.424  18.683  0.00  0.00    +0.000 A 
ATOM     17  S   UNL     1       6.563   5.435  19.098  0.00  0.00    +0.000 S 
ENDBRANCH  12  13
ENDBRANCH  10  12
ENDBRANCH   1  10
TORSDOF 4
ENDMDL
MODEL 4
REMARK VINA RESULT:      -6.3      1.298      1.607
REMARK  Name = 
REMARK  4 active torsions:
REMARK  status: ('A' for Active; 'I' for Inactive)
REMARK    1  A    between atoms: C_2  and  C_3
REMARK    2  A    between atoms: C_2  and  C_12
REMARK    3  A    between atoms: C_3  and  N_4
REMARK    4  A    between atoms: N_4  and  C_5
REMARK                            x       y       z     vdW  Elec       q    Type
REMARK                         _______ _______ _______ _____ _____    ______ ____
ROOT
ATOM      1  N   UNL     1       4.917   4.558  19.275  0.00  0.00    +0.000 NA
ATOM      2  H   UNL     1       5.203   4.574  20.283  0.00  0.00    +0.000 HD
ENDROOT
BRANCH   1   3
ATOM      3  C   UNL     1       3.486   4.951  19.200  0.00  0.00    +0.000 C 
ATOM      4  C   UNL     1       2.796   4.349  17.954  0.00  0.00    +0.000 C 
ATOM      5  C   UNL     1       2.411   2.873  18.062  0.00  0.00    +0.000 C 
ATOM      6  C   UNL     1       0.996   2.722  18.630  0.00  0.00    +0.000 C 
ATOM      7  C   UNL     1       0.803   3.098  20.103  0.00  0.00    +0.000 C 
ATOM      8  C   UNL     1       1.272   4.503  20.539  0.00  0.00    +0.000 C 
ATOM      9  C   UNL     1       2.805   4.610  20.549  0.00  0.00    +0.000 C 
ENDBRANCH   1   3
BRANCH   1  10
ATOM     10  C   UNL     1       5.797   5.526  18.595  0.00  0.00    +0.000 C 
BRANCH  10  12
ATOM     11  O   UNL     1       7.884   4.443  18.335  0.00  0.00    +0.000 OA
ATOM     12  C   UNL     1       6.869   4.851  17.785  0.00  0.00    +0.000 C 
BRANCH  12  13
ATOM     13  C   UNL     1       6.680   4.640  16.333  0.00  0.00    +0.000 A 
ATOM     14  C   UNL     1       7.429   5.226  15.313  0.00  0.00    +0.000 A 
ATOM     15  C   UNL     1       7.038   4.817  14.035  0.00  0.00    +0.000 A 
ATOM     16  C   UNL     1       5.984   3.914  14.040  0.00  0.00    +0.000 A 
ATOM     17  S   UNL     1       5.539   3.620  15.635  0.00  0.00    +0.000 S 
ENDBRANCH  12  13
ENDBRANCH  10  12
ENDBRANCH   1  10
TORSDOF 4
ENDMDL
MODEL 5
REMARK VINA RESULT:      -6.3      1.239      1.298
REMARK  Name = 
REMARK  4 active torsions:
REMARK  status: ('A' for Active; 'I' for Inactive)
REMARK    1  A    between atoms: C_2  and  C_3
REMARK    2  A    between atoms: C_2  and  C_12
REMARK    3  A    between atoms: C_3  and  N_4
REMARK    4  A    between atoms: N_4  and  C_5
REMARK                            x       y       z     vdW  Elec       q    Type
REMARK                         _______ _______ _______ _____ _____    ______ ____
ROOT
ATOM      1  N   UNL     1       4.929   4.260  18.978  0.00  0.00    +0.000 NA
ATOM      2  H   UNL     1       5.011   3.516  19.710  0.00  0.00    +0.000 HD
ENDROOT
BRANCH   1   3
ATOM      3  C   UNL     1       3.511   4.701  18.931  0.00  0.00    +0.000 C 
ATOM      4  C   UNL     1       2.730   3.985  17.805  0.00  0.00    +0.000 C 
ATOM      5  C   UNL     1       2.299   2.550  18.112  0.00  0.00    +0.000 C 
ATOM      6  C   UNL     1       0.914   2.528  18.768  0.00  0.00    +0.000 C 
ATOM      7  C   UNL     1       0.820   3.085  20.192  0.00  0.00    +0.000 C 
ATOM      8  C   UNL     1       1.363   4.511  20.429  0.00  0.00    +0.000 C 
ATOM      9  C   UNL     1       2.897   4.553  20.345  0.00  0.00    +0.000 C 
ENDBRANCH   1   3
BRANCH   1  10
ATOM     10  C   UNL     1       5.836   5.341  19.405  0.00  0.00    +0.000 C 
BRANCH  10  12
ATOM     11  O   UNL     1       7.696   6.516  18.538  0.00  0.00    +0.000 OA
ATOM     12  C   UNL     1       6.726   5.814  18.289  0.00  0.00    +0.000 C 
BRANCH  12  13
ATOM     13  C   UNL     1       6.456   5.394  16.896  0.00  0.00    +0.000 A 
ATOM     14  C   UNL     1       7.078   4.347  16.217  0.00  0.00    +0.000 A 
ATOM     15  C   UNL     1       6.598   4.168  14.917  0.00  0.00    +0.000 A 
ATOM     16  C   UNL     1       5.603   5.069  14.564  0.00  0.00    +0.000 A 
ATOM     17  S   UNL     1       5.316   6.088  15.871  0.00  0.00    +0.000 S 
ENDBRANCH  12  13
ENDBRANCH  10  12
ENDBRANCH   1  10
TORSDOF 4
ENDMDL
MODEL 6
REMARK VINA RESULT:      -6.2      1.986      2.646
REMARK  Name = 
REMARK  4 active torsions:
REMARK  status: ('A' for Active; 'I' for Inactive)
REMARK    1  A    between atoms: C_2  and  C_3
REMARK    2  A    between atoms: C_2  and  C_12
REMARK    3  A    between atoms: C_3  and  N_4
REMARK    4  A    between atoms: N_4  and  C_5
REMARK                            x       y       z     vdW  Elec       q    Type
REMARK                         _______ _______ _______ _____ _____    ______ ____
ROOT
ATOM      1  N   UNL     1       4.435   4.098  17.888  0.00  0.00    +0.000 NA
ATOM      2  H   UNL     1       5.211   4.570  18.410  0.00  0.00    +0.000 HD
ENDROOT
BRANCH   1   3
ATOM      3  C   UNL     1       3.151   4.692  18.341  0.00  0.00    +0.000 C 
ATOM      4  C   UNL     1       1.938   3.953  17.733  0.00  0.00    +0.000 C 
ATOM      5  C   UNL     1       1.581   2.619  18.392  0.00  0.00    +0.000 C 
ATOM      6  C   UNL     1       0.585   2.829  19.536  0.00  0.00    +0.000 C 
ATOM      7  C   UNL     1       1.112   3.545  20.784  0.00  0.00    +0.000 C 
ATOM      8  C   UNL     1       1.791   4.916  20.575  0.00  0.00    +0.000 C 
ATOM      9  C   UNL     1       3.157   4.772  19.887  0.00  0.00    +0.000 C 
ENDBRANCH   1   3
BRANCH   1  10
ATOM     10  C   UNL     1       4.699   4.361  16.461  0.00  0.00    +0.000 C 
BRANCH  10  12
ATOM     11  O   UNL     1       6.728   4.074  15.280  0.00  0.00    +0.000 OA
ATOM     12  C   UNL     1       6.151   4.648  16.193  0.00  0.00    +0.000 C 
BRANCH  12  13
ATOM     13  C   UNL     1       6.871   5.655  17.004  0.00  0.00    +0.000 A 
ATOM     14  C   UNL     1       6.974   7.017  16.721  0.00  0.00    +0.000 A 
ATOM     15  C   UNL     1       7.696   7.728  17.683  0.00  0.00    +0.000 A 
ATOM     16  C   UNL     1       8.166   6.937  18.722  0.00  0.00    +0.000 A 
ATOM     17  S   UNL     1       7.681   5.350  18.446  0.00  0.00    +0.000 S 
ENDBRANCH  12  13
ENDBRANCH  10  12
ENDBRANCH   1  10
TORSDOF 4
ENDMDL
MODEL 7
REMARK VINA RESULT:      -6.2      2.071      2.818
REMARK  Name = 
REMARK  4 active torsions:
REMARK  status: ('A' for Active; 'I' for Inactive)
REMARK    1  A    between atoms: C_2  and  C_3
REMARK    2  A    between atoms: C_2  and  C_12
REMARK    3  A    between atoms: C_3  and  N_4
REMARK    4  A    between atoms: N_4  and  C_5
REMARK                            x       y       z     vdW  Elec       q    Type
REMARK                         _______ _______ _______ _____ _____    ______ ____
ROOT
ATOM      1  N   UNL     1       5.216   4.974  17.638  0.00  0.00    +0.000 NA
ATOM      2  H   UNL     1       5.179   5.962  17.294  0.00  0.00    +0.000 HD
ENDROOT
BRANCH   1   3
ATOM      3  C   UNL     1       3.973   4.290  17.198  0.00  0.00    +0.000 C 
ATOM      4  C   UNL     1       4.015   2.777  17.514  0.00  0.00    +0.000 C 
ATOM      5  C   UNL     1       3.736   2.400  18.971  0.00  0.00    +0.000 C 
ATOM      6  C   UNL     1       2.238   2.168  19.193  0.00  0.00    +0.000 C 
ATOM      7  C   UNL     1       1.333   3.402  19.118  0.00  0.00    +0.000 C 
ATOM      8  C   UNL     1       1.429   4.270  17.845  0.00  0.00    +0.000 C 
ATOM      9  C   UNL     1       2.755   5.044  17.785  0.00  0.00    +0.000 C 
ENDBRANCH   1   3
BRANCH   1  10
ATOM     10  C   UNL     1       6.423   4.385  17.028  0.00  0.00    +0.000 C 
BRANCH  10  12
ATOM     11  O   UNL     1       7.479   6.273  16.072  0.00  0.00    +0.000 OA
ATOM     12  C   UNL     1       6.931   5.198  15.870  0.00  0.00    +0.000 C 
BRANCH  12  13
ATOM     13  C   UNL     1       6.808   4.681  14.488  0.00  0.00    +0.000 A 
ATOM     14  C   UNL     1       5.834   3.797  14.025  0.00  0.00    +0.000 A 
ATOM     15  C   UNL     1       5.954   3.507  12.663  0.00  0.00    +0.000 A 
ATOM     16  C   UNL     1       7.018   4.153  12.049  0.00  0.00    +0.000 A 
ATOM     17  S   UNL     1       7.809   5.091  13.200  0.00  0.00    +0.000 S 
ENDBRANCH  12  13
ENDBRANCH  10  12
ENDBRANCH   1  10
TORSDOF 4
ENDMDL
MODEL 8
REMARK VINA RESULT:      -6.1      2.741      5.887
REMARK  Name = 
REMARK  4 active torsions:
REMARK  status: ('A' for Active; 'I' for Inactive)
REMARK    1  A    between atoms: C_2  and  C_3
REMARK    2  A    between atoms: C_2  and  C_12
REMARK    3  A    between atoms: C_3  and  N_4
REMARK    4  A    between atoms: N_4  and  C_5
REMARK                            x       y       z     vdW  Elec       q    Type
REMARK                         _______ _______ _______ _____ _____    ______ ____
ROOT
ATOM      1  N   UNL     1       3.914   5.708  18.819  0.00  0.00    +0.000 NA
ATOM      2  H   UNL     1       3.707   5.050  19.608  0.00  0.00    +0.000 HD
ENDROOT
BRANCH   1   3
ATOM      3  C   UNL     1       5.225   5.324  18.235  0.00  0.00    +0.000 C 
ATOM      4  C   UNL     1       5.548   6.153  16.971  0.00  0.00    +0.000 C 
ATOM      5  C   UNL     1       6.050   7.575  17.226  0.00  0.00    +0.000 C 
ATOM      6  C   UNL     1       7.578   7.596  17.347  0.00  0.00    +0.000 C 
ATOM      7  C   UNL     1       8.178   6.935  18.592  0.00  0.00    +0.000 C 
ATOM      8  C   UNL     1       7.764   5.477  18.883  0.00  0.00    +0.000 C 
ATOM      9  C   UNL     1       6.302   5.384  19.346  0.00  0.00    +0.000 C 
ENDBRANCH   1   3
BRANCH   1  10
ATOM     10  C   UNL     1       2.806   5.541  17.860  0.00  0.00    +0.000 C 
BRANCH  10  12
ATOM     11  O   UNL     1       1.353   3.786  17.225  0.00  0.00    +0.000 OA
ATOM     12  C   UNL     1       2.005   4.296  18.126  0.00  0.00    +0.000 C 
BRANCH  12  13
ATOM     13  C   UNL     1       2.040   3.662  19.463  0.00  0.00    +0.000 A 
ATOM     14  C   UNL     1       1.062   3.773  20.451  0.00  0.00    +0.000 A 
ATOM     15  C   UNL     1       1.356   3.040  21.604  0.00  0.00    +0.000 A 
ATOM     16  C   UNL     1       2.560   2.353  21.534  0.00  0.00    +0.000 A 
ATOM     17  S   UNL     1       3.260   2.654  20.034  0.00  0.00    +0.000 S 
ENDBRANCH  12  13
ENDBRANCH  10  12
ENDBRANCH   1  10
TORSDOF 4
ENDMDL
MODEL 9
REMARK VINA RESULT:      -6.1      1.989      3.157
REMARK  Name = 
REMARK  4 active torsions:
REMARK  status: ('A' for Active; 'I' for Inactive)
REMARK    1  A    between atoms: C_2  and  C_3
REMARK    2  A    between atoms: C_2  and  C_12
REMARK    3  A    between atoms: C_3  and  N_4
REMARK    4  A    between atoms: N_4  and  C_5
REMARK                            x       y       z     vdW  Elec       q    Type
REMARK                         _______ _______ _______ _____ _____    ______ ____
ROOT
ATOM      1  N   UNL     1       4.087   4.461  16.982  0.00  0.00    +0.000 NA
ATOM      2  H   UNL     1       3.196   4.412  16.433  0.00  0.00    +0.000 HD
ENDROOT
BRANCH   1   3
ATOM      3  C   UNL     1       3.839   3.846  18.311  0.00  0.00    +0.000 C 
ATOM      4  C   UNL     1       3.979   4.880  19.451  0.00  0.00    +0.000 C 
ATOM      5  C   UNL     1       2.788   5.821  19.637  0.00  0.00    +0.000 C 
ATOM      6  C   UNL     1       1.774   5.224  20.618  0.00  0.00    +0.000 C 
ATOM      7  C   UNL     1       0.997   3.993  20.139  0.00  0.00    +0.000 C 
ATOM      8  C   UNL     1       1.823   2.796  19.624  0.00  0.00    +0.000 C 
ATOM      9  C   UNL     1       2.482   3.102  18.270  0.00  0.00    +0.000 C 
ENDBRANCH   1   3
BRANCH   1  10
ATOM     10  C   UNL     1       5.082   3.708  16.195  0.00  0.00    +0.000 C 
BRANCH  10  12
ATOM     11  O   UNL     1       6.705   4.540  14.690  0.00  0.00    +0.000 OA
ATOM     12  C   UNL     1       6.277   4.546  15.836  0.00  0.00    +0.000 C 
BRANCH  12  13
ATOM     13  C   UNL     1       6.911   5.411  16.855  0.00  0.00    +0.000 A 
ATOM     14  C   UNL     1       7.008   6.802  16.808  0.00  0.00    +0.000 A 
ATOM     15  C   UNL     1       7.638   7.351  17.929  0.00  0.00    +0.000 A 
ATOM     16  C   UNL     1       8.042   6.403  18.858  0.00  0.00    +0.000 A 
ATOM     17  S   UNL     1       7.612   4.879  18.289  0.00  0.00    +0.000 S 
ENDBRANCH  12  13
ENDBRANCH  10  12
ENDBRANCH   1  10
TORSDOF 4
ENDMDL
