MODEL 1
REMARK VINA RESULT:      -6.8      0.000      0.000
REMARK  Name = 
REMARK  11 active torsions:
REMARK  status: ('A' for Active; 'I' for Inactive)
REMARK    1  A    between atoms: C_2  and  O_3
REMARK    2  A    between atoms: C_2  and  C_4
REMARK    3  A    between atoms: C_4  and  N_5
REMARK    4  A    between atoms: C_8  and  N_9
REMARK    5  A    between atoms: N_9  and  CA_10
REMARK    6  A    between atoms: CA_10  and  C_11
REMARK    7  A    between atoms: CA_10  and  C_19
REMARK    8  A    between atoms: C_11  and  C_12
REMARK    9  A    between atoms: C_12  and  C_13
REMARK   10  A    between atoms: C_19  and  OXT_21
REMARK   11  A    between atoms: C_25  and  C_26
REMARK                            x       y       z     vdW  Elec       q    Type
REMARK                         _______ _______ _______ _____ _____    ______ ____
ROOT
ATOM      1  N   UNL     1       1.069   9.000  20.284  0.00  0.00    +0.000 N 
ATOM      2  C   UNL     1       1.192   7.641  20.564  0.00  0.00    +0.000 C 
ATOM      3  O   UNL     1       0.621   7.119  21.517  0.00  0.00    +0.000 OA
ATOM      4  C   UNL     1       2.425   6.997  19.866  0.00  0.00    +0.000 C 
ATOM      5  C   UNL     1       2.196   6.692  18.388  0.00  0.00    +0.000 C 
ATOM      6  S   UNL     1       2.896   7.992  17.307  0.00  0.00    +0.000 S 
ATOM      7  C   UNL     1       2.374   9.519  18.190  0.00  0.00    +0.000 C 
ATOM      8  C   UNL     1       0.978   9.444  18.854  0.00  0.00    +0.000 C 
ENDROOT
BRANCH   8   9
ATOM      9  C   UNL     1       0.230  10.751  18.650  0.00  0.00    +0.000 A 
ATOM     10  C   UNL     1       0.707  12.055  18.669  0.00  0.00    +0.000 A 
ATOM     11  C   UNL     1      -0.307  13.015  18.393  0.00  0.00    +0.000 A 
ATOM     12  C   UNL     1      -1.519  12.422  18.130  0.00  0.00    +0.000 A 
ATOM     13  S   UNL     1      -1.445  10.721  18.258  0.00  0.00    +0.000 S 
ENDBRANCH   8   9
BRANCH   4  14
ATOM     14  N   UNL     1       2.916   5.840  20.664  0.00  0.00    +0.000 NA
ATOM     15  H   UNL     1       3.933   5.937  20.789  0.00  0.00    +0.000 HD
BRANCH  14  16
ATOM     16  CA  UNL     1       2.634   4.529  20.005  0.00  0.00    +0.000 C 
BRANCH  16  17
ATOM     17  C   UNL     1       1.810   3.672  20.988  0.00  0.00    +0.000 C 
ATOM     18  O   UNL     1       2.234   3.179  22.022  0.00  0.00    +0.000 OA
BRANCH  17  19
ATOM     19  OXT UNL     1       0.536   3.470  20.605  0.00  0.00    +0.000 OA
ATOM     20  HXT UNL     1      -0.002   4.285  20.654  0.00  0.00    +0.000 HD
ENDBRANCH  17  19
ENDBRANCH  16  17
BRANCH  16  21
ATOM     21  C   UNL     1       3.888   3.756  19.540  0.00  0.00    +0.000 C 
BRANCH  21  22
ATOM     22  C   UNL     1       3.866   3.354  18.058  0.00  0.00    +0.000 C 
BRANCH  22  23
ATOM     23  C   UNL     1       4.950   4.002  17.243  0.00  0.00    +0.000 A 
ATOM     24  C   UNL     1       4.822   4.147  15.857  0.00  0.00    +0.000 A 
ATOM     25  C   UNL     1       5.849   4.739  15.119  0.00  0.00    +0.000 A 
ATOM     26  C   UNL     1       6.998   5.188  15.765  0.00  0.00    +0.000 A 
ATOM     27  C   UNL     1       7.118   5.074  17.146  0.00  0.00    +0.000 A 
ATOM     28  C   UNL     1       6.092   4.489  17.887  0.00  0.00    +0.000 A 
ENDBRANCH  22  23
ENDBRANCH  21  22
ENDBRANCH  16  21
ENDBRANCH  14  16
ENDBRANCH   4  14
BRANCH   1  29
ATOM     29  C   UNL     1       0.672   9.905  21.381  0.00  0.00    +0.000 C 
BRANCH  29  31
ATOM     30  O   UNL     1       0.269   9.702  23.769  0.00  0.00    +0.000 OA
ATOM     31  C   UNL     1       1.100   9.655  22.833  0.00  0.00    +0.000 C 
BRANCH  31  32
ATOM     32  O   UNL     1       2.368   9.306  23.086  0.00  0.00    +0.000 OA
ATOM     33  H   UNL     1       2.923   9.274  22.275  0.00  0.00    +0.000 HD
ENDBRANCH  31  32
ENDBRANCH  29  31
ENDBRANCH   1  29
TORSDOF 11
ENDMDL
MODEL 2
REMARK VINA RESULT:      -6.8      0.986      1.442
REMARK  Name = 
REMARK  11 active torsions:
REMARK  status: ('A' for Active; 'I' for Inactive)
REMARK    1  A    between atoms: C_2  and  O_3
REMARK    2  A    between atoms: C_2  and  C_4
REMARK    3  A    between atoms: C_4  and  N_5
REMARK    4  A    between atoms: C_8  and  N_9
REMARK    5  A    between atoms: N_9  and  CA_10
REMARK    6  A    between atoms: CA_10  and  C_11
REMARK    7  A    between atoms: CA_10  and  C_19
REMARK    8  A    between atoms: C_11  and  C_12
REMARK    9  A    between atoms: C_12  and  C_13
REMARK   10  A    between atoms: C_19  and  OXT_21
REMARK   11  A    between atoms: C_25  and  C_26
REMARK                            x       y       z     vdW  Elec       q    Type
REMARK                         _______ _______ _______ _____ _____    ______ ____
ROOT
ATOM      1  N   UNL     1       0.962   8.896  20.228  0.00  0.00    +0.000 N 
ATOM      2  C   UNL     1       1.148   7.534  20.449  0.00  0.00    +0.000 C 
ATOM      3  O   UNL     1       0.564   6.934  21.347  0.00  0.00    +0.000 OA
ATOM      4  C   UNL     1       2.449   6.994  19.785  0.00  0.00    +0.000 C 
ATOM      5  C   UNL     1       2.307   6.751  18.284  0.00  0.00    +0.000 C 
ATOM      6  S   UNL     1       2.983   8.141  17.302  0.00  0.00    +0.000 S 
ATOM      7  C   UNL     1       2.333   9.591  18.229  0.00  0.00    +0.000 C 
ATOM      8  C   UNL     1       0.914   9.406  18.818  0.00  0.00    +0.000 C 
ENDROOT
BRANCH   8   9
ATOM      9  C   UNL     1       0.103  10.679  18.640  0.00  0.00    +0.000 A 
ATOM     10  C   UNL     1      -1.258  10.836  18.416  0.00  0.00    +0.000 A 
ATOM     11  C   UNL     1      -1.649  12.203  18.344  0.00  0.00    +0.000 A 
ATOM     12  C   UNL     1      -0.589  13.053  18.556  0.00  0.00    +0.000 A 
ATOM     13  S   UNL     1       0.876  12.208  18.797  0.00  0.00    +0.000 S 
ENDBRANCH   8   9
BRANCH   4  14
ATOM     14  N   UNL     1       2.966   5.827  20.550  0.00  0.00    +0.000 NA
ATOM     15  H   UNL     1       3.989   5.911  20.623  0.00  0.00    +0.000 HD
BRANCH  14  16
ATOM     16  CA  UNL     1       2.635   4.523  19.900  0.00  0.00    +0.000 C 
BRANCH  16  17
ATOM     17  C   UNL     1       1.750   3.719  20.875  0.00  0.00    +0.000 C 
ATOM     18  O   UNL     1       2.087   3.339  21.986  0.00  0.00    +0.000 OA
BRANCH  17  19
ATOM     19  OXT UNL     1       0.528   3.424  20.392  0.00  0.00    +0.000 OA
ATOM     20  HXT UNL     1       0.089   4.201  19.993  0.00  0.00    +0.000 HD
ENDBRANCH  17  19
ENDBRANCH  16  17
BRANCH  16  21
ATOM     21  C   UNL     1       3.859   3.685  19.470  0.00  0.00    +0.000 C 
BRANCH  21  22
ATOM     22  C   UNL     1       4.417   4.049  18.087  0.00  0.00    +0.000 C 
BRANCH  22  23
ATOM     23  C   UNL     1       5.597   4.978  18.140  0.00  0.00    +0.000 A 
ATOM     24  C   UNL     1       5.900   5.822  17.066  0.00  0.00    +0.000 A 
ATOM     25  C   UNL     1       7.010   6.667  17.133  0.00  0.00    +0.000 A 
ATOM     26  C   UNL     1       7.812   6.670  18.271  0.00  0.00    +0.000 A 
ATOM     27  C   UNL     1       7.499   5.855  19.353  0.00  0.00    +0.000 A 
ATOM     28  C   UNL     1       6.388   5.016  19.294  0.00  0.00    +0.000 A 
ENDBRANCH  22  23
ENDBRANCH  21  22
ENDBRANCH  16  21
ENDBRANCH  14  16
ENDBRANCH   4  14
BRANCH   1  29
ATOM     29  C   UNL     1       0.462   9.722  21.346  0.00  0.00    +0.000 C 
BRANCH  29  31
ATOM     30  O   UNL     1       2.214   9.454  23.009  0.00  0.00    +0.000 OA
ATOM     31  C   UNL     1       0.986   9.550  22.777  0.00  0.00    +0.000 C 
BRANCH  31  32
ATOM     32  O   UNL     1       0.117   9.581  23.796  0.00  0.00    +0.000 OA
ATOM     33  H   UNL     1      -0.285  10.469  23.927  0.00  0.00    +0.000 HD
ENDBRANCH  31  32
ENDBRANCH  29  31
ENDBRANCH   1  29
TORSDOF 11
ENDMDL
MODEL 3
REMARK VINA RESULT:      -6.7      1.528      1.888
REMARK  Name = 
REMARK  11 active torsions:
REMARK  status: ('A' for Active; 'I' for Inactive)
REMARK    1  A    between atoms: C_2  and  O_3
REMARK    2  A    between atoms: C_2  and  C_4
REMARK    3  A    between atoms: C_4  and  N_5
REMARK    4  A    between atoms: C_8  and  N_9
REMARK    5  A    between atoms: N_9  and  CA_10
REMARK    6  A    between atoms: CA_10  and  C_11
REMARK    7  A    between atoms: CA_10  and  C_19
REMARK    8  A    between atoms: C_11  and  C_12
REMARK    9  A    between atoms: C_12  and  C_13
REMARK   10  A    between atoms: C_19  and  OXT_21
REMARK   11  A    between atoms: C_25  and  C_26
REMARK                            x       y       z     vdW  Elec       q    Type
REMARK                         _______ _______ _______ _____ _____    ______ ____
ROOT
ATOM      1  N   UNL     1       0.984   9.482  20.768  0.00  0.00    +0.000 N 
ATOM      2  C   UNL     1       1.173   8.103  20.809  0.00  0.00    +0.000 C 
ATOM      3  O   UNL     1       0.818   7.425  21.769  0.00  0.00    +0.000 OA
ATOM      4  C   UNL     1       2.239   7.617  19.784  0.00  0.00    +0.000 C 
ATOM      5  C   UNL     1       1.709   7.521  18.356  0.00  0.00    +0.000 C 
ATOM      6  S   UNL     1       2.158   8.992  17.362  0.00  0.00    +0.000 S 
ATOM      7  C   UNL     1       1.819  10.352  18.554  0.00  0.00    +0.000 C 
ATOM      8  C   UNL     1       0.593  10.126  19.471  0.00  0.00    +0.000 C 
ENDROOT
BRANCH   8   9
ATOM      9  C   UNL     1      -0.192  11.419  19.625  0.00  0.00    +0.000 A 
ATOM     10  C   UNL     1      -1.565  11.622  19.650  0.00  0.00    +0.000 A 
ATOM     11  C   UNL     1      -1.915  12.987  19.855  0.00  0.00    +0.000 A 
ATOM     12  C   UNL     1      -0.806  13.783  20.022  0.00  0.00    +0.000 A 
ATOM     13  S   UNL     1       0.648  12.897  19.890  0.00  0.00    +0.000 S 
ENDBRANCH   8   9
BRANCH   4  14
ATOM     14  N   UNL     1       2.894   6.376  20.281  0.00  0.00    +0.000 NA
ATOM     15  H   UNL     1       3.910   6.463  20.137  0.00  0.00    +0.000 HD
BRANCH  14  16
ATOM     16  CA  UNL     1       2.411   5.151  19.575  0.00  0.00    +0.000 C 
BRANCH  16  17
ATOM     17  C   UNL     1       1.708   4.252  20.614  0.00  0.00    +0.000 C 
ATOM     18  O   UNL     1       2.172   3.927  21.697  0.00  0.00    +0.000 OA
BRANCH  17  19
ATOM     19  OXT UNL     1       0.501   3.803  20.223  0.00  0.00    +0.000 OA
ATOM     20  HXT UNL     1      -0.186   3.937  20.906  0.00  0.00    +0.000 HD
ENDBRANCH  17  19
ENDBRANCH  16  17
BRANCH  16  21
ATOM     21  C   UNL     1       3.508   4.356  18.832  0.00  0.00    +0.000 C 
BRANCH  21  22
ATOM     22  C   UNL     1       4.113   5.093  17.629  0.00  0.00    +0.000 C 
BRANCH  22  23
ATOM     23  C   UNL     1       5.458   5.701  17.910  0.00  0.00    +0.000 A 
ATOM     24  C   UNL     1       5.945   6.764  17.142  0.00  0.00    +0.000 A 
ATOM     25  C   UNL     1       7.204   7.304  17.413  0.00  0.00    +0.000 A 
ATOM     26  C   UNL     1       7.972   6.784  18.451  0.00  0.00    +0.000 A 
ATOM     27  C   UNL     1       7.481   5.748  19.238  0.00  0.00    +0.000 A 
ATOM     28  C   UNL     1       6.223   5.211  18.975  0.00  0.00    +0.000 A 
ENDBRANCH  22  23
ENDBRANCH  21  22
ENDBRANCH  16  21
ENDBRANCH  14  16
ENDBRANCH   4  14
BRANCH   1  29
ATOM     29  C   UNL     1       0.816  10.202  22.047  0.00  0.00    +0.000 C 
BRANCH  29  31
ATOM     30  O   UNL     1      -1.161  11.202  23.045  0.00  0.00    +0.000 OA
ATOM     31  C   UNL     1      -0.500  10.159  22.834  0.00  0.00    +0.000 C 
BRANCH  31  32
ATOM     32  O   UNL     1      -0.982   8.974  23.231  0.00  0.00    +0.000 OA
ATOM     33  H   UNL     1      -1.638   9.055  23.959  0.00  0.00    +0.000 HD
ENDBRANCH  31  32
ENDBRANCH  29  31
ENDBRANCH   1  29
TORSDOF 11
ENDMDL
MODEL 4
REMARK VINA RESULT:      -6.7      0.962      1.462
REMARK  Name = 
REMARK  11 active torsions:
REMARK  status: ('A' for Active; 'I' for Inactive)
REMARK    1  A    between atoms: C_2  and  O_3
REMARK    2  A    between atoms: C_2  and  C_4
REMARK    3  A    between atoms: C_4  and  N_5
REMARK    4  A    between atoms: C_8  and  N_9
REMARK    5  A    between atoms: N_9  and  CA_10
REMARK    6  A    between atoms: CA_10  and  C_11
REMARK    7  A    between atoms: CA_10  and  C_19
REMARK    8  A    between atoms: C_11  and  C_12
REMARK    9  A    between atoms: C_12  and  C_13
REMARK   10  A    between atoms: C_19  and  OXT_21
REMARK   11  A    between atoms: C_25  and  C_26
REMARK                            x       y       z     vdW  Elec       q    Type
REMARK                         _______ _______ _______ _____ _____    ______ ____
ROOT
ATOM      1  N   UNL     1       1.565   8.455  20.338  0.00  0.00    +0.000 N 
ATOM      2  C   UNL     1       1.694   7.086  20.554  0.00  0.00    +0.000 C 
ATOM      3  O   UNL     1       1.244   6.539  21.556  0.00  0.00    +0.000 OA
ATOM      4  C   UNL     1       2.812   6.447  19.677  0.00  0.00    +0.000 C 
ATOM      5  C   UNL     1       2.382   6.199  18.233  0.00  0.00    +0.000 C 
ATOM      6  S   UNL     1       2.961   7.525  17.112  0.00  0.00    +0.000 S 
ATOM      7  C   UNL     1       2.592   9.028  18.107  0.00  0.00    +0.000 C 
ATOM      8  C   UNL     1       1.295   8.951  18.948  0.00  0.00    +0.000 C 
ENDROOT
BRANCH   8   9
ATOM      9  C   UNL     1       0.554  10.277  18.889  0.00  0.00    +0.000 A 
ATOM     10  C   UNL     1      -0.810  10.530  18.924  0.00  0.00    +0.000 A 
ATOM     11  C   UNL     1      -1.114  11.921  18.887  0.00  0.00    +0.000 A 
ATOM     12  C   UNL     1       0.023  12.694  18.868  0.00  0.00    +0.000 A 
ATOM     13  S   UNL     1       1.445  11.749  18.851  0.00  0.00    +0.000 S 
ENDBRANCH   8   9
BRANCH   4  14
ATOM     14  N   UNL     1       3.379   5.254  20.364  0.00  0.00    +0.000 NA
ATOM     15  H   UNL     1       4.398   5.246  20.217  0.00  0.00    +0.000 HD
BRANCH  14  16
ATOM     16  CA  UNL     1       2.807   3.972  19.851  0.00  0.00    +0.000 C 
BRANCH  16  17
ATOM     17  C   UNL     1       2.025   3.308  21.004  0.00  0.00    +0.000 C 
ATOM     18  O   UNL     1       2.515   2.899  22.046  0.00  0.00    +0.000 OA
BRANCH  17  19
ATOM     19  OXT UNL     1       0.707   3.176  20.768  0.00  0.00    +0.000 OA
ATOM     20  HXT UNL     1       0.442   2.244  20.641  0.00  0.00    +0.000 HD
ENDBRANCH  17  19
ENDBRANCH  16  17
BRANCH  16  21
ATOM     21  C   UNL     1       3.846   2.987  19.270  0.00  0.00    +0.000 C 
BRANCH  21  22
ATOM     22  C   UNL     1       3.959   3.024  17.739  0.00  0.00    +0.000 C 
BRANCH  22  23
ATOM     23  C   UNL     1       5.015   3.967  17.236  0.00  0.00    +0.000 A 
ATOM     24  C   UNL     1       6.023   4.441  18.085  0.00  0.00    +0.000 A 
ATOM     25  C   UNL     1       6.985   5.328  17.599  0.00  0.00    +0.000 A 
ATOM     26  C   UNL     1       6.943   5.737  16.269  0.00  0.00    +0.000 A 
ATOM     27  C   UNL     1       5.963   5.247  15.413  0.00  0.00    +0.000 A 
ATOM     28  C   UNL     1       5.004   4.356  15.893  0.00  0.00    +0.000 A 
ENDBRANCH  22  23
ENDBRANCH  21  22
ENDBRANCH  16  21
ENDBRANCH  14  16
ENDBRANCH   4  14
BRANCH   1  29
ATOM     29  C   UNL     1       1.335   9.327  21.508  0.00  0.00    +0.000 C 
BRANCH  29  31
ATOM     30  O   UNL     1      -0.902   8.516  22.003  0.00  0.00    +0.000 OA
ATOM     31  C   UNL     1       0.081   9.195  22.382  0.00  0.00    +0.000 C 
BRANCH  31  32
ATOM     32  O   UNL     1       0.075   9.753  23.599  0.00  0.00    +0.000 OA
ATOM     33  H   UNL     1       0.335  10.701  23.584  0.00  0.00    +0.000 HD
ENDBRANCH  31  32
ENDBRANCH  29  31
ENDBRANCH   1  29
TORSDOF 11
ENDMDL
MODEL 5
REMARK VINA RESULT:      -6.7      0.899      1.165
REMARK  Name = 
REMARK  11 active torsions:
REMARK  status: ('A' for Active; 'I' for Inactive)
REMARK    1  A    between atoms: C_2  and  O_3
REMARK    2  A    between atoms: C_2  and  C_4
REMARK    3  A    between atoms: C_4  and  N_5
REMARK    4  A    between atoms: C_8  and  N_9
REMARK    5  A    between atoms: N_9  and  CA_10
REMARK    6  A    between atoms: CA_10  and  C_11
REMARK    7  A    between atoms: CA_10  and  C_19
REMARK    8  A    between atoms: C_11  and  C_12
REMARK    9  A    between atoms: C_12  and  C_13
REMARK   10  A    between atoms: C_19  and  OXT_21
REMARK   11  A    between atoms: C_25  and  C_26
REMARK                            x       y       z     vdW  Elec       q    Type
REMARK                         _______ _______ _______ _____ _____    ______ ____
ROOT
ATOM      1  N   UNL     1       1.402   8.692  20.285  0.00  0.00    +0.000 N 
ATOM      2  C   UNL     1       1.482   7.321  20.517  0.00  0.00    +0.000 C 
ATOM      3  O   UNL     1       0.948   6.793  21.488  0.00  0.00    +0.000 OA
ATOM      4  C   UNL     1       2.642   6.649  19.725  0.00  0.00    +0.000 C 
ATOM      5  C   UNL     1       2.309   6.401  18.256  0.00  0.00    +0.000 C 
ATOM      6  S   UNL     1       2.998   7.705  17.171  0.00  0.00    +0.000 S 
ATOM      7  C   UNL     1       2.598   9.223  18.130  0.00  0.00    +0.000 C 
ATOM      8  C   UNL     1       1.243   9.185  18.877  0.00  0.00    +0.000 C 
ENDROOT
BRANCH   8   9
ATOM      9  C   UNL     1       0.542  10.528  18.759  0.00  0.00    +0.000 A 
ATOM     10  C   UNL     1       1.067  11.810  18.851  0.00  0.00    +0.000 A 
ATOM     11  C   UNL     1       0.087  12.822  18.642  0.00  0.00    +0.000 A 
ATOM     12  C   UNL     1      -1.149  12.290  18.355  0.00  0.00    +0.000 A 
ATOM     13  S   UNL     1      -1.135  10.582  18.381  0.00  0.00    +0.000 S 
ENDBRANCH   8   9
BRANCH   4  14
ATOM     14  N   UNL     1       3.129   5.448  20.456  0.00  0.00    +0.000 NA
ATOM     15  H   UNL     1       4.158   5.453  20.445  0.00  0.00    +0.000 HD
BRANCH  14  16
ATOM     16  CA  UNL     1       2.647   4.172  19.847  0.00  0.00    +0.000 C 
BRANCH  16  17
ATOM     17  C   UNL     1       1.889   3.383  20.936  0.00  0.00    +0.000 C 
ATOM     18  O   UNL     1       0.736   2.989  20.850  0.00  0.00    +0.000 OA
BRANCH  17  19
ATOM     19  OXT UNL     1       2.605   3.168  22.055  0.00  0.00    +0.000 OA
ATOM     20  HXT UNL     1       3.234   3.893  22.240  0.00  0.00    +0.000 HD
ENDBRANCH  17  19
ENDBRANCH  16  17
BRANCH  16  21
ATOM     21  C   UNL     1       3.754   3.294  19.222  0.00  0.00    +0.000 C 
BRANCH  21  22
ATOM     22  C   UNL     1       5.131   3.971  19.155  0.00  0.00    +0.000 C 
BRANCH  22  23
ATOM     23  C   UNL     1       5.598   4.244  17.754  0.00  0.00    +0.000 A 
ATOM     24  C   UNL     1       4.726   4.123  16.665  0.00  0.00    +0.000 A 
ATOM     25  C   UNL     1       5.187   4.368  15.371  0.00  0.00    +0.000 A 
ATOM     26  C   UNL     1       6.514   4.737  15.164  0.00  0.00    +0.000 A 
ATOM     27  C   UNL     1       7.377   4.889  16.244  0.00  0.00    +0.000 A 
ATOM     28  C   UNL     1       6.919   4.651  17.539  0.00  0.00    +0.000 A 
ENDBRANCH  22  23
ENDBRANCH  21  22
ENDBRANCH  16  21
ENDBRANCH  14  16
ENDBRANCH   4  14
BRANCH   1  29
ATOM     29  C   UNL     1       1.112   9.578  21.431  0.00  0.00    +0.000 C 
BRANCH  29  31
ATOM     30  O   UNL     1      -0.966  10.729  21.946  0.00  0.00    +0.000 OA
ATOM     31  C   UNL     1      -0.291   9.677  22.042  0.00  0.00    +0.000 C 
BRANCH  31  32
ATOM     32  O   UNL     1      -0.827   8.594  22.619  0.00  0.00    +0.000 OA
ATOM     33  H   UNL     1      -0.677   8.566  23.590  0.00  0.00    +0.000 HD
ENDBRANCH  31  32
ENDBRANCH  29  31
ENDBRANCH   1  29
TORSDOF 11
ENDMDL
MODEL 6
REMARK VINA RESULT:      -6.6      1.397      1.864
REMARK  Name = 
REMARK  11 active torsions:
REMARK  status: ('A' for Active; 'I' for Inactive)
REMARK    1  A    between atoms: C_2  and  O_3
REMARK    2  A    between atoms: C_2  and  C_4
REMARK    3  A    between atoms: C_4  and  N_5
REMARK    4  A    between atoms: C_8  and  N_9
REMARK    5  A    between atoms: N_9  and  CA_10
REMARK    6  A    between atoms: CA_10  and  C_11
REMARK    7  A    between atoms: CA_10  and  C_19
REMARK    8  A    between atoms: C_11  and  C_12
REMARK    9  A    between atoms: C_12  and  C_13
REMARK   10  A    between atoms: C_19  and  OXT_21
REMARK   11  A    between atoms: C_25  and  C_26
REMARK                            x       y       z     vdW  Elec       q    Type
REMARK                         _______ _______ _______ _____ _____    ______ ____
ROOT
ATOM      1  N   UNL     1       1.132   9.212  20.841  0.00  0.00    +0.000 N 
ATOM      2  C   UNL     1       1.283   7.828  20.802  0.00  0.00    +0.000 C 
ATOM      3  O   UNL     1       0.905   7.107  21.721  0.00  0.00    +0.000 OA
ATOM      4  C   UNL     1       2.339   7.372  19.754  0.00  0.00    +0.000 C 
ATOM      5  C   UNL     1       1.812   7.374  18.321  0.00  0.00    +0.000 C 
ATOM      6  S   UNL     1       2.306   8.887  17.416  0.00  0.00    +0.000 S 
ATOM      7  C   UNL     1       2.000  10.185  18.682  0.00  0.00    +0.000 C 
ATOM      8  C   UNL     1       0.765   9.940  19.582  0.00  0.00    +0.000 C 
ENDROOT
BRANCH   8   9
ATOM      9  C   UNL     1       0.016  11.244  19.808  0.00  0.00    +0.000 A 
ATOM     10  C   UNL     1      -1.351  11.480  19.857  0.00  0.00    +0.000 A 
ATOM     11  C   UNL     1      -1.664  12.842  20.133  0.00  0.00    +0.000 A 
ATOM     12  C   UNL     1      -0.533  13.599  20.329  0.00  0.00    +0.000 A 
ATOM     13  S   UNL     1       0.896  12.684  20.138  0.00  0.00    +0.000 S 
ENDBRANCH   8   9
BRANCH   4  14
ATOM     14  N   UNL     1       2.958   6.087  20.180  0.00  0.00    +0.000 NA
ATOM     15  H   UNL     1       3.957   6.107  19.932  0.00  0.00    +0.000 HD
BRANCH  14  16
ATOM     16  CA  UNL     1       2.323   4.902  19.528  0.00  0.00    +0.000 C 
BRANCH  16  17
ATOM     17  C   UNL     1       1.690   4.034  20.636  0.00  0.00    +0.000 C 
ATOM     18  O   UNL     1       2.200   3.787  21.718  0.00  0.00    +0.000 OA
BRANCH  17  19
ATOM     19  OXT UNL     1       0.489   3.519  20.310  0.00  0.00    +0.000 OA
ATOM     20  HXT UNL     1       0.252   2.750  20.864  0.00  0.00    +0.000 HD
ENDBRANCH  17  19
ENDBRANCH  16  17
BRANCH  16  21
ATOM     21  C   UNL     1       3.278   4.051  18.661  0.00  0.00    +0.000 C 
BRANCH  21  22
ATOM     22  C   UNL     1       4.709   3.954  19.210  0.00  0.00    +0.000 C 
BRANCH  22  23
ATOM     23  C   UNL     1       5.679   4.874  18.525  0.00  0.00    +0.000 A 
ATOM     24  C   UNL     1       6.748   5.447  19.223  0.00  0.00    +0.000 A 
ATOM     25  C   UNL     1       7.629   6.309  18.569  0.00  0.00    +0.000 A 
ATOM     26  C   UNL     1       7.444   6.596  17.218  0.00  0.00    +0.000 A 
ATOM     27  C   UNL     1       6.402   6.006  16.511  0.00  0.00    +0.000 A 
ATOM     28  C   UNL     1       5.524   5.139  17.160  0.00  0.00    +0.000 A 
ENDBRANCH  22  23
ENDBRANCH  21  22
ENDBRANCH  16  21
ENDBRANCH  14  16
ENDBRANCH   4  14
BRANCH   1  29
ATOM     29  C   UNL     1       0.980   9.861  22.159  0.00  0.00    +0.000 C 
BRANCH  29  31
ATOM     30  O   UNL     1      -0.870  10.940  23.309  0.00  0.00    +0.000 OA
ATOM     31  C   UNL     1      -0.360   9.868  22.907  0.00  0.00    +0.000 C 
BRANCH  31  32
ATOM     32  O   UNL     1      -1.024   8.716  23.062  0.00  0.00    +0.000 OA
ATOM     33  H   UNL     1      -1.404   8.614  23.964  0.00  0.00    +0.000 HD
ENDBRANCH  31  32
ENDBRANCH  29  31
ENDBRANCH   1  29
TORSDOF 11
ENDMDL
MODEL 7
REMARK VINA RESULT:      -6.6      1.303      1.845
REMARK  Name = 
REMARK  11 active torsions:
REMARK  status: ('A' for Active; 'I' for Inactive)
REMARK    1  A    between atoms: C_2  and  O_3
REMARK    2  A    between atoms: C_2  and  C_4
REMARK    3  A    between atoms: C_4  and  N_5
REMARK    4  A    between atoms: C_8  and  N_9
REMARK    5  A    between atoms: N_9  and  CA_10
REMARK    6  A    between atoms: CA_10  and  C_11
REMARK    7  A    between atoms: CA_10  and  C_19
REMARK    8  A    between atoms: C_11  and  C_12
REMARK    9  A    between atoms: C_12  and  C_13
REMARK   10  A    between atoms: C_19  and  OXT_21
REMARK   11  A    between atoms: C_25  and  C_26
REMARK                            x       y       z     vdW  Elec       q    Type
REMARK                         _______ _______ _______ _____ _____    ______ ____
ROOT
ATOM      1  N   UNL     1       0.815   8.688  20.324  0.00  0.00    +0.000 N 
ATOM      2  C   UNL     1       1.159   7.339  20.321  0.00  0.00    +0.000 C 
ATOM      3  O   UNL     1       0.641   6.533  21.089  0.00  0.00    +0.000 OA
ATOM      4  C   UNL     1       2.521   7.072  19.616  0.00  0.00    +0.000 C 
ATOM      5  C   UNL     1       2.425   7.071  18.092  0.00  0.00    +0.000 C 
ATOM      6  S   UNL     1       2.941   8.674  17.375  0.00  0.00    +0.000 S 
ATOM      7  C   UNL     1       2.114   9.862  18.510  0.00  0.00    +0.000 C 
ATOM      8  C   UNL     1       0.720   9.419  19.017  0.00  0.00    +0.000 C 
ENDROOT
BRANCH   8   9
ATOM      9  C   UNL     1      -0.234  10.602  19.028  0.00  0.00    +0.000 A 
ATOM     10  C   UNL     1      -1.609  10.629  18.841  0.00  0.00    +0.000 A 
ATOM     11  C   UNL     1      -2.155  11.939  18.967  0.00  0.00    +0.000 A 
ATOM     12  C   UNL     1      -1.193  12.868  19.287  0.00  0.00    +0.000 A 
ATOM     13  S   UNL     1       0.364  12.173  19.393  0.00  0.00    +0.000 S 
ENDBRANCH   8   9
BRANCH   4  14
ATOM     14  N   UNL     1       3.165   5.861  20.192  0.00  0.00    +0.000 NA
ATOM     15  H   UNL     1       4.186   5.991  20.170  0.00  0.00    +0.000 HD
BRANCH  14  16
ATOM     16  CA  UNL     1       2.821   4.616  19.440  0.00  0.00    +0.000 C 
BRANCH  16  17
ATOM     17  C   UNL     1       2.367   3.554  20.464  0.00  0.00    +0.000 C 
ATOM     18  O   UNL     1       2.155   2.377  20.214  0.00  0.00    +0.000 OA
BRANCH  17  19
ATOM     19  OXT UNL     1       2.186   4.035  21.708  0.00  0.00    +0.000 OA
ATOM     20  HXT UNL     1       1.240   4.138  21.933  0.00  0.00    +0.000 HD
ENDBRANCH  17  19
ENDBRANCH  16  17
BRANCH  16  21
ATOM     21  C   UNL     1       3.960   4.058  18.558  0.00  0.00    +0.000 C 
BRANCH  21  22
ATOM     22  C   UNL     1       5.357   4.175  19.185  0.00  0.00    +0.000 C 
BRANCH  22  23
ATOM     23  C   UNL     1       6.168   5.315  18.637  0.00  0.00    +0.000 A 
ATOM     24  C   UNL     1       7.368   5.704  19.242  0.00  0.00    +0.000 A 
ATOM     25  C   UNL     1       8.098   6.775  18.724  0.00  0.00    +0.000 A 
ATOM     26  C   UNL     1       7.631   7.454  17.601  0.00  0.00    +0.000 A 
ATOM     27  C   UNL     1       6.455   7.053  16.977  0.00  0.00    +0.000 A 
ATOM     28  C   UNL     1       5.727   5.980  17.488  0.00  0.00    +0.000 A 
ENDBRANCH  22  23
ENDBRANCH  21  22
ENDBRANCH  16  21
ENDBRANCH  14  16
ENDBRANCH   4  14
BRANCH   1  29
ATOM     29  C   UNL     1       0.208   9.251  21.547  0.00  0.00    +0.000 C 
BRANCH  29  31
ATOM     30  O   UNL     1       0.450   9.687  23.926  0.00  0.00    +0.000 OA
ATOM     31  C   UNL     1       1.018   9.449  22.835  0.00  0.00    +0.000 C 
BRANCH  31  32
ATOM     32  O   UNL     1       2.347   9.287  22.799  0.00  0.00    +0.000 OA
ATOM     33  H   UNL     1       2.735   9.519  21.925  0.00  0.00    +0.000 HD
ENDBRANCH  31  32
ENDBRANCH  29  31
ENDBRANCH   1  29
TORSDOF 11
ENDMDL
MODEL 8
REMARK VINA RESULT:      -6.5      1.050      1.306
REMARK  Name = 
REMARK  11 active torsions:
REMARK  status: ('A' for Active; 'I' for Inactive)
REMARK    1  A    between atoms: C_2  and  O_3
REMARK    2  A    between atoms: C_2  and  C_4
REMARK    3  A    between atoms: C_4  and  N_5
REMARK    4  A    between atoms: C_8  and  N_9
REMARK    5  A    between atoms: N_9  and  CA_10
REMARK    6  A    between atoms: CA_10  and  C_11
REMARK    7  A    between atoms: CA_10  and  C_19
REMARK    8  A    between atoms: C_11  and  C_12
REMARK    9  A    between atoms: C_12  and  C_13
REMARK   10  A    between atoms: C_19  and  OXT_21
REMARK   11  A    between atoms: C_25  and  C_26
REMARK                            x       y       z     vdW  Elec       q    Type
REMARK                         _______ _______ _______ _____ _____    ______ ____
ROOT
ATOM      1  N   UNL     1       1.166   9.202  20.323  0.00  0.00    +0.000 N 
ATOM      2  C   UNL     1       1.165   7.838  20.606  0.00  0.00    +0.000 C 
ATOM      3  O   UNL     1       0.598   7.378  21.593  0.00  0.00    +0.000 OA
ATOM      4  C   UNL     1       2.287   7.071  19.847  0.00  0.00    +0.000 C 
ATOM      5  C   UNL     1       1.946   6.787  18.386  0.00  0.00    +0.000 C 
ATOM      6  S   UNL     1       2.714   8.007  17.258  0.00  0.00    +0.000 S 
ATOM      7  C   UNL     1       2.399   9.581  18.156  0.00  0.00    +0.000 C 
ATOM      8  C   UNL     1       1.041   9.649  18.896  0.00  0.00    +0.000 C 
ENDROOT
BRANCH   8   9
ATOM      9  C   UNL     1       0.419  11.026  18.724  0.00  0.00    +0.000 A 
ATOM     10  C   UNL     1      -0.907  11.376  18.510  0.00  0.00    +0.000 A 
ATOM     11  C   UNL     1      -1.099  12.785  18.441  0.00  0.00    +0.000 A 
ATOM     12  C   UNL     1       0.073  13.475  18.647  0.00  0.00    +0.000 A 
ATOM     13  S   UNL     1       1.404  12.429  18.877  0.00  0.00    +0.000 S 
ENDBRANCH   8   9
BRANCH   4  14
ATOM     14  N   UNL     1       2.701   5.871  20.625  0.00  0.00    +0.000 NA
ATOM     15  H   UNL     1       3.727   5.876  20.711  0.00  0.00    +0.000 HD
BRANCH  14  16
ATOM     16  CA  UNL     1       2.277   4.594  19.978  0.00  0.00    +0.000 C 
BRANCH  16  17
ATOM     17  C   UNL     1       1.712   3.670  21.078  0.00  0.00    +0.000 C 
ATOM     18  O   UNL     1       2.214   3.490  22.176  0.00  0.00    +0.000 OA
BRANCH  17  19
ATOM     19  OXT UNL     1       0.586   3.022  20.724  0.00  0.00    +0.000 OA
ATOM     20  HXT UNL     1      -0.178   3.273  21.280  0.00  0.00    +0.000 HD
ENDBRANCH  17  19
ENDBRANCH  16  17
BRANCH  16  21
ATOM     21  C   UNL     1       3.388   3.868  19.187  0.00  0.00    +0.000 C 
BRANCH  21  22
ATOM     22  C   UNL     1       4.771   4.527  19.297  0.00  0.00    +0.000 C 
BRANCH  22  23
ATOM     23  C   UNL     1       5.453   4.718  17.972  0.00  0.00    +0.000 A 
ATOM     24  C   UNL     1       5.131   3.915  16.872  0.00  0.00    +0.000 A 
ATOM     25  C   UNL     1       5.788   4.102  15.655  0.00  0.00    +0.000 A 
ATOM     26  C   UNL     1       6.761   5.091  15.536  0.00  0.00    +0.000 A 
ATOM     27  C   UNL     1       7.064   5.912  16.617  0.00  0.00    +0.000 A 
ATOM     28  C   UNL     1       6.406   5.733  17.832  0.00  0.00    +0.000 A 
ENDBRANCH  22  23
ENDBRANCH  21  22
ENDBRANCH  16  21
ENDBRANCH  14  16
ENDBRANCH   4  14
BRANCH   1  29
ATOM     29  C   UNL     1       0.923  10.145  21.433  0.00  0.00    +0.000 C 
BRANCH  29  31
ATOM     30  O   UNL     1      -1.277  11.096  21.834  0.00  0.00    +0.000 OA
ATOM     31  C   UNL     1      -0.433  10.224  22.146  0.00  0.00    +0.000 C 
BRANCH  31  32
ATOM     32  O   UNL     1      -0.741   9.298  23.062  0.00  0.00    +0.000 OA
ATOM     33  H   UNL     1      -1.403   8.647  22.737  0.00  0.00    +0.000 HD
ENDBRANCH  31  32
ENDBRANCH  29  31
ENDBRANCH   1  29
TORSDOF 11
ENDMDL
MODEL 9
REMARK VINA RESULT:      -6.5      1.252      1.723
REMARK  Name = 
REMARK  11 active torsions:
REMARK  status: ('A' for Active; 'I' for Inactive)
REMARK    1  A    between atoms: C_2  and  O_3
REMARK    2  A    between atoms: C_2  and  C_4
REMARK    3  A    between atoms: C_4  and  N_5
REMARK    4  A    between atoms: C_8  and  N_9
REMARK    5  A    between atoms: N_9  and  CA_10
REMARK    6  A    between atoms: CA_10  and  C_11
REMARK    7  A    between atoms: CA_10  and  C_19
REMARK    8  A    between atoms: C_11  and  C_12
REMARK    9  A    between atoms: C_12  and  C_13
REMARK   10  A    between atoms: C_19  and  OXT_21
REMARK   11  A    between atoms: C_25  and  C_26
REMARK                            x       y       z     vdW  Elec       q    Type
REMARK                         _______ _______ _______ _____ _____    ______ ____
ROOT
ATOM      1  N   UNL     1       0.912   9.795  20.546  0.00  0.00    +0.000 N 
ATOM      2  C   UNL     1       0.739   8.443  20.834  0.00  0.00    +0.000 C 
ATOM      3  O   UNL     1       0.026   8.061  21.758  0.00  0.00    +0.000 OA
ATOM      4  C   UNL     1       1.847   7.552  20.202  0.00  0.00    +0.000 C 
ATOM      5  C   UNL     1       1.634   7.282  18.714  0.00  0.00    +0.000 C 
ATOM      6  S   UNL     1       2.640   8.398  17.668  0.00  0.00    +0.000 S 
ATOM      7  C   UNL     1       2.399  10.010  18.521  0.00  0.00    +0.000 C 
ATOM      8  C   UNL     1       0.986  10.231  19.112  0.00  0.00    +0.000 C 
ENDROOT
BRANCH   8   9
ATOM      9  C   UNL     1       0.534  11.661  18.869  0.00  0.00    +0.000 A 
ATOM     10  C   UNL     1      -0.732  12.150  18.577  0.00  0.00    +0.000 A 
ATOM     11  C   UNL     1      -0.760  13.569  18.458  0.00  0.00    +0.000 A 
ATOM     12  C   UNL     1       0.472  14.130  18.703  0.00  0.00    +0.000 A 
ATOM     13  S   UNL     1       1.663  12.949  19.031  0.00  0.00    +0.000 S 
ENDBRANCH   8   9
BRANCH   4  14
ATOM     14  N   UNL     1       2.049   6.329  21.025  0.00  0.00    +0.000 NA
ATOM     15  H   UNL     1       2.874   6.470  21.625  0.00  0.00    +0.000 HD
BRANCH  14  16
ATOM     16  CA  UNL     1       2.262   5.106  20.193  0.00  0.00    +0.000 C 
BRANCH  16  17
ATOM     17  C   UNL     1       1.694   3.899  20.969  0.00  0.00    +0.000 C 
ATOM     18  O   UNL     1       2.198   3.397  21.962  0.00  0.00    +0.000 OA
BRANCH  17  19
ATOM     19  OXT UNL     1       0.563   3.393  20.444  0.00  0.00    +0.000 OA
ATOM     20  HXT UNL     1       0.103   2.789  21.060  0.00  0.00    +0.000 HD
ENDBRANCH  17  19
ENDBRANCH  16  17
BRANCH  16  21
ATOM     21  C   UNL     1       3.731   4.843  19.793  0.00  0.00    +0.000 C 
BRANCH  21  22
ATOM     22  C   UNL     1       3.904   3.783  18.696  0.00  0.00    +0.000 C 
BRANCH  22  23
ATOM     23  C   UNL     1       4.989   4.110  17.710  0.00  0.00    +0.000 A 
ATOM     24  C   UNL     1       6.269   4.477  18.140  0.00  0.00    +0.000 A 
ATOM     25  C   UNL     1       7.257   4.791  17.205  0.00  0.00    +0.000 A 
ATOM     26  C   UNL     1       6.968   4.735  15.844  0.00  0.00    +0.000 A 
ATOM     27  C   UNL     1       5.706   4.343  15.410  0.00  0.00    +0.000 A 
ATOM     28  C   UNL     1       4.719   4.022  16.340  0.00  0.00    +0.000 A 
ENDBRANCH  22  23
ENDBRANCH  21  22
ENDBRANCH  16  21
ENDBRANCH  14  16
ENDBRANCH   4  14
BRANCH   1  29
ATOM     29  C   UNL     1       0.655  10.776  21.620  0.00  0.00    +0.000 C 
BRANCH  29  31
ATOM     30  O   UNL     1      -1.592  11.679  21.830  0.00  0.00    +0.000 OA
ATOM     31  C   UNL     1      -0.721  10.903  22.287  0.00  0.00    +0.000 C 
BRANCH  31  32
ATOM     32  O   UNL     1      -1.014  10.114  23.328  0.00  0.00    +0.000 OA
ATOM     33  H   UNL     1      -1.239   9.195  23.057  0.00  0.00    +0.000 HD
ENDBRANCH  31  32
ENDBRANCH  29  31
ENDBRANCH   1  29
TORSDOF 11
ENDMDL
