MODEL 1
REMARK VINA RESULT:      -7.5      0.000      0.000
REMARK  Name = 
REMARK  3 active torsions:
REMARK  status: ('A' for Active; 'I' for Inactive)
REMARK    1  A    between atoms: N_3  and  C_4
REMARK    2  A    between atoms: N_16  and  C_17
REMARK    3  A    between atoms: C_22  and  O_23
REMARK                            x       y       z     vdW  Elec       q    Type
REMARK                         _______ _______ _______ _____ _____    ______ ____
ROOT
ATOM      1  O   UNL     1       1.508   9.279  17.194  0.00  0.00    +0.000 OA
ATOM      2  C   UNL     1       1.533   9.203  18.421  0.00  0.00    +0.000 C 
ATOM      3  N   UNL     1       2.115   8.150  19.106  0.00  0.00    +0.000 N 
ATOM      4  N   UNL     1       0.912  10.152  19.220  0.00  0.00    +0.000 N 
ATOM      5  C   UNL     1       0.952  10.180  20.682  0.00  0.00    +0.000 C 
ATOM      6  C   UNL     1       0.797  11.602  21.258  0.00  0.00    +0.000 C 
ATOM      7  N   UNL     1      -0.327  12.393  20.709  0.00  0.00    +0.000 NA
ATOM      8  C   UNL     1      -0.186  12.403  19.237  0.00  0.00    +0.000 C 
ATOM      9  C   UNL     1      -0.084  11.016  18.582  0.00  0.00    +0.000 C 
ATOM     10  H   UNL     1       1.564   7.852  19.898  0.00  0.00    +0.000 HD
ENDROOT
BRANCH   3  11
ATOM     11  C   UNL     1       2.746   7.106  18.383  0.00  0.00    +0.000 A 
ATOM     12  C   UNL     1       2.304   5.790  18.518  0.00  0.00    +0.000 A 
ATOM     13  C   UNL     1       2.984   4.739  17.897  0.00  0.00    +0.000 A 
ATOM     14  C   UNL     1       4.144   5.048  17.171  0.00  0.00    +0.000 A 
ATOM     15  S   UNL     1       5.248   3.980  16.388  0.00  0.00    +0.000 S 
ATOM     16  C   UNL     1       6.211   5.321  15.941  0.00  0.00    +0.000 A 
ATOM     17  N   UNL     1       5.762   6.508  16.281  0.00  0.00    +0.000 NA
ATOM     18  C   UNL     1       4.584   6.363  17.000  0.00  0.00    +0.000 A 
ATOM     19  C   UNL     1       3.841   7.414  17.580  0.00  0.00    +0.000 A 
ENDBRANCH   3  11
BRANCH   7  20
ATOM     20  C   UNL     1      -1.669  12.034  21.255  0.00  0.00    +0.000 C 
ATOM     21  C   UNL     1      -1.604  12.119  22.802  0.00  0.00    +0.000 C 
ATOM     22  C   UNL     1      -2.955  11.961  23.490  0.00  0.00    +0.000 C 
ATOM     23  C   UNL     1      -3.924  13.021  23.006  0.00  0.00    +0.000 C 
ATOM     24  C   UNL     1      -4.144  12.861  21.512  0.00  0.00    +0.000 C 
ATOM     25  C   UNL     1      -2.839  12.934  20.710  0.00  0.00    +0.000 C 
BRANCH  25  26
ATOM     26  O   UNL     1      -3.181  12.568  19.363  0.00  0.00    +0.000 OA
ATOM     27  H   UNL     1      -3.191  13.378  18.828  0.00  0.00    +0.000 HD
ENDBRANCH  25  26
ENDBRANCH   7  20
TORSDOF 3
ENDMDL
MODEL 2
REMARK VINA RESULT:      -7.3      7.460      9.628
REMARK  Name = 
REMARK  3 active torsions:
REMARK  status: ('A' for Active; 'I' for Inactive)
REMARK    1  A    between atoms: N_3  and  C_4
REMARK    2  A    between atoms: N_16  and  C_17
REMARK    3  A    between atoms: C_22  and  O_23
REMARK                            x       y       z     vdW  Elec       q    Type
REMARK                         _______ _______ _______ _____ _____    ______ ____
ROOT
ATOM      1  O   UNL     1       9.101   8.076  18.967  0.00  0.00    +0.000 OA
ATOM      2  C   UNL     1       8.097   8.195  18.269  0.00  0.00    +0.000 C 
ATOM      3  N   UNL     1       7.653   9.411  17.776  0.00  0.00    +0.000 N 
ATOM      4  N   UNL     1       7.285   7.110  17.972  0.00  0.00    +0.000 N 
ATOM      5  C   UNL     1       6.115   7.147  17.093  0.00  0.00    +0.000 C 
ATOM      6  C   UNL     1       5.830   5.788  16.421  0.00  0.00    +0.000 C 
ATOM      7  N   UNL     1       5.818   4.619  17.327  0.00  0.00    +0.000 NA
ATOM      8  C   UNL     1       7.101   4.613  18.063  0.00  0.00    +0.000 C 
ATOM      9  C   UNL     1       7.429   5.917  18.809  0.00  0.00    +0.000 C 
ATOM     10  H   UNL     1       6.650   9.508  17.832  0.00  0.00    +0.000 HD
ENDROOT
BRANCH   3  11
ATOM     11  C   UNL     1       8.390  10.590  18.053  0.00  0.00    +0.000 A 
ATOM     12  C   UNL     1       8.072  11.786  17.407  0.00  0.00    +0.000 A 
ATOM     13  C   UNL     1       8.857  12.927  17.587  0.00  0.00    +0.000 A 
ATOM     14  C   UNL     1       9.993  12.819  18.404  0.00  0.00    +0.000 A 
ATOM     15  S   UNL     1      11.203  14.000  18.737  0.00  0.00    +0.000 S 
ATOM     16  C   UNL     1      12.042  12.856  19.694  0.00  0.00    +0.000 A 
ATOM     17  N   UNL     1      11.477  11.677  19.829  0.00  0.00    +0.000 NA
ATOM     18  C   UNL     1      10.308  11.639  19.083  0.00  0.00    +0.000 A 
ATOM     19  C   UNL     1       9.462  10.519  18.938  0.00  0.00    +0.000 A 
ENDBRANCH   3  11
BRANCH   7  20
ATOM     20  C   UNL     1       4.575   4.470  18.140  0.00  0.00    +0.000 C 
ATOM     21  C   UNL     1       3.390   5.054  17.328  0.00  0.00    +0.000 C 
ATOM     22  C   UNL     1       2.023   4.801  17.955  0.00  0.00    +0.000 C 
ATOM     23  C   UNL     1       1.784   3.313  18.124  0.00  0.00    +0.000 C 
ATOM     24  C   UNL     1       2.834   2.735  19.055  0.00  0.00    +0.000 C 
ATOM     25  C   UNL     1       4.265   2.987  18.564  0.00  0.00    +0.000 C 
BRANCH  25  26
ATOM     26  O   UNL     1       5.130   2.569  19.633  0.00  0.00    +0.000 OA
ATOM     27  H   UNL     1       6.047   2.639  19.318  0.00  0.00    +0.000 HD
ENDBRANCH  25  26
ENDBRANCH   7  20
TORSDOF 3
ENDMDL
MODEL 3
REMARK VINA RESULT:      -7.2      1.271      1.763
REMARK  Name = 
REMARK  3 active torsions:
REMARK  status: ('A' for Active; 'I' for Inactive)
REMARK    1  A    between atoms: N_3  and  C_4
REMARK    2  A    between atoms: N_16  and  C_17
REMARK    3  A    between atoms: C_22  and  O_23
REMARK                            x       y       z     vdW  Elec       q    Type
REMARK                         _______ _______ _______ _____ _____    ______ ____
ROOT
ATOM      1  O   UNL     1       1.188   8.980  17.440  0.00  0.00    +0.000 OA
ATOM      2  C   UNL     1       1.283   9.139  18.655  0.00  0.00    +0.000 C 
ATOM      3  N   UNL     1       1.986   8.278  19.482  0.00  0.00    +0.000 N 
ATOM      4  N   UNL     1       0.629  10.174  19.307  0.00  0.00    +0.000 N 
ATOM      5  C   UNL     1       0.743  10.479  20.733  0.00  0.00    +0.000 C 
ATOM      6  C   UNL     1       0.501  11.970  21.046  0.00  0.00    +0.000 C 
ATOM      7  N   UNL     1      -0.711  12.561  20.439  0.00  0.00    +0.000 NA
ATOM      8  C   UNL     1      -0.649  12.304  18.984  0.00  0.00    +0.000 C 
ATOM      9  C   UNL     1      -0.468  10.829  18.589  0.00  0.00    +0.000 C 
ATOM     10  H   UNL     1       1.504   8.096  20.350  0.00  0.00    +0.000 HD
ENDROOT
BRANCH   3  11
ATOM     11  C   UNL     1       2.662   7.164  18.922  0.00  0.00    +0.000 A 
ATOM     12  C   UNL     1       3.615   7.351  17.920  0.00  0.00    +0.000 A 
ATOM     13  C   UNL     1       4.209   6.258  17.284  0.00  0.00    +0.000 A 
ATOM     14  C   UNL     1       3.786   4.973  17.658  0.00  0.00    +0.000 A 
ATOM     15  S   UNL     1       4.244   3.448  16.999  0.00  0.00    +0.000 S 
ATOM     16  C   UNL     1       3.161   2.671  18.072  0.00  0.00    +0.000 A 
ATOM     17  N   UNL     1       2.516   3.443  18.918  0.00  0.00    +0.000 NA
ATOM     18  C   UNL     1       2.856   4.768  18.681  0.00  0.00    +0.000 A 
ATOM     19  C   UNL     1       2.321   5.886  19.355  0.00  0.00    +0.000 A 
ENDBRANCH   3  11
BRANCH   7  20
ATOM     20  C   UNL     1      -1.989  12.216  21.129  0.00  0.00    +0.000 C 
ATOM     21  C   UNL     1      -1.740  12.256  22.660  0.00  0.00    +0.000 C 
ATOM     22  C   UNL     1      -3.005  12.108  23.498  0.00  0.00    +0.000 C 
ATOM     23  C   UNL     1      -3.998  13.203  23.159  0.00  0.00    +0.000 C 
ATOM     24  C   UNL     1      -4.395  13.090  21.698  0.00  0.00    +0.000 C 
ATOM     25  C   UNL     1      -3.192  13.156  20.749  0.00  0.00    +0.000 C 
BRANCH  25  26
ATOM     26  O   UNL     1      -3.698  12.836  19.444  0.00  0.00    +0.000 OA
ATOM     27  H   UNL     1      -3.580  11.882  19.304  0.00  0.00    +0.000 HD
ENDBRANCH  25  26
ENDBRANCH   7  20
TORSDOF 3
ENDMDL
MODEL 4
REMARK VINA RESULT:      -7.1      3.639      9.626
REMARK  Name = 
REMARK  3 active torsions:
REMARK  status: ('A' for Active; 'I' for Inactive)
REMARK    1  A    between atoms: N_3  and  C_4
REMARK    2  A    between atoms: N_16  and  C_17
REMARK    3  A    between atoms: C_22  and  O_23
REMARK                            x       y       z     vdW  Elec       q    Type
REMARK                         _______ _______ _______ _____ _____    ______ ____
ROOT
ATOM      1  O   UNL     1       1.140   5.915  20.180  0.00  0.00    +0.000 OA
ATOM      2  C   UNL     1       2.221   6.430  19.901  0.00  0.00    +0.000 C 
ATOM      3  N   UNL     1       2.427   7.800  19.882  0.00  0.00    +0.000 N 
ATOM      4  N   UNL     1       3.313   5.666  19.517  0.00  0.00    +0.000 N 
ATOM      5  C   UNL     1       4.651   6.188  19.237  0.00  0.00    +0.000 C 
ATOM      6  C   UNL     1       5.763   5.152  19.499  0.00  0.00    +0.000 C 
ATOM      7  N   UNL     1       5.543   3.816  18.903  0.00  0.00    +0.000 NA
ATOM      8  C   UNL     1       4.221   3.337  19.361  0.00  0.00    +0.000 C 
ATOM      9  C   UNL     1       3.049   4.293  19.082  0.00  0.00    +0.000 C 
ATOM     10  H   UNL     1       2.992   8.094  19.098  0.00  0.00    +0.000 HD
ENDROOT
BRANCH   3  11
ATOM     11  C   UNL     1       1.365   8.674  20.223  0.00  0.00    +0.000 A 
ATOM     12  C   UNL     1       0.691   9.385  19.228  0.00  0.00    +0.000 A 
ATOM     13  C   UNL     1      -0.283  10.330  19.559  0.00  0.00    +0.000 A 
ATOM     14  C   UNL     1      -0.530  10.568  20.919  0.00  0.00    +0.000 A 
ATOM     15  S   UNL     1      -1.580  11.728  21.642  0.00  0.00    +0.000 S 
ATOM     16  C   UNL     1      -1.069  11.210  23.191  0.00  0.00    +0.000 A 
ATOM     17  N   UNL     1      -0.215  10.212  23.225  0.00  0.00    +0.000 NA
ATOM     18  C   UNL     1       0.113   9.844  21.927  0.00  0.00    +0.000 A 
ATOM     19  C   UNL     1       1.043   8.846  21.566  0.00  0.00    +0.000 A 
ENDBRANCH   3  11
BRANCH   7  20
ATOM     20  C   UNL     1       5.819   3.731  17.438  0.00  0.00    +0.000 C 
ATOM     21  C   UNL     1       4.524   4.118  16.677  0.00  0.00    +0.000 C 
ATOM     22  C   UNL     1       4.709   4.258  15.170  0.00  0.00    +0.000 C 
ATOM     23  C   UNL     1       5.762   5.304  14.860  0.00  0.00    +0.000 C 
ATOM     24  C   UNL     1       7.092   4.872  15.451  0.00  0.00    +0.000 C 
ATOM     25  C   UNL     1       7.019   4.631  16.963  0.00  0.00    +0.000 C 
BRANCH  25  26
ATOM     26  O   UNL     1       8.276   4.043  17.333  0.00  0.00    +0.000 OA
ATOM     27  H   UNL     1       8.364   3.202  16.853  0.00  0.00    +0.000 HD
ENDBRANCH  25  26
ENDBRANCH   7  20
TORSDOF 3
ENDMDL
MODEL 5
REMARK VINA RESULT:      -7.0      7.393      9.656
REMARK  Name = 
REMARK  3 active torsions:
REMARK  status: ('A' for Active; 'I' for Inactive)
REMARK    1  A    between atoms: N_3  and  C_4
REMARK    2  A    between atoms: N_16  and  C_17
REMARK    3  A    between atoms: C_22  and  O_23
REMARK                            x       y       z     vdW  Elec       q    Type
REMARK                         _______ _______ _______ _____ _____    ______ ____
ROOT
ATOM      1  O   UNL     1       9.162   8.286  18.986  0.00  0.00    +0.000 OA
ATOM      2  C   UNL     1       8.192   8.340  18.232  0.00  0.00    +0.000 C 
ATOM      3  N   UNL     1       7.759   9.511  17.633  0.00  0.00    +0.000 N 
ATOM      4  N   UNL     1       7.410   7.224  17.973  0.00  0.00    +0.000 N 
ATOM      5  C   UNL     1       6.286   7.180  17.038  0.00  0.00    +0.000 C 
ATOM      6  C   UNL     1       6.051   5.773  16.451  0.00  0.00    +0.000 C 
ATOM      7  N   UNL     1       6.008   4.670  17.437  0.00  0.00    +0.000 NA
ATOM      8  C   UNL     1       7.252   4.737  18.234  0.00  0.00    +0.000 C 
ATOM      9  C   UNL     1       7.527   6.095  18.900  0.00  0.00    +0.000 C 
ATOM     10  H   UNL     1       6.752   9.596  17.632  0.00  0.00    +0.000 HD
ENDROOT
BRANCH   3  11
ATOM     11  C   UNL     1       8.466  10.719  17.860  0.00  0.00    +0.000 A 
ATOM     12  C   UNL     1       9.730  10.693  18.451  0.00  0.00    +0.000 A 
ATOM     13  C   UNL     1      10.390  11.880  18.780  0.00  0.00    +0.000 A 
ATOM     14  C   UNL     1       9.724  13.090  18.534  0.00  0.00    +0.000 A 
ATOM     15  S   UNL     1      10.220  14.696  18.917  0.00  0.00    +0.000 S 
ATOM     16  C   UNL     1       8.746  15.290  18.283  0.00  0.00    +0.000 A 
ATOM     17  N   UNL     1       7.928  14.403  17.764  0.00  0.00    +0.000 NA
ATOM     18  C   UNL     1       8.472  13.135  17.915  0.00  0.00    +0.000 A 
ATOM     19  C   UNL     1       7.855  11.925  17.529  0.00  0.00    +0.000 A 
ENDBRANCH   3  11
BRANCH   7  20
ATOM     20  C   UNL     1       4.728   4.559  18.196  0.00  0.00    +0.000 C 
ATOM     21  C   UNL     1       3.621   5.290  17.392  0.00  0.00    +0.000 C 
ATOM     22  C   UNL     1       2.217   5.098  17.954  0.00  0.00    +0.000 C 
ATOM     23  C   UNL     1       1.861   3.625  18.004  0.00  0.00    +0.000 C 
ATOM     24  C   UNL     1       2.830   2.902  18.922  0.00  0.00    +0.000 C 
ATOM     25  C   UNL     1       4.293   3.077  18.498  0.00  0.00    +0.000 C 
BRANCH  25  26
ATOM     26  O   UNL     1       5.084   2.519  19.559  0.00  0.00    +0.000 OA
ATOM     27  H   UNL     1       4.542   2.518  20.366  0.00  0.00    +0.000 HD
ENDBRANCH  25  26
ENDBRANCH   7  20
TORSDOF 3
ENDMDL
MODEL 6
REMARK VINA RESULT:      -6.9      0.984      1.025
REMARK  Name = 
REMARK  3 active torsions:
REMARK  status: ('A' for Active; 'I' for Inactive)
REMARK    1  A    between atoms: N_3  and  C_4
REMARK    2  A    between atoms: N_16  and  C_17
REMARK    3  A    between atoms: C_22  and  O_23
REMARK                            x       y       z     vdW  Elec       q    Type
REMARK                         _______ _______ _______ _____ _____    ______ ____
ROOT
ATOM      1  O   UNL     1       0.744   9.293  17.627  0.00  0.00    +0.000 OA
ATOM      2  C   UNL     1       0.857   9.497  18.834  0.00  0.00    +0.000 C 
ATOM      3  N   UNL     1       1.602   8.688  19.676  0.00  0.00    +0.000 N 
ATOM      4  N   UNL     1       0.182  10.534  19.462  0.00  0.00    +0.000 N 
ATOM      5  C   UNL     1       0.313  10.892  20.874  0.00  0.00    +0.000 C 
ATOM      6  C   UNL     1       0.030  12.385  21.140  0.00  0.00    +0.000 C 
ATOM      7  N   UNL     1      -1.212  12.916  20.537  0.00  0.00    +0.000 NA
ATOM      8  C   UNL     1      -1.169  12.610  19.090  0.00  0.00    +0.000 C 
ATOM      9  C   UNL     1      -0.948  11.129  18.744  0.00  0.00    +0.000 C 
ATOM     10  H   UNL     1       1.142   8.522  20.559  0.00  0.00    +0.000 HD
ENDROOT
BRANCH   3  11
ATOM     11  C   UNL     1       2.303   7.577  19.142  0.00  0.00    +0.000 A 
ATOM     12  C   UNL     1       2.270   6.344  19.795  0.00  0.00    +0.000 A 
ATOM     13  C   UNL     1       3.043   5.273  19.340  0.00  0.00    +0.000 A 
ATOM     14  C   UNL     1       3.879   5.490  18.234  0.00  0.00    +0.000 A 
ATOM     15  S   UNL     1       5.014   4.417  17.508  0.00  0.00    +0.000 S 
ATOM     16  C   UNL     1       5.456   5.648  16.404  0.00  0.00    +0.000 A 
ATOM     17  N   UNL     1       4.799   6.782  16.494  0.00  0.00    +0.000 NA
ATOM     18  C   UNL     1       3.900   6.709  17.550  0.00  0.00    +0.000 A 
ATOM     19  C   UNL     1       3.060   7.755  17.987  0.00  0.00    +0.000 A 
ENDBRANCH   3  11
BRANCH   7  20
ATOM     20  C   UNL     1      -2.465  12.556  21.264  0.00  0.00    +0.000 C 
ATOM     21  C   UNL     1      -2.150  12.507  22.782  0.00  0.00    +0.000 C 
ATOM     22  C   UNL     1      -3.379  12.335  23.666  0.00  0.00    +0.000 C 
ATOM     23  C   UNL     1      -4.364  13.464  23.431  0.00  0.00    +0.000 C 
ATOM     24  C   UNL     1      -4.826  13.439  21.986  0.00  0.00    +0.000 C 
ATOM     25  C   UNL     1      -3.665  13.536  20.989  0.00  0.00    +0.000 C 
BRANCH  25  26
ATOM     26  O   UNL     1      -4.234  13.298  19.692  0.00  0.00    +0.000 OA
ATOM     27  H   UNL     1      -4.790  14.062  19.465  0.00  0.00    +0.000 HD
ENDBRANCH  25  26
ENDBRANCH   7  20
TORSDOF 3
ENDMDL
MODEL 7
REMARK VINA RESULT:      -6.8      2.745      4.020
REMARK  Name = 
REMARK  3 active torsions:
REMARK  status: ('A' for Active; 'I' for Inactive)
REMARK    1  A    between atoms: N_3  and  C_4
REMARK    2  A    between atoms: N_16  and  C_17
REMARK    3  A    between atoms: C_22  and  O_23
REMARK                            x       y       z     vdW  Elec       q    Type
REMARK                         _______ _______ _______ _____ _____    ______ ____
ROOT
ATOM      1  O   UNL     1       1.373   7.593  21.119  0.00  0.00    +0.000 OA
ATOM      2  C   UNL     1       1.526   8.217  20.071  0.00  0.00    +0.000 C 
ATOM      3  N   UNL     1       2.140   7.683  18.950  0.00  0.00    +0.000 N 
ATOM      4  N   UNL     1       1.145   9.546  19.955  0.00  0.00    +0.000 N 
ATOM      5  C   UNL     1       1.223  10.342  18.730  0.00  0.00    +0.000 C 
ATOM      6  C   UNL     1       0.173  11.471  18.683  0.00  0.00    +0.000 C 
ATOM      7  N   UNL     1       0.086  12.312  19.897  0.00  0.00    +0.000 NA
ATOM      8  C   UNL     1      -0.124  11.408  21.049  0.00  0.00    +0.000 C 
ATOM      9  C   UNL     1       0.919  10.289  21.197  0.00  0.00    +0.000 C 
ATOM     10  H   UNL     1       2.757   8.342  18.497  0.00  0.00    +0.000 HD
ENDROOT
BRANCH   3  11
ATOM     11  C   UNL     1       2.601   6.343  18.975  0.00  0.00    +0.000 A 
ATOM     12  C   UNL     1       3.907   6.055  19.376  0.00  0.00    +0.000 A 
ATOM     13  C   UNL     1       4.407   4.753  19.301  0.00  0.00    +0.000 A 
ATOM     14  C   UNL     1       3.571   3.758  18.773  0.00  0.00    +0.000 A 
ATOM     15  S   UNL     1       3.925   2.101  18.457  0.00  0.00    +0.000 S 
ATOM     16  C   UNL     1       2.349   1.897  17.822  0.00  0.00    +0.000 A 
ATOM     17  N   UNL     1       1.557   2.945  17.865  0.00  0.00    +0.000 NA
ATOM     18  C   UNL     1       2.251   4.023  18.396  0.00  0.00    +0.000 A 
ATOM     19  C   UNL     1       1.746   5.332  18.545  0.00  0.00    +0.000 A 
ENDBRANCH   3  11
BRANCH   7  20
ATOM     20  C   UNL     1       1.167  13.333  20.030  0.00  0.00    +0.000 C 
ATOM     21  C   UNL     1       1.547  13.827  18.610  0.00  0.00    +0.000 C 
ATOM     22  C   UNL     1       2.508  15.009  18.600  0.00  0.00    +0.000 C 
ATOM     23  C   UNL     1       1.916  16.181  19.358  0.00  0.00    +0.000 C 
ATOM     24  C   UNL     1       1.686  15.783  20.805  0.00  0.00    +0.000 C 
ATOM     25  C   UNL     1       0.781  14.553  20.945  0.00  0.00    +0.000 C 
BRANCH  25  26
ATOM     26  O   UNL     1       0.824  14.184  22.333  0.00  0.00    +0.000 OA
ATOM     27  H   UNL     1       0.822  13.214  22.384  0.00  0.00    +0.000 HD
ENDBRANCH  25  26
ENDBRANCH   7  20
TORSDOF 3
ENDMDL
MODEL 8
REMARK VINA RESULT:      -6.8      2.994      4.200
REMARK  Name = 
REMARK  3 active torsions:
REMARK  status: ('A' for Active; 'I' for Inactive)
REMARK    1  A    between atoms: N_3  and  C_4
REMARK    2  A    between atoms: N_16  and  C_17
REMARK    3  A    between atoms: C_22  and  O_23
REMARK                            x       y       z     vdW  Elec       q    Type
REMARK                         _______ _______ _______ _____ _____    ______ ____
ROOT
ATOM      1  O   UNL     1       1.558   7.117  20.751  0.00  0.00    +0.000 OA
ATOM      2  C   UNL     1       1.684   7.789  19.729  0.00  0.00    +0.000 C 
ATOM      3  N   UNL     1       2.149   7.271  18.532  0.00  0.00    +0.000 N 
ATOM      4  N   UNL     1       1.425   9.151  19.718  0.00  0.00    +0.000 N 
ATOM      5  C   UNL     1       1.479  10.011  18.536  0.00  0.00    +0.000 C 
ATOM      6  C   UNL     1       0.543  11.232  18.642  0.00  0.00    +0.000 C 
ATOM      7  N   UNL     1       0.637  12.001  19.902  0.00  0.00    +0.000 NA
ATOM      8  C   UNL     1       0.437  11.051  21.018  0.00  0.00    +0.000 C 
ATOM      9  C   UNL     1       1.375   9.833  21.014  0.00  0.00    +0.000 C 
ATOM     10  H   UNL     1       2.787   7.897  18.062  0.00  0.00    +0.000 HD
ENDROOT
BRANCH   3  11
ATOM     11  C   UNL     1       2.479   5.895  18.443  0.00  0.00    +0.000 A 
ATOM     12  C   UNL     1       1.653   5.017  17.739  0.00  0.00    +0.000 A 
ATOM     13  C   UNL     1       1.906   3.644  17.736  0.00  0.00    +0.000 A 
ATOM     14  C   UNL     1       2.990   3.175  18.493  0.00  0.00    +0.000 A 
ATOM     15  S   UNL     1       3.494   1.551  18.773  0.00  0.00    +0.000 S 
ATOM     16  C   UNL     1       4.745   2.125  19.790  0.00  0.00    +0.000 A 
ATOM     17  N   UNL     1       4.855   3.429  19.907  0.00  0.00    +0.000 NA
ATOM     18  C   UNL     1       3.845   4.042  19.179  0.00  0.00    +0.000 A 
ATOM     19  C   UNL     1       3.609   5.432  19.111  0.00  0.00    +0.000 A 
ENDBRANCH   3  11
BRANCH   7  20
ATOM     20  C   UNL     1       1.820  12.908  19.995  0.00  0.00    +0.000 C 
ATOM     21  C   UNL     1       2.364  13.145  18.562  0.00  0.00    +0.000 C 
ATOM     22  C   UNL     1       3.458  14.203  18.481  0.00  0.00    +0.000 C 
ATOM     23  C   UNL     1       2.954  15.530  19.013  0.00  0.00    +0.000 C 
ATOM     24  C   UNL     1       2.567  15.375  20.472  0.00  0.00    +0.000 C 
ATOM     25  C   UNL     1       1.514  14.283  20.695  0.00  0.00    +0.000 C 
BRANCH  25  26
ATOM     26  O   UNL     1       1.406  14.120  22.117  0.00  0.00    +0.000 OA
ATOM     27  H   UNL     1       2.203  13.659  22.426  0.00  0.00    +0.000 HD
ENDBRANCH  25  26
ENDBRANCH   7  20
TORSDOF 3
ENDMDL
MODEL 9
REMARK VINA RESULT:      -6.7      1.836      2.367
REMARK  Name = 
REMARK  3 active torsions:
REMARK  status: ('A' for Active; 'I' for Inactive)
REMARK    1  A    between atoms: N_3  and  C_4
REMARK    2  A    between atoms: N_16  and  C_17
REMARK    3  A    between atoms: C_22  and  O_23
REMARK                            x       y       z     vdW  Elec       q    Type
REMARK                         _______ _______ _______ _____ _____    ______ ____
ROOT
ATOM      1  O   UNL     1       0.254   9.915  18.162  0.00  0.00    +0.000 OA
ATOM      2  C   UNL     1       0.353  10.007  19.384  0.00  0.00    +0.000 C 
ATOM      3  N   UNL     1       1.167   9.184  20.145  0.00  0.00    +0.000 N 
ATOM      4  N   UNL     1      -0.404  10.916  20.108  0.00  0.00    +0.000 N 
ATOM      5  C   UNL     1      -0.299  11.143  21.550  0.00  0.00    +0.000 C 
ATOM      6  C   UNL     1      -0.706  12.572  21.961  0.00  0.00    +0.000 C 
ATOM      7  N   UNL     1      -1.991  13.054  21.407  0.00  0.00    +0.000 NA
ATOM      8  C   UNL     1      -1.927  12.897  19.937  0.00  0.00    +0.000 C 
ATOM      9  C   UNL     1      -1.583  11.481  19.447  0.00  0.00    +0.000 C 
ATOM     10  H   UNL     1       0.726   8.894  21.006  0.00  0.00    +0.000 HD
ENDROOT
BRANCH   3  11
ATOM     11  C   UNL     1       1.958   8.195  19.507  0.00  0.00    +0.000 A 
ATOM     12  C   UNL     1       2.501   8.435  18.244  0.00  0.00    +0.000 A 
ATOM     13  C   UNL     1       3.189   7.431  17.558  0.00  0.00    +0.000 A 
ATOM     14  C   UNL     1       3.279   6.168  18.163  0.00  0.00    +0.000 A 
ATOM     15  S   UNL     1       3.962   4.715  17.538  0.00  0.00    +0.000 S 
ATOM     16  C   UNL     1       3.492   3.893  18.963  0.00  0.00    +0.000 A 
ATOM     17  N   UNL     1       2.910   4.616  19.893  0.00  0.00    +0.000 NA
ATOM     18  C   UNL     1       2.769   5.920  19.441  0.00  0.00    +0.000 A 
ATOM     19  C   UNL     1       2.138   6.969  20.142  0.00  0.00    +0.000 A 
ENDBRANCH   3  11
BRANCH   7  20
ATOM     20  C   UNL     1      -3.207  12.519  22.089  0.00  0.00    +0.000 C 
ATOM     21  C   UNL     1      -3.055  12.762  23.613  0.00  0.00    +0.000 C 
ATOM     22  C   UNL     1      -4.306  12.436  24.421  0.00  0.00    +0.000 C 
ATOM     23  C   UNL     1      -5.482  13.259  23.933  0.00  0.00    +0.000 C 
ATOM     24  C   UNL     1      -5.767  12.921  22.481  0.00  0.00    +0.000 C 
ATOM     25  C   UNL     1      -4.554  13.143  21.570  0.00  0.00    +0.000 C 
BRANCH  25  26
ATOM     26  O   UNL     1      -4.912  12.596  20.291  0.00  0.00    +0.000 OA
ATOM     27  H   UNL     1      -5.754  12.121  20.395  0.00  0.00    +0.000 HD
ENDBRANCH  25  26
ENDBRANCH   7  20
TORSDOF 3
ENDMDL
