MODEL 1
REMARK VINA RESULT:      -7.0      0.000      0.000
REMARK  Name = 
REMARK  2 active torsions:
REMARK  status: ('A' for Active; 'I' for Inactive)
REMARK    1  A    between atoms: C_1  and  C_2
REMARK    2  A    between atoms: C_6  and  C_8
REMARK                            x       y       z     vdW  Elec       q    Type
REMARK                         _______ _______ _______ _____ _____    ______ ____
ROOT
ATOM      1  C   UNL     1       1.112   2.489  22.042  0.00  0.00    +0.000 C 
ATOM      2  C   UNL     1       1.192   3.333  20.772  0.00  0.00    +0.000 C 
ATOM      3  C   UNL     1       1.297   2.436  19.528  0.00  0.00    +0.000 C 
ATOM      4  C   UNL     1       1.512   3.251  18.253  0.00  0.00    +0.000 C 
ATOM      5  N   UNL     1       2.638   4.169  18.404  0.00  0.00    +0.000 N 
ATOM      6  C   UNL     1       3.583   4.248  17.370  0.00  0.00    +0.000 C 
ATOM      7  O   UNL     1       3.449   3.560  16.355  0.00  0.00    +0.000 OA
ATOM      8  C   UNL     1       2.507   5.090  19.534  0.00  0.00    +0.000 C 
ATOM      9  C   UNL     1       2.379   4.305  20.836  0.00  0.00    +0.000 C 
ENDROOT
BRANCH   6  10
ATOM     10  C   UNL     1       4.700   5.172  17.473  0.00  0.00    +0.000 A 
ATOM     11  C   UNL     1       4.914   6.366  16.804  0.00  0.00    +0.000 A 
ATOM     12  C   UNL     1       6.123   6.913  17.299  0.00  0.00    +0.000 A 
ATOM     13  C   UNL     1       6.847   8.100  17.098  0.00  0.00    +0.000 A 
ATOM     14  C   UNL     1       8.028   8.299  17.827  0.00  0.00    +0.000 A 
ATOM     15  C   UNL     1       8.491   7.333  18.725  0.00  0.00    +0.000 A 
ATOM     16  C   UNL     1       7.793   6.137  18.925  0.00  0.00    +0.000 A 
ATOM     17  C   UNL     1       6.617   5.978  18.197  0.00  0.00    +0.000 A 
ATOM     18  O   UNL     1       5.782   4.905  18.270  0.00  0.00    +0.000 OA
ENDBRANCH   6  10
TORSDOF 1
ENDMDL
MODEL 2
REMARK VINA RESULT:      -7.0      2.559      6.346
REMARK  Name = 
REMARK  2 active torsions:
REMARK  status: ('A' for Active; 'I' for Inactive)
REMARK    1  A    between atoms: C_1  and  C_2
REMARK    2  A    between atoms: C_6  and  C_8
REMARK                            x       y       z     vdW  Elec       q    Type
REMARK                         _______ _______ _______ _____ _____    ______ ____
ROOT
ATOM      1  C   UNL     1       6.289   3.592  12.430  0.00  0.00    +0.000 C 
ATOM      2  C   UNL     1       6.245   4.526  13.637  0.00  0.00    +0.000 C 
ATOM      3  C   UNL     1       7.503   4.354  14.504  0.00  0.00    +0.000 C 
ATOM      4  C   UNL     1       7.427   5.178  15.789  0.00  0.00    +0.000 C 
ATOM      5  N   UNL     1       6.184   4.911  16.509  0.00  0.00    +0.000 N 
ATOM      6  C   UNL     1       6.246   4.683  17.892  0.00  0.00    +0.000 C 
ATOM      7  O   UNL     1       7.330   4.722  18.479  0.00  0.00    +0.000 OA
ATOM      8  C   UNL     1       4.976   5.157  15.721  0.00  0.00    +0.000 C 
ATOM      9  C   UNL     1       4.979   4.282  14.471  0.00  0.00    +0.000 C 
ENDROOT
BRANCH   6  10
ATOM     10  C   UNL     1       5.026   4.443  18.645  0.00  0.00    +0.000 A 
ATOM     11  C   UNL     1       4.331   5.300  19.483  0.00  0.00    +0.000 A 
ATOM     12  C   UNL     1       3.179   4.605  19.929  0.00  0.00    +0.000 A 
ATOM     13  C   UNL     1       2.059   4.917  20.719  0.00  0.00    +0.000 A 
ATOM     14  C   UNL     1       1.078   3.934  20.912  0.00  0.00    +0.000 A 
ATOM     15  C   UNL     1       1.214   2.661  20.349  0.00  0.00    +0.000 A 
ATOM     16  C   UNL     1       2.331   2.327  19.576  0.00  0.00    +0.000 A 
ATOM     17  C   UNL     1       3.278   3.331  19.391  0.00  0.00    +0.000 A 
ATOM     18  O   UNL     1       4.415   3.216  18.652  0.00  0.00    +0.000 OA
ENDBRANCH   6  10
TORSDOF 1
ENDMDL
MODEL 3
REMARK VINA RESULT:      -6.8      3.280      4.372
REMARK  Name = 
REMARK  2 active torsions:
REMARK  status: ('A' for Active; 'I' for Inactive)
REMARK    1  A    between atoms: C_1  and  C_2
REMARK    2  A    between atoms: C_6  and  C_8
REMARK                            x       y       z     vdW  Elec       q    Type
REMARK                         _______ _______ _______ _____ _____    ______ ____
ROOT
ATOM      1  C   UNL     1       1.038   4.169  19.800  0.00  0.00    +0.000 C 
ATOM      2  C   UNL     1       2.542   4.023  19.587  0.00  0.00    +0.000 C 
ATOM      3  C   UNL     1       3.269   5.339  19.911  0.00  0.00    +0.000 C 
ATOM      4  C   UNL     1       4.759   5.265  19.581  0.00  0.00    +0.000 C 
ATOM      5  N   UNL     1       4.968   4.809  18.209  0.00  0.00    +0.000 N 
ATOM      6  C   UNL     1       5.888   5.499  17.405  0.00  0.00    +0.000 C 
ATOM      7  O   UNL     1       6.510   6.462  17.862  0.00  0.00    +0.000 OA
ATOM      8  C   UNL     1       4.356   3.513  17.914  0.00  0.00    +0.000 C 
ATOM      9  C   UNL     1       2.850   3.579  18.150  0.00  0.00    +0.000 C 
ENDROOT
BRANCH   6  10
ATOM     10  C   UNL     1       6.143   5.055  16.045  0.00  0.00    +0.000 A 
ATOM     11  C   UNL     1       5.499   4.074  15.309  0.00  0.00    +0.000 A 
ATOM     12  C   UNL     1       6.087   4.064  14.020  0.00  0.00    +0.000 A 
ATOM     13  C   UNL     1       5.859   3.379  12.814  0.00  0.00    +0.000 A 
ATOM     14  C   UNL     1       6.662   3.682  11.706  0.00  0.00    +0.000 A 
ATOM     15  C   UNL     1       7.683   4.633  11.795  0.00  0.00    +0.000 A 
ATOM     16  C   UNL     1       7.936   5.312  12.992  0.00  0.00    +0.000 A 
ATOM     17  C   UNL     1       7.111   4.999  14.068  0.00  0.00    +0.000 A 
ATOM     18  O   UNL     1       7.176   5.566  15.304  0.00  0.00    +0.000 OA
ENDBRANCH   6  10
TORSDOF 1
ENDMDL
MODEL 4
REMARK VINA RESULT:      -6.8      3.542      5.241
REMARK  Name = 
REMARK  2 active torsions:
REMARK  status: ('A' for Active; 'I' for Inactive)
REMARK    1  A    between atoms: C_1  and  C_2
REMARK    2  A    between atoms: C_6  and  C_8
REMARK                            x       y       z     vdW  Elec       q    Type
REMARK                         _______ _______ _______ _____ _____    ______ ____
ROOT
ATOM      1  C   UNL     1       3.379   1.346  18.703  0.00  0.00    +0.000 C 
ATOM      2  C   UNL     1       3.138   2.600  17.865  0.00  0.00    +0.000 C 
ATOM      3  C   UNL     1       4.465   3.312  17.557  0.00  0.00    +0.000 C 
ATOM      4  C   UNL     1       4.246   4.640  16.833  0.00  0.00    +0.000 C 
ATOM      5  N   UNL     1       3.293   5.478  17.557  0.00  0.00    +0.000 N 
ATOM      6  C   UNL     1       3.605   6.831  17.756  0.00  0.00    +0.000 C 
ATOM      7  O   UNL     1       4.659   7.295  17.315  0.00  0.00    +0.000 OA
ATOM      8  C   UNL     1       1.993   4.843  17.778  0.00  0.00    +0.000 C 
ATOM      9  C   UNL     1       2.168   3.555  18.577  0.00  0.00    +0.000 C 
ENDROOT
BRANCH   6  10
ATOM     10  C   UNL     1       2.666   7.701  18.446  0.00  0.00    +0.000 A 
ATOM     11  C   UNL     1       1.990   8.812  17.970  0.00  0.00    +0.000 A 
ATOM     12  C   UNL     1       1.155   9.274  19.017  0.00  0.00    +0.000 A 
ATOM     13  C   UNL     1       0.191  10.286  19.163  0.00  0.00    +0.000 A 
ATOM     14  C   UNL     1      -0.470  10.412  20.394  0.00  0.00    +0.000 A 
ATOM     15  C   UNL     1      -0.169   9.562  21.463  0.00  0.00    +0.000 A 
ATOM     16  C   UNL     1       0.800   8.561  21.341  0.00  0.00    +0.000 A 
ATOM     17  C   UNL     1       1.427   8.454  20.102  0.00  0.00    +0.000 A 
ATOM     18  O   UNL     1       2.372   7.531  19.773  0.00  0.00    +0.000 OA
ENDBRANCH   6  10
TORSDOF 1
ENDMDL
MODEL 5
REMARK VINA RESULT:      -6.8      2.991      4.065
REMARK  Name = 
REMARK  2 active torsions:
REMARK  status: ('A' for Active; 'I' for Inactive)
REMARK    1  A    between atoms: C_1  and  C_2
REMARK    2  A    between atoms: C_6  and  C_8
REMARK                            x       y       z     vdW  Elec       q    Type
REMARK                         _______ _______ _______ _____ _____    ______ ____
ROOT
ATOM      1  C   UNL     1       0.520   3.210  19.415  0.00  0.00    +0.000 C 
ATOM      2  C   UNL     1       1.991   2.847  19.222  0.00  0.00    +0.000 C 
ATOM      3  C   UNL     1       2.890   3.734  20.098  0.00  0.00    +0.000 C 
ATOM      4  C   UNL     1       4.374   3.486  19.828  0.00  0.00    +0.000 C 
ATOM      5  N   UNL     1       4.670   3.588  18.401  0.00  0.00    +0.000 N 
ATOM      6  C   UNL     1       5.789   4.332  18.000  0.00  0.00    +0.000 C 
ATOM      7  O   UNL     1       6.508   4.873  18.843  0.00  0.00    +0.000 OA
ATOM      8  C   UNL     1       3.881   2.683  17.564  0.00  0.00    +0.000 C 
ATOM      9  C   UNL     1       2.393   2.965  17.744  0.00  0.00    +0.000 C 
ENDROOT
BRANCH   6  10
ATOM     10  C   UNL     1       6.131   4.431  16.590  0.00  0.00    +0.000 A 
ATOM     11  C   UNL     1       7.104   5.202  15.977  0.00  0.00    +0.000 A 
ATOM     12  C   UNL     1       7.070   4.898  14.594  0.00  0.00    +0.000 A 
ATOM     13  C   UNL     1       7.817   5.268  13.463  0.00  0.00    +0.000 A 
ATOM     14  C   UNL     1       7.484   4.705  12.222  0.00  0.00    +0.000 A 
ATOM     15  C   UNL     1       6.420   3.806  12.103  0.00  0.00    +0.000 A 
ATOM     16  C   UNL     1       5.653   3.439  13.215  0.00  0.00    +0.000 A 
ATOM     17  C   UNL     1       6.020   4.005  14.433  0.00  0.00    +0.000 A 
ATOM     18  O   UNL     1       5.423   3.756  15.630  0.00  0.00    +0.000 OA
ENDBRANCH   6  10
TORSDOF 1
ENDMDL
MODEL 6
REMARK VINA RESULT:      -6.8      3.293      5.645
REMARK  Name = 
REMARK  2 active torsions:
REMARK  status: ('A' for Active; 'I' for Inactive)
REMARK    1  A    between atoms: C_1  and  C_2
REMARK    2  A    between atoms: C_6  and  C_8
REMARK                            x       y       z     vdW  Elec       q    Type
REMARK                         _______ _______ _______ _____ _____    ______ ____
ROOT
ATOM      1  C   UNL     1       7.318   5.117  14.597  0.00  0.00    +0.000 C 
ATOM      2  C   UNL     1       6.606   4.899  15.930  0.00  0.00    +0.000 C 
ATOM      3  C   UNL     1       5.444   3.906  15.771  0.00  0.00    +0.000 C 
ATOM      4  C   UNL     1       4.629   3.769  17.057  0.00  0.00    +0.000 C 
ATOM      5  N   UNL     1       4.211   5.078  17.552  0.00  0.00    +0.000 N 
ATOM      6  C   UNL     1       2.879   5.247  17.959  0.00  0.00    +0.000 C 
ATOM      7  O   UNL     1       2.090   4.300  17.907  0.00  0.00    +0.000 OA
ATOM      8  C   UNL     1       5.318   6.004  17.792  0.00  0.00    +0.000 C 
ATOM      9  C   UNL     1       6.100   6.232  16.502  0.00  0.00    +0.000 C 
ENDROOT
BRANCH   6  10
ATOM     10  C   UNL     1       2.435   6.528  18.484  0.00  0.00    +0.000 A 
ATOM     11  C   UNL     1       2.254   7.731  17.822  0.00  0.00    +0.000 A 
ATOM     12  C   UNL     1       1.757   8.659  18.769  0.00  0.00    +0.000 A 
ATOM     13  C   UNL     1       1.314   9.993  18.735  0.00  0.00    +0.000 A 
ATOM     14  C   UNL     1       0.846  10.577  19.921  0.00  0.00    +0.000 A 
ATOM     15  C   UNL     1       0.835   9.859  21.121  0.00  0.00    +0.000 A 
ATOM     16  C   UNL     1       1.289   8.537  21.178  0.00  0.00    +0.000 A 
ATOM     17  C   UNL     1       1.732   7.983  19.980  0.00  0.00    +0.000 A 
ATOM     18  O   UNL     1       2.183   6.708  19.819  0.00  0.00    +0.000 OA
ENDBRANCH   6  10
TORSDOF 1
ENDMDL
MODEL 7
REMARK VINA RESULT:      -6.6      3.401      5.773
REMARK  Name = 
REMARK  2 active torsions:
REMARK  status: ('A' for Active; 'I' for Inactive)
REMARK    1  A    between atoms: C_1  and  C_2
REMARK    2  A    between atoms: C_6  and  C_8
REMARK                            x       y       z     vdW  Elec       q    Type
REMARK                         _______ _______ _______ _____ _____    ______ ____
ROOT
ATOM      1  C   UNL     1       6.049   4.110  13.742  0.00  0.00    +0.000 C 
ATOM      2  C   UNL     1       6.125   4.652  15.167  0.00  0.00    +0.000 C 
ATOM      3  C   UNL     1       5.678   3.585  16.180  0.00  0.00    +0.000 C 
ATOM      4  C   UNL     1       5.616   4.139  17.603  0.00  0.00    +0.000 C 
ATOM      5  N   UNL     1       4.816   5.360  17.655  0.00  0.00    +0.000 N 
ATOM      6  C   UNL     1       3.863   5.495  18.675  0.00  0.00    +0.000 C 
ATOM      7  O   UNL     1       3.719   4.600  19.512  0.00  0.00    +0.000 OA
ATOM      8  C   UNL     1       5.287   6.417  16.759  0.00  0.00    +0.000 C 
ATOM      9  C   UNL     1       5.277   5.923  15.315  0.00  0.00    +0.000 C 
ENDROOT
BRANCH   6  10
ATOM     10  C   UNL     1       3.070   6.709  18.774  0.00  0.00    +0.000 A 
ATOM     11  C   UNL     1       2.850   7.692  17.823  0.00  0.00    +0.000 A 
ATOM     12  C   UNL     1       1.961   8.636  18.394  0.00  0.00    +0.000 A 
ATOM     13  C   UNL     1       1.306   9.797  17.950  0.00  0.00    +0.000 A 
ATOM     14  C   UNL     1       0.446  10.463  18.836  0.00  0.00    +0.000 A 
ATOM     15  C   UNL     1       0.254   9.998  20.140  0.00  0.00    +0.000 A 
ATOM     16  C   UNL     1       0.912   8.854  20.604  0.00  0.00    +0.000 A 
ATOM     17  C   UNL     1       1.746   8.208  19.695  0.00  0.00    +0.000 A 
ATOM     18  O   UNL     1       2.450   7.069  19.942  0.00  0.00    +0.000 OA
ENDBRANCH   6  10
TORSDOF 1
ENDMDL
MODEL 8
REMARK VINA RESULT:      -6.6      2.547      6.455
REMARK  Name = 
REMARK  2 active torsions:
REMARK  status: ('A' for Active; 'I' for Inactive)
REMARK    1  A    between atoms: C_1  and  C_2
REMARK    2  A    between atoms: C_6  and  C_8
REMARK                            x       y       z     vdW  Elec       q    Type
REMARK                         _______ _______ _______ _____ _____    ______ ____
ROOT
ATOM      1  C   UNL     1       6.398   3.634  12.576  0.00  0.00    +0.000 C 
ATOM      2  C   UNL     1       6.199   4.532  13.795  0.00  0.00    +0.000 C 
ATOM      3  C   UNL     1       7.457   4.538  14.678  0.00  0.00    +0.000 C 
ATOM      4  C   UNL     1       7.242   5.320  15.973  0.00  0.00    +0.000 C 
ATOM      5  N   UNL     1       6.045   4.858  16.671  0.00  0.00    +0.000 N 
ATOM      6  C   UNL     1       6.123   4.620  18.051  0.00  0.00    +0.000 C 
ATOM      7  O   UNL     1       7.181   4.813  18.655  0.00  0.00    +0.000 OA
ATOM      8  C   UNL     1       4.824   4.932  15.868  0.00  0.00    +0.000 C 
ATOM      9  C   UNL     1       4.974   4.086  14.607  0.00  0.00    +0.000 C 
ENDROOT
BRANCH   6  10
ATOM     10  C   UNL     1       4.944   4.188  18.783  0.00  0.00    +0.000 A 
ATOM     11  C   UNL     1       4.747   3.033  19.523  0.00  0.00    +0.000 A 
ATOM     12  C   UNL     1       3.448   3.110  20.082  0.00  0.00    +0.000 A 
ATOM     13  C   UNL     1       2.682   2.325  20.960  0.00  0.00    +0.000 A 
ATOM     14  C   UNL     1       1.400   2.770  21.316  0.00  0.00    +0.000 A 
ATOM     15  C   UNL     1       0.882   3.960  20.797  0.00  0.00    +0.000 A 
ATOM     16  C   UNL     1       1.623   4.745  19.907  0.00  0.00    +0.000 A 
ATOM     17  C   UNL     1       2.896   4.283  19.587  0.00  0.00    +0.000 A 
ATOM     18  O   UNL     1       3.781   4.913  18.766  0.00  0.00    +0.000 OA
ENDBRANCH   6  10
TORSDOF 1
ENDMDL
MODEL 9
REMARK VINA RESULT:      -6.5      3.429      5.782
REMARK  Name = 
REMARK  2 active torsions:
REMARK  status: ('A' for Active; 'I' for Inactive)
REMARK    1  A    between atoms: C_1  and  C_2
REMARK    2  A    between atoms: C_6  and  C_8
REMARK                            x       y       z     vdW  Elec       q    Type
REMARK                         _______ _______ _______ _____ _____    ______ ____
ROOT
ATOM      1  C   UNL     1       6.014   4.522  14.322  0.00  0.00    +0.000 C 
ATOM      2  C   UNL     1       5.929   4.846  15.811  0.00  0.00    +0.000 C 
ATOM      3  C   UNL     1       5.254   3.698  16.581  0.00  0.00    +0.000 C 
ATOM      4  C   UNL     1       5.034   4.049  18.052  0.00  0.00    +0.000 C 
ATOM      5  N   UNL     1       4.338   5.326  18.186  0.00  0.00    +0.000 N 
ATOM      6  C   UNL     1       3.262   5.413  19.082  0.00  0.00    +0.000 C 
ATOM      7  O   UNL     1       2.927   4.428  19.746  0.00  0.00    +0.000 OA
ATOM      8  C   UNL     1       5.019   6.445  17.533  0.00  0.00    +0.000 C 
ATOM      9  C   UNL     1       5.175   6.164  16.041  0.00  0.00    +0.000 C 
ENDROOT
BRANCH   6  10
ATOM     10  C   UNL     1       2.566   6.676  19.263  0.00  0.00    +0.000 A 
ATOM     11  C   UNL     1       1.955   7.184  20.398  0.00  0.00    +0.000 A 
ATOM     12  C   UNL     1       1.469   8.474  20.070  0.00  0.00    +0.000 A 
ATOM     13  C   UNL     1       0.834   9.517  20.765  0.00  0.00    +0.000 A 
ATOM     14  C   UNL     1       0.529  10.698  20.072  0.00  0.00    +0.000 A 
ATOM     15  C   UNL     1       0.831  10.835  18.714  0.00  0.00    +0.000 A 
ATOM     16  C   UNL     1       1.447   9.800  18.002  0.00  0.00    +0.000 A 
ATOM     17  C   UNL     1       1.749   8.647  18.722  0.00  0.00    +0.000 A 
ATOM     18  O   UNL     1       2.372   7.545  18.222  0.00  0.00    +0.000 OA
ENDBRANCH   6  10
TORSDOF 1
ENDMDL
