MODEL 1
REMARK VINA RESULT:      -6.6      0.000      0.000
REMARK  Name = 
REMARK  9 active torsions:
REMARK  status: ('A' for Active; 'I' for Inactive)
REMARK    1  A    between atoms: C_1  and  C_2
REMARK    2  A    between atoms: C_2  and  O_4
REMARK    3  A    between atoms: O_4  and  C_5
REMARK    4  A    between atoms: C_5  and  C_6
REMARK    5  A    between atoms: C_7  and  C_8
REMARK    6  A    between atoms: N_9  and  O_10
REMARK    7  A    between atoms: C_14  and  N_15
REMARK    8  A    between atoms: C_16  and  C_18
REMARK    9  A    between atoms: C_18  and  C_19
REMARK                            x       y       z     vdW  Elec       q    Type
REMARK                         _______ _______ _______ _____ _____    ______ ____
ROOT
ATOM      1  C   UNL     1       4.663   4.809  16.945  0.00  0.00    +0.000 C 
ATOM      2  C   UNL     1       3.952   4.238  17.950  0.00  0.00    +0.000 C 
ATOM      3  N   UNL     1       2.999   4.937  18.643  0.00  0.00    +0.000 N 
ATOM      4  C   UNL     1       2.747   5.097  19.970  0.00  0.00    +0.000 C 
ATOM      5  O   UNL     1       3.135   4.568  20.989  0.00  0.00    +0.000 OA
ATOM      6  C   UNL     1       1.861   6.327  19.662  0.00  0.00    +0.000 C 
ATOM      7  C   UNL     1       2.522   6.260  18.255  0.00  0.00    +0.000 C 
ATOM      8  S   UNL     1       3.972   7.320  17.959  0.00  0.00    +0.000 S 
ATOM      9  C   UNL     1       4.561   6.284  16.593  0.00  0.00    +0.000 C 
ENDROOT
BRANCH   6  10
ATOM     10  N   UNL     1       2.058   7.568  20.459  0.00  0.00    +0.000 N 
ATOM     11  C   UNL     1       1.018   8.061  21.220  0.00  0.00    +0.000 C 
ATOM     12  O   UNL     1      -0.086   7.519  21.229  0.00  0.00    +0.000 OA
ATOM     13  H   UNL     1       2.976   7.997  20.521  0.00  0.00    +0.000 HD
BRANCH  11  14
ATOM     14  C   UNL     1       1.321   9.308  22.028  0.00  0.00    +0.000 C 
BRANCH  14  15
ATOM     15  C   UNL     1       0.315  10.375  21.724  0.00  0.00    +0.000 A 
ATOM     16  C   UNL     1       0.194  11.138  20.578  0.00  0.00    +0.000 A 
ATOM     17  C   UNL     1      -0.894  12.057  20.649  0.00  0.00    +0.000 A 
ATOM     18  C   UNL     1      -1.560  11.972  21.851  0.00  0.00    +0.000 A 
ATOM     19  S   UNL     1      -0.870  10.800  22.887  0.00  0.00    +0.000 S 
ENDBRANCH  14  15
ENDBRANCH  11  14
ENDBRANCH   6  10
BRANCH   2  20
ATOM     20  C   UNL     1       4.139   2.793  18.307  0.00  0.00    +0.000 C 
ATOM     21  N   UNL     1       3.398   1.823  17.882  0.00  0.00    +0.000 NA
BRANCH  21  22
ATOM     22  O   UNL     1       3.841   0.616  18.432  0.00  0.00    +0.000 OA
ATOM     23  H   UNL     1       3.269  -0.031  17.976  0.00  0.00    +0.000 HD
ENDBRANCH  21  22
ENDBRANCH   2  20
BRANCH   1  24
ATOM     24  C   UNL     1       5.728   4.116  16.117  0.00  0.00    +0.000 C 
BRANCH  24  25
ATOM     25  O   UNL     1       5.514   4.439  14.735  0.00  0.00    +0.000 OA
BRANCH  25  27
ATOM     26  C   UNL     1       6.518   3.739  12.733  0.00  0.00    +0.000 C 
ATOM     27  C   UNL     1       6.633   4.576  13.970  0.00  0.00    +0.000 C 
ATOM     28  O   UNL     1       7.584   5.300  14.224  0.00  0.00    +0.000 OA
ENDBRANCH  25  27
ENDBRANCH  24  25
ENDBRANCH   1  24
TORSDOF 8
ENDMDL
MODEL 2
REMARK VINA RESULT:      -6.4      1.271      1.772
REMARK  Name = 
REMARK  9 active torsions:
REMARK  status: ('A' for Active; 'I' for Inactive)
REMARK    1  A    between atoms: C_1  and  C_2
REMARK    2  A    between atoms: C_2  and  O_4
REMARK    3  A    between atoms: O_4  and  C_5
REMARK    4  A    between atoms: C_5  and  C_6
REMARK    5  A    between atoms: C_7  and  C_8
REMARK    6  A    between atoms: N_9  and  O_10
REMARK    7  A    between atoms: C_14  and  N_15
REMARK    8  A    between atoms: C_16  and  C_18
REMARK    9  A    between atoms: C_18  and  C_19
REMARK                            x       y       z     vdW  Elec       q    Type
REMARK                         _______ _______ _______ _____ _____    ______ ____
ROOT
ATOM      1  C   UNL     1       4.429   5.015  17.027  0.00  0.00    +0.000 C 
ATOM      2  C   UNL     1       3.777   4.385  18.037  0.00  0.00    +0.000 C 
ATOM      3  N   UNL     1       2.830   5.027  18.791  0.00  0.00    +0.000 N 
ATOM      4  C   UNL     1       2.625   5.130  20.132  0.00  0.00    +0.000 C 
ATOM      5  O   UNL     1       3.070   4.577  21.114  0.00  0.00    +0.000 OA
ATOM      6  C   UNL     1       1.690   6.341  19.904  0.00  0.00    +0.000 C 
ATOM      7  C   UNL     1       2.297   6.347  18.472  0.00  0.00    +0.000 C 
ATOM      8  S   UNL     1       3.700   7.464  18.161  0.00  0.00    +0.000 S 
ATOM      9  C   UNL     1       4.267   6.499  16.735  0.00  0.00    +0.000 C 
ENDROOT
BRANCH   6  10
ATOM     10  N   UNL     1       1.879   7.557  20.740  0.00  0.00    +0.000 N 
ATOM     11  C   UNL     1       0.810   8.075  21.442  0.00  0.00    +0.000 C 
ATOM     12  O   UNL     1      -0.312   7.576  21.366  0.00  0.00    +0.000 OA
ATOM     13  H   UNL     1       2.806   7.950  20.871  0.00  0.00    +0.000 HD
BRANCH  11  14
ATOM     14  C   UNL     1       1.104   9.294  22.295  0.00  0.00    +0.000 C 
BRANCH  14  15
ATOM     15  C   UNL     1       0.015  10.309  22.134  0.00  0.00    +0.000 A 
ATOM     16  C   UNL     1      -0.923  10.717  23.063  0.00  0.00    +0.000 A 
ATOM     17  C   UNL     1      -1.802  11.713  22.545  0.00  0.00    +0.000 A 
ATOM     18  C   UNL     1      -1.513  12.024  21.236  0.00  0.00    +0.000 A 
ATOM     19  S   UNL     1      -0.197  11.114  20.634  0.00  0.00    +0.000 S 
ENDBRANCH  14  15
ENDBRANCH  11  14
ENDBRANCH   6  10
BRANCH   2  20
ATOM     20  C   UNL     1       4.023   2.935  18.331  0.00  0.00    +0.000 C 
ATOM     21  N   UNL     1       3.313   1.956  17.875  0.00  0.00    +0.000 NA
BRANCH  21  22
ATOM     22  O   UNL     1       3.808   0.745  18.370  0.00  0.00    +0.000 OA
ATOM     23  H   UNL     1       3.131   0.114  18.061  0.00  0.00    +0.000 HD
ENDBRANCH  21  22
ENDBRANCH   2  20
BRANCH   1  24
ATOM     24  C   UNL     1       5.482   4.388  16.134  0.00  0.00    +0.000 C 
BRANCH  24  25
ATOM     25  O   UNL     1       6.711   4.297  16.870  0.00  0.00    +0.000 OA
BRANCH  25  27
ATOM     26  C   UNL     1       7.632   5.586  18.601  0.00  0.00    +0.000 C 
ATOM     27  C   UNL     1       7.341   5.475  17.135  0.00  0.00    +0.000 C 
ATOM     28  O   UNL     1       7.662   6.312  16.306  0.00  0.00    +0.000 OA
ENDBRANCH  25  27
ENDBRANCH  24  25
ENDBRANCH   1  24
TORSDOF 8
ENDMDL
MODEL 3
REMARK VINA RESULT:      -6.2      1.509      1.913
REMARK  Name = 
REMARK  9 active torsions:
REMARK  status: ('A' for Active; 'I' for Inactive)
REMARK    1  A    between atoms: C_1  and  C_2
REMARK    2  A    between atoms: C_2  and  O_4
REMARK    3  A    between atoms: O_4  and  C_5
REMARK    4  A    between atoms: C_5  and  C_6
REMARK    5  A    between atoms: C_7  and  C_8
REMARK    6  A    between atoms: N_9  and  O_10
REMARK    7  A    between atoms: C_14  and  N_15
REMARK    8  A    between atoms: C_16  and  C_18
REMARK    9  A    between atoms: C_18  and  C_19
REMARK                            x       y       z     vdW  Elec       q    Type
REMARK                         _______ _______ _______ _____ _____    ______ ____
ROOT
ATOM      1  C   UNL     1       4.543   5.120  17.206  0.00  0.00    +0.000 C 
ATOM      2  C   UNL     1       3.839   4.580  18.232  0.00  0.00    +0.000 C 
ATOM      3  N   UNL     1       2.816   5.261  18.838  0.00  0.00    +0.000 N 
ATOM      4  C   UNL     1       2.508   5.505  20.141  0.00  0.00    +0.000 C 
ATOM      5  O   UNL     1       2.896   5.086  21.209  0.00  0.00    +0.000 OA
ATOM      6  C   UNL     1       1.552   6.642  19.709  0.00  0.00    +0.000 C 
ATOM      7  C   UNL     1       2.264   6.513  18.333  0.00  0.00    +0.000 C 
ATOM      8  S   UNL     1       3.648   7.647  17.996  0.00  0.00    +0.000 S 
ATOM      9  C   UNL     1       4.353   6.553  16.734  0.00  0.00    +0.000 C 
ENDROOT
BRANCH   6  10
ATOM     10  N   UNL     1       1.635   7.951  20.411  0.00  0.00    +0.000 N 
ATOM     11  C   UNL     1       0.613   8.341  21.251  0.00  0.00    +0.000 C 
ATOM     12  O   UNL     1      -0.391   7.647  21.409  0.00  0.00    +0.000 OA
ATOM     13  H   UNL     1       2.479   8.512  20.349  0.00  0.00    +0.000 HD
BRANCH  11  14
ATOM     14  C   UNL     1       0.800   9.673  21.952  0.00  0.00    +0.000 C 
BRANCH  14  15
ATOM     15  C   UNL     1      -0.142  10.690  21.385  0.00  0.00    +0.000 A 
ATOM     16  C   UNL     1      -0.529  10.862  20.069  0.00  0.00    +0.000 A 
ATOM     17  C   UNL     1      -1.449  11.938  19.910  0.00  0.00    +0.000 A 
ATOM     18  C   UNL     1      -1.726  12.560  21.108  0.00  0.00    +0.000 A 
ATOM     19  S   UNL     1      -0.873  11.853  22.410  0.00  0.00    +0.000 S 
ENDBRANCH  14  15
ENDBRANCH  11  14
ENDBRANCH   6  10
BRANCH   2  20
ATOM     20  C   UNL     1       4.112   3.184  18.708  0.00  0.00    +0.000 C 
ATOM     21  N   UNL     1       4.985   2.864  19.606  0.00  0.00    +0.000 NA
BRANCH  21  22
ATOM     22  O   UNL     1       4.991   1.477  19.784  0.00  0.00    +0.000 OA
ATOM     23  H   UNL     1       5.939   1.302  19.939  0.00  0.00    +0.000 HD
ENDBRANCH  21  22
ENDBRANCH   2  20
BRANCH   1  24
ATOM     24  C   UNL     1       5.681   4.442  16.467  0.00  0.00    +0.000 C 
BRANCH  24  25
ATOM     25  O   UNL     1       6.848   5.274  16.562  0.00  0.00    +0.000 OA
BRANCH  25  27
ATOM     26  C   UNL     1       7.608   6.171  18.592  0.00  0.00    +0.000 C 
ATOM     27  C   UNL     1       7.673   5.034  17.618  0.00  0.00    +0.000 C 
ATOM     28  O   UNL     1       8.347   4.028  17.780  0.00  0.00    +0.000 OA
ENDBRANCH  25  27
ENDBRANCH  24  25
ENDBRANCH   1  24
TORSDOF 8
ENDMDL
MODEL 4
REMARK VINA RESULT:      -6.1      1.304      1.401
REMARK  Name = 
REMARK  9 active torsions:
REMARK  status: ('A' for Active; 'I' for Inactive)
REMARK    1  A    between atoms: C_1  and  C_2
REMARK    2  A    between atoms: C_2  and  O_4
REMARK    3  A    between atoms: O_4  and  C_5
REMARK    4  A    between atoms: C_5  and  C_6
REMARK    5  A    between atoms: C_7  and  C_8
REMARK    6  A    between atoms: N_9  and  O_10
REMARK    7  A    between atoms: C_14  and  N_15
REMARK    8  A    between atoms: C_16  and  C_18
REMARK    9  A    between atoms: C_18  and  C_19
REMARK                            x       y       z     vdW  Elec       q    Type
REMARK                         _______ _______ _______ _____ _____    ______ ____
ROOT
ATOM      1  C   UNL     1       4.822   5.181  17.097  0.00  0.00    +0.000 C 
ATOM      2  C   UNL     1       4.041   4.687  18.092  0.00  0.00    +0.000 C 
ATOM      3  N   UNL     1       2.989   5.401  18.600  0.00  0.00    +0.000 N 
ATOM      4  C   UNL     1       2.595   5.697  19.869  0.00  0.00    +0.000 C 
ATOM      5  O   UNL     1       2.903   5.313  20.976  0.00  0.00    +0.000 OA
ATOM      6  C   UNL     1       1.686   6.827  19.332  0.00  0.00    +0.000 C 
ATOM      7  C   UNL     1       2.489   6.639  18.013  0.00  0.00    +0.000 C 
ATOM      8  S   UNL     1       3.908   7.745  17.731  0.00  0.00    +0.000 S 
ATOM      9  C   UNL     1       4.684   6.597  16.562  0.00  0.00    +0.000 C 
ENDROOT
BRANCH   6  10
ATOM     10  N   UNL     1       1.739   8.160  19.989  0.00  0.00    +0.000 N 
ATOM     11  C   UNL     1       0.852   8.456  21.004  0.00  0.00    +0.000 C 
ATOM     12  O   UNL     1      -0.011   7.653  21.359  0.00  0.00    +0.000 OA
ATOM     13  H   UNL     1       2.481   8.815  19.761  0.00  0.00    +0.000 HD
BRANCH  11  14
ATOM     14  C   UNL     1       1.003   9.824  21.641  0.00  0.00    +0.000 C 
BRANCH  14  15
ATOM     15  C   UNL     1       0.663  10.893  20.649  0.00  0.00    +0.000 A 
ATOM     16  C   UNL     1       1.379  12.033  20.337  0.00  0.00    +0.000 A 
ATOM     17  C   UNL     1       0.739  12.818  19.334  0.00  0.00    +0.000 A 
ATOM     18  C   UNL     1      -0.449  12.257  18.922  0.00  0.00    +0.000 A 
ATOM     19  S   UNL     1      -0.792  10.800  19.748  0.00  0.00    +0.000 S 
ENDBRANCH  14  15
ENDBRANCH  11  14
ENDBRANCH   6  10
BRANCH   2  20
ATOM     20  C   UNL     1       4.262   3.306  18.635  0.00  0.00    +0.000 C 
ATOM     21  N   UNL     1       4.992   3.023  19.664  0.00  0.00    +0.000 NA
BRANCH  21  22
ATOM     22  O   UNL     1       4.995   1.640  19.872  0.00  0.00    +0.000 OA
ATOM     23  H   UNL     1       4.390   1.333  19.171  0.00  0.00    +0.000 HD
ENDBRANCH  21  22
ENDBRANCH   2  20
BRANCH   1  24
ATOM     24  C   UNL     1       5.999   4.464  16.464  0.00  0.00    +0.000 C 
BRANCH  24  25
ATOM     25  O   UNL     1       6.750   5.412  15.692  0.00  0.00    +0.000 OA
BRANCH  25  27
ATOM     26  C   UNL     1       6.226   3.891  13.984  0.00  0.00    +0.000 C 
ATOM     27  C   UNL     1       7.100   5.021  14.435  0.00  0.00    +0.000 C 
ATOM     28  O   UNL     1       7.972   5.531  13.749  0.00  0.00    +0.000 OA
ENDBRANCH  25  27
ENDBRANCH  24  25
ENDBRANCH   1  24
TORSDOF 8
ENDMDL
MODEL 5
REMARK VINA RESULT:      -5.9      1.229      1.309
REMARK  Name = 
REMARK  9 active torsions:
REMARK  status: ('A' for Active; 'I' for Inactive)
REMARK    1  A    between atoms: C_1  and  C_2
REMARK    2  A    between atoms: C_2  and  O_4
REMARK    3  A    between atoms: O_4  and  C_5
REMARK    4  A    between atoms: C_5  and  C_6
REMARK    5  A    between atoms: C_7  and  C_8
REMARK    6  A    between atoms: N_9  and  O_10
REMARK    7  A    between atoms: C_14  and  N_15
REMARK    8  A    between atoms: C_16  and  C_18
REMARK    9  A    between atoms: C_18  and  C_19
REMARK                            x       y       z     vdW  Elec       q    Type
REMARK                         _______ _______ _______ _____ _____    ______ ____
ROOT
ATOM      1  C   UNL     1       4.143   4.701  17.527  0.00  0.00    +0.000 C 
ATOM      2  C   UNL     1       3.565   4.151  18.624  0.00  0.00    +0.000 C 
ATOM      3  N   UNL     1       2.607   4.818  19.342  0.00  0.00    +0.000 N 
ATOM      4  C   UNL     1       2.443   5.056  20.672  0.00  0.00    +0.000 C 
ATOM      5  O   UNL     1       2.953   4.640  21.689  0.00  0.00    +0.000 OA
ATOM      6  C   UNL     1       1.430   6.181  20.353  0.00  0.00    +0.000 C 
ATOM      7  C   UNL     1       1.985   6.062  18.905  0.00  0.00    +0.000 C 
ATOM      8  S   UNL     1       3.309   7.216  18.419  0.00  0.00    +0.000 S 
ATOM      9  C   UNL     1       3.883   6.132  17.083  0.00  0.00    +0.000 C 
ENDROOT
BRANCH   6  10
ATOM     10  N   UNL     1       1.574   7.490  21.044  0.00  0.00    +0.000 N 
ATOM     11  C   UNL     1       0.457   8.120  21.552  0.00  0.00    +0.000 C 
ATOM     12  O   UNL     1      -0.669   7.642  21.415  0.00  0.00    +0.000 OA
ATOM     13  H   UNL     1       2.497   7.874  21.227  0.00  0.00    +0.000 HD
BRANCH  11  14
ATOM     14  C   UNL     1       0.703   9.432  22.272  0.00  0.00    +0.000 C 
BRANCH  14  15
ATOM     15  C   UNL     1       0.116  10.566  21.491  0.00  0.00    +0.000 A 
ATOM     16  C   UNL     1       0.307  10.880  20.158  0.00  0.00    +0.000 A 
ATOM     17  C   UNL     1      -0.425  12.038  19.763  0.00  0.00    +0.000 A 
ATOM     18  C   UNL     1      -1.140  12.576  20.810  0.00  0.00    +0.000 A 
ATOM     19  S   UNL     1      -0.921  11.695  22.258  0.00  0.00    +0.000 S 
ENDBRANCH  14  15
ENDBRANCH  11  14
ENDBRANCH   6  10
BRANCH   2  20
ATOM     20  C   UNL     1       3.907   2.757  19.063  0.00  0.00    +0.000 C 
ATOM     21  N   UNL     1       4.903   2.444  19.824  0.00  0.00    +0.000 NA
BRANCH  21  22
ATOM     22  O   UNL     1       4.938   1.058  20.008  0.00  0.00    +0.000 OA
ATOM     23  H   UNL     1       4.163   0.771  19.487  0.00  0.00    +0.000 HD
ENDBRANCH  21  22
ENDBRANCH   2  20
BRANCH   1  24
ATOM     24  C   UNL     1       5.200   4.039  16.664  0.00  0.00    +0.000 C 
BRANCH  24  25
ATOM     25  O   UNL     1       6.480   4.598  17.000  0.00  0.00    +0.000 OA
BRANCH  25  27
ATOM     26  C   UNL     1       6.944   4.659  14.700  0.00  0.00    +0.000 C 
ATOM     27  C   UNL     1       7.086   5.336  16.030  0.00  0.00    +0.000 C 
ATOM     28  O   UNL     1       7.639   6.412  16.196  0.00  0.00    +0.000 OA
ENDBRANCH  25  27
ENDBRANCH  24  25
ENDBRANCH   1  24
TORSDOF 8
ENDMDL
MODEL 6
REMARK VINA RESULT:      -5.9      1.589      1.833
REMARK  Name = 
REMARK  9 active torsions:
REMARK  status: ('A' for Active; 'I' for Inactive)
REMARK    1  A    between atoms: C_1  and  C_2
REMARK    2  A    between atoms: C_2  and  O_4
REMARK    3  A    between atoms: O_4  and  C_5
REMARK    4  A    between atoms: C_5  and  C_6
REMARK    5  A    between atoms: C_7  and  C_8
REMARK    6  A    between atoms: N_9  and  O_10
REMARK    7  A    between atoms: C_14  and  N_15
REMARK    8  A    between atoms: C_16  and  C_18
REMARK    9  A    between atoms: C_18  and  C_19
REMARK                            x       y       z     vdW  Elec       q    Type
REMARK                         _______ _______ _______ _____ _____    ______ ____
ROOT
ATOM      1  C   UNL     1       5.734   5.384  17.179  0.00  0.00    +0.000 C 
ATOM      2  C   UNL     1       4.653   4.927  17.861  0.00  0.00    +0.000 C 
ATOM      3  N   UNL     1       3.548   5.711  18.063  0.00  0.00    +0.000 N 
ATOM      4  C   UNL     1       2.804   5.999  19.166  0.00  0.00    +0.000 C 
ATOM      5  O   UNL     1       2.729   5.558  20.291  0.00  0.00    +0.000 OA
ATOM      6  C   UNL     1       2.186   7.217  18.439  0.00  0.00    +0.000 C 
ATOM      7  C   UNL     1       3.340   7.003  17.419  0.00  0.00    +0.000 C 
ATOM      8  S   UNL     1       4.850   7.996  17.643  0.00  0.00    +0.000 S 
ATOM      9  C   UNL     1       5.866   6.823  16.705  0.00  0.00    +0.000 C 
ENDROOT
BRANCH   6  10
ATOM     10  N   UNL     1       2.126   8.521  19.153  0.00  0.00    +0.000 N 
ATOM     11  C   UNL     1       1.124   9.419  18.849  0.00  0.00    +0.000 C 
ATOM     12  O   UNL     1       0.293   9.184  17.973  0.00  0.00    +0.000 OA
ATOM     13  H   UNL     1       2.758   8.712  19.924  0.00  0.00    +0.000 HD
BRANCH  11  14
ATOM     14  C   UNL     1       1.120  10.706  19.652  0.00  0.00    +0.000 C 
BRANCH  14  15
ATOM     15  C   UNL     1       0.416  10.495  20.957  0.00  0.00    +0.000 A 
ATOM     16  C   UNL     1       0.529   9.431  21.831  0.00  0.00    +0.000 A 
ATOM     17  C   UNL     1      -0.299   9.583  22.981  0.00  0.00    +0.000 A 
ATOM     18  C   UNL     1      -1.025  10.752  22.942  0.00  0.00    +0.000 A 
ATOM     19  S   UNL     1      -0.714  11.654  21.523  0.00  0.00    +0.000 S 
ENDBRANCH  14  15
ENDBRANCH  11  14
ENDBRANCH   6  10
BRANCH   2  20
ATOM     20  C   UNL     1       4.599   3.517  18.370  0.00  0.00    +0.000 C 
ATOM     21  N   UNL     1       5.099   3.116  19.493  0.00  0.00    +0.000 NA
BRANCH  21  22
ATOM     22  O   UNL     1       4.890   1.740  19.636  0.00  0.00    +0.000 OA
ATOM     23  H   UNL     1       4.396   1.702  20.478  0.00  0.00    +0.000 HD
ENDBRANCH  21  22
ENDBRANCH   2  20
BRANCH   1  24
ATOM     24  C   UNL     1       6.995   4.592  16.896  0.00  0.00    +0.000 C 
BRANCH  24  25
ATOM     25  O   UNL     1       6.780   3.793  15.723  0.00  0.00    +0.000 OA
BRANCH  25  27
ATOM     26  C   UNL     1       5.792   3.961  13.601  0.00  0.00    +0.000 C 
ATOM     27  C   UNL     1       6.865   4.443  14.530  0.00  0.00    +0.000 C 
ATOM     28  O   UNL     1       7.669   5.320  14.253  0.00  0.00    +0.000 OA
ENDBRANCH  25  27
ENDBRANCH  24  25
ENDBRANCH   1  24
TORSDOF 8
ENDMDL
MODEL 7
REMARK VINA RESULT:      -5.8      4.240     10.370
REMARK  Name = 
REMARK  9 active torsions:
REMARK  status: ('A' for Active; 'I' for Inactive)
REMARK    1  A    between atoms: C_1  and  C_2
REMARK    2  A    between atoms: C_2  and  O_4
REMARK    3  A    between atoms: O_4  and  C_5
REMARK    4  A    between atoms: C_5  and  C_6
REMARK    5  A    between atoms: C_7  and  C_8
REMARK    6  A    between atoms: N_9  and  O_10
REMARK    7  A    between atoms: C_14  and  N_15
REMARK    8  A    between atoms: C_16  and  C_18
REMARK    9  A    between atoms: C_18  and  C_19
REMARK                            x       y       z     vdW  Elec       q    Type
REMARK                         _______ _______ _______ _____ _____    ______ ____
ROOT
ATOM      1  C   UNL     1      -0.811  12.358  22.205  0.00  0.00    +0.000 C 
ATOM      2  C   UNL     1      -0.308  12.569  20.962  0.00  0.00    +0.000 C 
ATOM      3  N   UNL     1      -0.033  11.530  20.113  0.00  0.00    +0.000 N 
ATOM      4  C   UNL     1       1.051  11.214  19.353  0.00  0.00    +0.000 C 
ATOM      5  O   UNL     1       2.062  11.792  19.016  0.00  0.00    +0.000 OA
ATOM      6  C   UNL     1       0.536   9.763  19.206  0.00  0.00    +0.000 C 
ATOM      7  C   UNL     1      -0.425  10.148  20.367  0.00  0.00    +0.000 C 
ATOM      8  S   UNL     1       0.091   9.716  22.059  0.00  0.00    +0.000 S 
ATOM      9  C   UNL     1      -0.986  10.971  22.803  0.00  0.00    +0.000 C 
ENDROOT
BRANCH   6  10
ATOM     10  N   UNL     1       1.484   8.641  19.436  0.00  0.00    +0.000 N 
ATOM     11  C   UNL     1       2.248   8.168  18.390  0.00  0.00    +0.000 C 
ATOM     12  O   UNL     1       2.140   8.630  17.254  0.00  0.00    +0.000 OA
ATOM     13  H   UNL     1       1.640   8.286  20.375  0.00  0.00    +0.000 HD
BRANCH  11  14
ATOM     14  C   UNL     1       3.213   7.047  18.725  0.00  0.00    +0.000 C 
BRANCH  14  15
ATOM     15  C   UNL     1       2.456   5.821  19.132  0.00  0.00    +0.000 A 
ATOM     16  C   UNL     1       2.028   5.456  20.394  0.00  0.00    +0.000 A 
ATOM     17  C   UNL     1       1.330   4.214  20.393  0.00  0.00    +0.000 A 
ATOM     18  C   UNL     1       1.257   3.666  19.132  0.00  0.00    +0.000 A 
ATOM     19  S   UNL     1       2.035   4.641  17.962  0.00  0.00    +0.000 S 
ENDBRANCH  14  15
ENDBRANCH  11  14
ENDBRANCH   6  10
BRANCH   2  20
ATOM     20  C   UNL     1      -0.088  13.959  20.442  0.00  0.00    +0.000 C 
ATOM     21  N   UNL     1      -0.903  14.598  19.670  0.00  0.00    +0.000 NA
BRANCH  21  22
ATOM     22  O   UNL     1      -0.371  15.854  19.361  0.00  0.00    +0.000 OA
ATOM     23  H   UNL     1      -0.042  16.149  20.231  0.00  0.00    +0.000 HD
ENDBRANCH  21  22
ENDBRANCH   2  20
BRANCH   1  24
ATOM     24  C   UNL     1      -1.156  13.440  23.210  0.00  0.00    +0.000 C 
BRANCH  24  25
ATOM     25  O   UNL     1      -2.533  13.805  23.034  0.00  0.00    +0.000 OA
BRANCH  25  27
ATOM     26  C   UNL     1      -3.384  14.461  25.120  0.00  0.00    +0.000 C 
ATOM     27  C   UNL     1      -3.385  13.433  24.030  0.00  0.00    +0.000 C 
ATOM     28  O   UNL     1      -4.081  12.430  24.032  0.00  0.00    +0.000 OA
ENDBRANCH  25  27
ENDBRANCH  24  25
ENDBRANCH   1  24
TORSDOF 8
ENDMDL
MODEL 8
REMARK VINA RESULT:      -5.8      0.950      1.058
REMARK  Name = 
REMARK  9 active torsions:
REMARK  status: ('A' for Active; 'I' for Inactive)
REMARK    1  A    between atoms: C_1  and  C_2
REMARK    2  A    between atoms: C_2  and  O_4
REMARK    3  A    between atoms: O_4  and  C_5
REMARK    4  A    between atoms: C_5  and  C_6
REMARK    5  A    between atoms: C_7  and  C_8
REMARK    6  A    between atoms: N_9  and  O_10
REMARK    7  A    between atoms: C_14  and  N_15
REMARK    8  A    between atoms: C_16  and  C_18
REMARK    9  A    between atoms: C_18  and  C_19
REMARK                            x       y       z     vdW  Elec       q    Type
REMARK                         _______ _______ _______ _____ _____    ______ ____
ROOT
ATOM      1  C   UNL     1       4.684   5.004  17.023  0.00  0.00    +0.000 C 
ATOM      2  C   UNL     1       3.766   4.573  17.925  0.00  0.00    +0.000 C 
ATOM      3  N   UNL     1       2.821   5.416  18.446  0.00  0.00    +0.000 N 
ATOM      4  C   UNL     1       2.400   5.666  19.716  0.00  0.00    +0.000 C 
ATOM      5  O   UNL     1       2.563   5.139  20.795  0.00  0.00    +0.000 OA
ATOM      6  C   UNL     1       1.736   6.982  19.245  0.00  0.00    +0.000 C 
ATOM      7  C   UNL     1       2.581   6.768  17.957  0.00  0.00    +0.000 C 
ATOM      8  S   UNL     1       4.184   7.626  17.855  0.00  0.00    +0.000 S 
ATOM      9  C   UNL     1       4.827   6.463  16.621  0.00  0.00    +0.000 C 
ENDROOT
BRANCH   6  10
ATOM     10  N   UNL     1       1.973   8.222  20.030  0.00  0.00    +0.000 N 
ATOM     11  C   UNL     1       1.132   9.304  19.868  0.00  0.00    +0.000 C 
ATOM     12  O   UNL     1       0.205   9.282  19.059  0.00  0.00    +0.000 OA
ATOM     13  H   UNL     1       2.689   8.244  20.750  0.00  0.00    +0.000 HD
BRANCH  11  14
ATOM     14  C   UNL     1       1.427  10.512  20.736  0.00  0.00    +0.000 C 
BRANCH  14  15
ATOM     15  C   UNL     1       0.206  10.900  21.510  0.00  0.00    +0.000 A 
ATOM     16  C   UNL     1      -0.634  11.978  21.304  0.00  0.00    +0.000 A 
ATOM     17  C   UNL     1      -1.704  12.020  22.246  0.00  0.00    +0.000 A 
ATOM     18  C   UNL     1      -1.639  10.980  23.145  0.00  0.00    +0.000 A 
ATOM     19  S   UNL     1      -0.291   9.967  22.860  0.00  0.00    +0.000 S 
ENDBRANCH  14  15
ENDBRANCH  11  14
ENDBRANCH   6  10
BRANCH   2  20
ATOM     20  C   UNL     1       3.710   3.133  18.343  0.00  0.00    +0.000 C 
ATOM     21  N   UNL     1       2.867   2.263  17.892  0.00  0.00    +0.000 NA
BRANCH  21  22
ATOM     22  O   UNL     1       3.083   1.030  18.516  0.00  0.00    +0.000 OA
ATOM     23  H   UNL     1       2.717   1.193  19.406  0.00  0.00    +0.000 HD
ENDBRANCH  21  22
ENDBRANCH   2  20
BRANCH   1  24
ATOM     24  C   UNL     1       5.759   4.147  16.384  0.00  0.00    +0.000 C 
BRANCH  24  25
ATOM     25  O   UNL     1       5.500   4.064  14.974  0.00  0.00    +0.000 OA
BRANCH  25  27
ATOM     26  C   UNL     1       6.376   3.721  12.825  0.00  0.00    +0.000 C 
ATOM     27  C   UNL     1       6.533   4.398  14.152  0.00  0.00    +0.000 C 
ATOM     28  O   UNL     1       7.442   5.165  14.429  0.00  0.00    +0.000 OA
ENDBRANCH  25  27
ENDBRANCH  24  25
ENDBRANCH   1  24
TORSDOF 8
ENDMDL
MODEL 9
REMARK VINA RESULT:      -5.7      3.034      9.761
REMARK  Name = 
REMARK  9 active torsions:
REMARK  status: ('A' for Active; 'I' for Inactive)
REMARK    1  A    between atoms: C_1  and  C_2
REMARK    2  A    between atoms: C_2  and  O_4
REMARK    3  A    between atoms: O_4  and  C_5
REMARK    4  A    between atoms: C_5  and  C_6
REMARK    5  A    between atoms: C_7  and  C_8
REMARK    6  A    between atoms: N_9  and  O_10
REMARK    7  A    between atoms: C_14  and  N_15
REMARK    8  A    between atoms: C_16  and  C_18
REMARK    9  A    between atoms: C_18  and  C_19
REMARK                            x       y       z     vdW  Elec       q    Type
REMARK                         _______ _______ _______ _____ _____    ______ ____
ROOT
ATOM      1  C   UNL     1      -0.283  11.033  21.570  0.00  0.00    +0.000 C 
ATOM      2  C   UNL     1      -0.068  10.867  20.241  0.00  0.00    +0.000 C 
ATOM      3  N   UNL     1       0.411   9.689  19.732  0.00  0.00    +0.000 N 
ATOM      4  C   UNL     1       1.414   9.394  18.861  0.00  0.00    +0.000 C 
ATOM      5  O   UNL     1       2.112  10.034  18.105  0.00  0.00    +0.000 OA
ATOM      6  C   UNL     1       1.399   7.920  19.331  0.00  0.00    +0.000 C 
ATOM      7  C   UNL     1       0.547   8.464  20.512  0.00  0.00    +0.000 C 
ATOM      8  S   UNL     1       1.420   8.871  22.057  0.00  0.00    +0.000 S 
ATOM      9  C   UNL     1       0.107   9.993  22.608  0.00  0.00    +0.000 C 
ENDROOT
BRANCH   6  10
ATOM     10  N   UNL     1       2.692   7.260  19.656  0.00  0.00    +0.000 N 
ATOM     11  C   UNL     1       3.011   6.056  19.063  0.00  0.00    +0.000 C 
ATOM     12  O   UNL     1       2.235   5.492  18.292  0.00  0.00    +0.000 OA
ATOM     13  H   UNL     1       3.377   7.734  20.236  0.00  0.00    +0.000 HD
BRANCH  11  14
ATOM     14  C   UNL     1       4.365   5.476  19.425  0.00  0.00    +0.000 C 
BRANCH  14  15
ATOM     15  C   UNL     1       5.160   5.211  18.185  0.00  0.00    +0.000 A 
ATOM     16  C   UNL     1       5.125   4.101  17.363  0.00  0.00    +0.000 A 
ATOM     17  C   UNL     1       6.028   4.208  16.265  0.00  0.00    +0.000 A 
ATOM     18  C   UNL     1       6.731   5.392  16.292  0.00  0.00    +0.000 A 
ATOM     19  S   UNL     1       6.309   6.360  17.637  0.00  0.00    +0.000 S 
ENDBRANCH  14  15
ENDBRANCH  11  14
ENDBRANCH   6  10
BRANCH   2  20
ATOM     20  C   UNL     1      -0.405  11.952  19.261  0.00  0.00    +0.000 C 
ATOM     21  N   UNL     1      -1.082  11.783  18.173  0.00  0.00    +0.000 NA
BRANCH  21  22
ATOM     22  O   UNL     1      -1.185  12.999  17.489  0.00  0.00    +0.000 OA
ATOM     23  H   UNL     1      -2.107  13.257  17.683  0.00  0.00    +0.000 HD
ENDBRANCH  21  22
ENDBRANCH   2  20
BRANCH   1  24
ATOM     24  C   UNL     1      -0.819  12.292  22.225  0.00  0.00    +0.000 C 
BRANCH  24  25
ATOM     25  O   UNL     1      -2.253  12.238  22.214  0.00  0.00    +0.000 OA
BRANCH  25  27
ATOM     26  C   UNL     1      -2.443  13.935  23.823  0.00  0.00    +0.000 C 
ATOM     27  C   UNL     1      -2.876  12.571  23.378  0.00  0.00    +0.000 C 
ATOM     28  O   UNL     1      -3.696  11.885  23.968  0.00  0.00    +0.000 OA
ENDBRANCH  25  27
ENDBRANCH  24  25
ENDBRANCH   1  24
TORSDOF 8
ENDMDL
