MODEL 1
REMARK VINA RESULT:      -7.6      0.000      0.000
REMARK  Name = 
REMARK  13 active torsions:
REMARK  status: ('A' for Active; 'I' for Inactive)
REMARK    1  A    between atoms: C_1  and  O_2
REMARK    2  A    between atoms: O_2  and  C_3
REMARK    3  A    between atoms: C_6  and  C_7
REMARK    4  A    between atoms: C_7  and  C_9
REMARK    5  A    between atoms: C_10  and  C_11
REMARK    6  A    between atoms: N_18  and  C_19
REMARK    7  A    between atoms: C_19  and  C_20
REMARK    8  A    between atoms: C_20  and  O_21
REMARK    9  A    between atoms: C_20  and  C_22
REMARK   10  A    between atoms: C_22  and  N_23
REMARK   11  A    between atoms: N_23  and  C_24
REMARK   12  A    between atoms: C_24  and  C_25
REMARK   13  A    between atoms: C_24  and  C_26
REMARK                            x       y       z     vdW  Elec       q    Type
REMARK                         _______ _______ _______ _____ _____    ______ ____
ROOT
ATOM      1  C   UNL     1       4.779   5.377  17.477  0.00  0.00    +0.000 A 
ATOM      2  C   UNL     1       5.958   5.942  16.992  0.00  0.00    +0.000 A 
ATOM      3  C   UNL     1       6.775   7.083  17.527  0.00  0.00    +0.000 C 
ATOM      4  C   UNL     1       6.221   5.310  15.802  0.00  0.00    +0.000 A 
ATOM      5  C   UNL     1       7.272   5.533  14.911  0.00  0.00    +0.000 A 
ATOM      6  C   UNL     1       7.299   4.796  13.725  0.00  0.00    +0.000 A 
ATOM      7  C   UNL     1       6.279   3.863  13.451  0.00  0.00    +0.000 A 
ATOM      8  C   UNL     1       5.224   3.646  14.372  0.00  0.00    +0.000 A 
ATOM      9  C   UNL     1       5.218   4.391  15.567  0.00  0.00    +0.000 A 
ATOM     10  N   UNL     1       4.326   4.401  16.607  0.00  0.00    +0.000 N 
ENDROOT
BRANCH   1  11
ATOM     11  C   UNL     1       4.011   5.829  18.709  0.00  0.00    +0.000 C 
ATOM     12  O   UNL     1       4.114   5.144  19.710  0.00  0.00    +0.000 OA
BRANCH  11  16
ATOM     13  C   UNL     1       1.312   9.221  18.871  0.00  0.00    +0.000 A 
ATOM     14  C   UNL     1       1.414   8.372  19.996  0.00  0.00    +0.000 A 
ATOM     15  C   UNL     1       2.305   7.279  19.988  0.00  0.00    +0.000 A 
ATOM     16  C   UNL     1       3.095   7.014  18.850  0.00  0.00    +0.000 A 
ATOM     17  C   UNL     1       2.974   7.876  17.741  0.00  0.00    +0.000 A 
ATOM     18  C   UNL     1       2.107   8.962  17.758  0.00  0.00    +0.000 A 
BRANCH  13  20
ATOM     19  C   UNL     1      -0.814  10.284  18.280  0.00  0.00    +0.000 C 
ATOM     20  O   UNL     1       0.462  10.280  18.796  0.00  0.00    +0.000 OA
ENDBRANCH  13  20
ENDBRANCH  11  16
ENDBRANCH   1  11
BRANCH  10  21
ATOM     21  C   UNL     1       3.093   3.626  16.927  0.00  0.00    +0.000 C 
BRANCH  21  22
ATOM     22  C   UNL     1       3.049   2.279  17.690  0.00  0.00    +0.000 C 
BRANCH  22  23
ATOM     23  O   UNL     1       4.123   2.156  18.590  0.00  0.00    +0.000 OA
ATOM     24  H   UNL     1       4.940   2.517  18.161  0.00  0.00    +0.000 HD
ENDBRANCH  22  23
BRANCH  22  25
ATOM     25  C   UNL     1       1.667   2.212  18.455  0.00  0.00    +0.000 C 
BRANCH  25  26
ATOM     26  N   UNL     1       1.873   1.889  19.882  0.00  0.00    +0.000 NA
ATOM     27  H   UNL     1       2.907   1.882  20.049  0.00  0.00    +0.000 HD
BRANCH  26  28
ATOM     28  C   UNL     1       1.247   2.799  20.871  0.00  0.00    +0.000 C 
ATOM     29  C   UNL     1       2.210   3.210  22.001  0.00  0.00    +0.000 C 
ATOM     30  C   UNL     1       0.799   4.076  20.140  0.00  0.00    +0.000 C 
ENDBRANCH  26  28
ENDBRANCH  25  26
ENDBRANCH  22  25
ENDBRANCH  21  22
ENDBRANCH  10  21
TORSDOF 9
ENDMDL
MODEL 2
REMARK VINA RESULT:      -7.5      0.626      1.270
REMARK  Name = 
REMARK  13 active torsions:
REMARK  status: ('A' for Active; 'I' for Inactive)
REMARK    1  A    between atoms: C_1  and  O_2
REMARK    2  A    between atoms: O_2  and  C_3
REMARK    3  A    between atoms: C_6  and  C_7
REMARK    4  A    between atoms: C_7  and  C_9
REMARK    5  A    between atoms: C_10  and  C_11
REMARK    6  A    between atoms: N_18  and  C_19
REMARK    7  A    between atoms: C_19  and  C_20
REMARK    8  A    between atoms: C_20  and  O_21
REMARK    9  A    between atoms: C_20  and  C_22
REMARK   10  A    between atoms: C_22  and  N_23
REMARK   11  A    between atoms: N_23  and  C_24
REMARK   12  A    between atoms: C_24  and  C_25
REMARK   13  A    between atoms: C_24  and  C_26
REMARK                            x       y       z     vdW  Elec       q    Type
REMARK                         _______ _______ _______ _____ _____    ______ ____
ROOT
ATOM      1  C   UNL     1       4.729   5.513  17.474  0.00  0.00    +0.000 A 
ATOM      2  C   UNL     1       5.896   6.048  16.929  0.00  0.00    +0.000 A 
ATOM      3  C   UNL     1       6.716   7.228  17.366  0.00  0.00    +0.000 C 
ATOM      4  C   UNL     1       6.140   5.335  15.781  0.00  0.00    +0.000 A 
ATOM      5  C   UNL     1       7.173   5.499  14.857  0.00  0.00    +0.000 A 
ATOM      6  C   UNL     1       7.183   4.681  13.726  0.00  0.00    +0.000 A 
ATOM      7  C   UNL     1       6.163   3.726  13.537  0.00  0.00    +0.000 A 
ATOM      8  C   UNL     1       5.127   3.570  14.491  0.00  0.00    +0.000 A 
ATOM      9  C   UNL     1       5.138   4.397  15.630  0.00  0.00    +0.000 A 
ATOM     10  N   UNL     1       4.266   4.476  16.683  0.00  0.00    +0.000 N 
ENDROOT
BRANCH   1  11
ATOM     11  C   UNL     1       3.981   6.047  18.685  0.00  0.00    +0.000 C 
ATOM     12  O   UNL     1       4.175   5.488  19.749  0.00  0.00    +0.000 OA
BRANCH  11  16
ATOM     13  C   UNL     1       1.179   9.334  19.090  0.00  0.00    +0.000 A 
ATOM     14  C   UNL     1       1.876   9.174  17.872  0.00  0.00    +0.000 A 
ATOM     15  C   UNL     1       2.771   8.098  17.696  0.00  0.00    +0.000 A 
ATOM     16  C   UNL     1       2.988   7.176  18.741  0.00  0.00    +0.000 A 
ATOM     17  C   UNL     1       2.279   7.358  19.946  0.00  0.00    +0.000 A 
ATOM     18  C   UNL     1       1.387   8.410  20.111  0.00  0.00    +0.000 A 
BRANCH  13  20
ATOM     19  C   UNL     1       0.539  11.698  19.128  0.00  0.00    +0.000 C 
ATOM     20  O   UNL     1       0.318  10.356  19.342  0.00  0.00    +0.000 OA
ENDBRANCH  13  20
ENDBRANCH  11  16
ENDBRANCH   1  11
BRANCH  10  21
ATOM     21  C   UNL     1       3.043   3.720  17.080  0.00  0.00    +0.000 C 
BRANCH  21  22
ATOM     22  C   UNL     1       3.006   2.236  17.521  0.00  0.00    +0.000 C 
BRANCH  22  23
ATOM     23  O   UNL     1       4.298   1.730  17.753  0.00  0.00    +0.000 OA
ATOM     24  H   UNL     1       4.814   1.779  16.908  0.00  0.00    +0.000 HD
ENDBRANCH  22  23
BRANCH  22  25
ATOM     25  C   UNL     1       2.129   2.153  18.835  0.00  0.00    +0.000 C 
BRANCH  25  26
ATOM     26  N   UNL     1       2.843   2.755  19.980  0.00  0.00    +0.000 NA
ATOM     27  H   UNL     1       3.533   3.438  19.587  0.00  0.00    +0.000 HD
BRANCH  26  28
ATOM     28  C   UNL     1       2.015   3.455  20.990  0.00  0.00    +0.000 C 
ATOM     29  C   UNL     1       0.814   4.196  20.371  0.00  0.00    +0.000 C 
ATOM     30  C   UNL     1       1.471   2.413  21.980  0.00  0.00    +0.000 C 
ENDBRANCH  26  28
ENDBRANCH  25  26
ENDBRANCH  22  25
ENDBRANCH  21  22
ENDBRANCH  10  21
TORSDOF 9
ENDMDL
MODEL 3
REMARK VINA RESULT:      -6.8      4.085      7.257
REMARK  Name = 
REMARK  13 active torsions:
REMARK  status: ('A' for Active; 'I' for Inactive)
REMARK    1  A    between atoms: C_1  and  O_2
REMARK    2  A    between atoms: O_2  and  C_3
REMARK    3  A    between atoms: C_6  and  C_7
REMARK    4  A    between atoms: C_7  and  C_9
REMARK    5  A    between atoms: C_10  and  C_11
REMARK    6  A    between atoms: N_18  and  C_19
REMARK    7  A    between atoms: C_19  and  C_20
REMARK    8  A    between atoms: C_20  and  O_21
REMARK    9  A    between atoms: C_20  and  C_22
REMARK   10  A    between atoms: C_22  and  N_23
REMARK   11  A    between atoms: N_23  and  C_24
REMARK   12  A    between atoms: C_24  and  C_25
REMARK   13  A    between atoms: C_24  and  C_26
REMARK                            x       y       z     vdW  Elec       q    Type
REMARK                         _______ _______ _______ _____ _____    ______ ____
ROOT
ATOM      1  C   UNL     1       1.066   8.958  19.677  0.00  0.00    +0.000 A 
ATOM      2  C   UNL     1       2.022   8.482  18.779  0.00  0.00    +0.000 A 
ATOM      3  C   UNL     1       2.538   9.087  17.506  0.00  0.00    +0.000 C 
ATOM      4  C   UNL     1       2.368   7.230  19.221  0.00  0.00    +0.000 A 
ATOM      5  C   UNL     1       3.265   6.323  18.655  0.00  0.00    +0.000 A 
ATOM      6  C   UNL     1       3.414   5.074  19.262  0.00  0.00    +0.000 A 
ATOM      7  C   UNL     1       2.662   4.754  20.410  0.00  0.00    +0.000 A 
ATOM      8  C   UNL     1       1.761   5.691  20.975  0.00  0.00    +0.000 A 
ATOM      9  C   UNL     1       1.632   6.949  20.356  0.00  0.00    +0.000 A 
ATOM     10  N   UNL     1       0.835   8.019  20.667  0.00  0.00    +0.000 N 
ENDROOT
BRANCH   1  11
ATOM     11  C   UNL     1       0.283  10.254  19.547  0.00  0.00    +0.000 C 
ATOM     12  O   UNL     1       0.696  11.217  20.166  0.00  0.00    +0.000 OA
BRANCH  11  16
ATOM     13  C   UNL     1      -3.341  11.218  17.367  0.00  0.00    +0.000 A 
ATOM     14  C   UNL     1      -2.445  10.271  16.822  0.00  0.00    +0.000 A 
ATOM     15  C   UNL     1      -1.273   9.912  17.520  0.00  0.00    +0.000 A 
ATOM     16  C   UNL     1      -0.978  10.504  18.765  0.00  0.00    +0.000 A 
ATOM     17  C   UNL     1      -1.888  11.447  19.286  0.00  0.00    +0.000 A 
ATOM     18  C   UNL     1      -3.050  11.786  18.604  0.00  0.00    +0.000 A 
BRANCH  13  20
ATOM     19  C   UNL     1      -5.586  12.199  17.334  0.00  0.00    +0.000 C 
ATOM     20  O   UNL     1      -4.478  11.631  16.746  0.00  0.00    +0.000 OA
ENDBRANCH  13  20
ENDBRANCH  11  16
ENDBRANCH   1  11
BRANCH  10  21
ATOM     21  C   UNL     1      -0.127   8.313  21.768  0.00  0.00    +0.000 C 
BRANCH  21  22
ATOM     22  C   UNL     1       0.173   9.176  23.020  0.00  0.00    +0.000 C 
BRANCH  22  23
ATOM     23  O   UNL     1       1.416   9.826  22.917  0.00  0.00    +0.000 OA
ATOM     24  H   UNL     1       1.782   9.959  23.829  0.00  0.00    +0.000 HD
ENDBRANCH  22  23
BRANCH  22  25
ATOM     25  C   UNL     1      -0.998  10.228  23.163  0.00  0.00    +0.000 C 
BRANCH  25  26
ATOM     26  N   UNL     1      -0.498  11.601  22.947  0.00  0.00    +0.000 NA
ATOM     27  H   UNL     1       0.175  11.560  22.146  0.00  0.00    +0.000 HD
BRANCH  26  28
ATOM     28  C   UNL     1      -1.511  12.643  22.654  0.00  0.00    +0.000 C 
ATOM     29  C   UNL     1      -2.874  12.356  23.316  0.00  0.00    +0.000 C 
ATOM     30  C   UNL     1      -0.995  13.988  23.193  0.00  0.00    +0.000 C 
ENDBRANCH  26  28
ENDBRANCH  25  26
ENDBRANCH  22  25
ENDBRANCH  21  22
ENDBRANCH  10  21
TORSDOF 9
ENDMDL
MODEL 4
REMARK VINA RESULT:      -6.7      4.138      7.291
REMARK  Name = 
REMARK  13 active torsions:
REMARK  status: ('A' for Active; 'I' for Inactive)
REMARK    1  A    between atoms: C_1  and  O_2
REMARK    2  A    between atoms: O_2  and  C_3
REMARK    3  A    between atoms: C_6  and  C_7
REMARK    4  A    between atoms: C_7  and  C_9
REMARK    5  A    between atoms: C_10  and  C_11
REMARK    6  A    between atoms: N_18  and  C_19
REMARK    7  A    between atoms: C_19  and  C_20
REMARK    8  A    between atoms: C_20  and  O_21
REMARK    9  A    between atoms: C_20  and  C_22
REMARK   10  A    between atoms: C_22  and  N_23
REMARK   11  A    between atoms: N_23  and  C_24
REMARK   12  A    between atoms: C_24  and  C_25
REMARK   13  A    between atoms: C_24  and  C_26
REMARK                            x       y       z     vdW  Elec       q    Type
REMARK                         _______ _______ _______ _____ _____    ______ ____
ROOT
ATOM      1  C   UNL     1       1.103   9.141  19.734  0.00  0.00    +0.000 A 
ATOM      2  C   UNL     1       2.061   8.660  18.840  0.00  0.00    +0.000 A 
ATOM      3  C   UNL     1       2.641   9.296  17.610  0.00  0.00    +0.000 C 
ATOM      4  C   UNL     1       2.337   7.375  19.235  0.00  0.00    +0.000 A 
ATOM      5  C   UNL     1       3.207   6.452  18.652  0.00  0.00    +0.000 A 
ATOM      6  C   UNL     1       3.281   5.172  19.205  0.00  0.00    +0.000 A 
ATOM      7  C   UNL     1       2.483   4.838  20.318  0.00  0.00    +0.000 A 
ATOM      8  C   UNL     1       1.610   5.791  20.901  0.00  0.00    +0.000 A 
ATOM      9  C   UNL     1       1.557   7.080  20.336  0.00  0.00    +0.000 A 
ATOM     10  N   UNL     1       0.801   8.171  20.674  0.00  0.00    +0.000 N 
ENDROOT
BRANCH   1  11
ATOM     11  C   UNL     1       0.385  10.477  19.642  0.00  0.00    +0.000 C 
ATOM     12  O   UNL     1       0.894  11.422  20.216  0.00  0.00    +0.000 OA
BRANCH  11  16
ATOM     13  C   UNL     1      -3.379  11.129  17.586  0.00  0.00    +0.000 A 
ATOM     14  C   UNL     1      -3.084  11.895  18.736  0.00  0.00    +0.000 A 
ATOM     15  C   UNL     1      -1.856  11.730  19.410  0.00  0.00    +0.000 A 
ATOM     16  C   UNL     1      -0.913  10.789  18.949  0.00  0.00    +0.000 A 
ATOM     17  C   UNL     1      -1.232  10.036  17.799  0.00  0.00    +0.000 A 
ATOM     18  C   UNL     1      -2.436  10.213  17.128  0.00  0.00    +0.000 A 
BRANCH  13  20
ATOM     19  C   UNL     1      -5.587  12.087  17.133  0.00  0.00    +0.000 C 
ATOM     20  O   UNL     1      -4.548  11.215  16.897  0.00  0.00    +0.000 OA
ENDBRANCH  13  20
ENDBRANCH  11  16
ENDBRANCH   1  11
BRANCH  10  21
ATOM     21  C   UNL     1      -0.177   8.462  21.762  0.00  0.00    +0.000 C 
BRANCH  21  22
ATOM     22  C   UNL     1       0.122   9.271  23.049  0.00  0.00    +0.000 C 
BRANCH  22  23
ATOM     23  O   UNL     1       1.400   9.857  23.010  0.00  0.00    +0.000 OA
ATOM     24  H   UNL     1       1.555  10.222  22.101  0.00  0.00    +0.000 HD
ENDBRANCH  22  23
BRANCH  22  25
ATOM     25  C   UNL     1      -0.998  10.379  23.183  0.00  0.00    +0.000 C 
BRANCH  25  26
ATOM     26  N   UNL     1      -0.505  11.684  22.696  0.00  0.00    +0.000 NA
ATOM     27  H   UNL     1      -0.566  11.664  21.651  0.00  0.00    +0.000 HD
BRANCH  26  28
ATOM     28  C   UNL     1      -1.215  12.890  23.183  0.00  0.00    +0.000 C 
ATOM     29  C   UNL     1      -0.806  14.171  22.429  0.00  0.00    +0.000 C 
ATOM     30  C   UNL     1      -2.725  12.681  22.980  0.00  0.00    +0.000 C 
ENDBRANCH  26  28
ENDBRANCH  25  26
ENDBRANCH  22  25
ENDBRANCH  21  22
ENDBRANCH  10  21
TORSDOF 9
ENDMDL
MODEL 5
REMARK VINA RESULT:      -6.6      2.105      5.041
REMARK  Name = 
REMARK  13 active torsions:
REMARK  status: ('A' for Active; 'I' for Inactive)
REMARK    1  A    between atoms: C_1  and  O_2
REMARK    2  A    between atoms: O_2  and  C_3
REMARK    3  A    between atoms: C_6  and  C_7
REMARK    4  A    between atoms: C_7  and  C_9
REMARK    5  A    between atoms: C_10  and  C_11
REMARK    6  A    between atoms: N_18  and  C_19
REMARK    7  A    between atoms: C_19  and  C_20
REMARK    8  A    between atoms: C_20  and  O_21
REMARK    9  A    between atoms: C_20  and  C_22
REMARK   10  A    between atoms: C_22  and  N_23
REMARK   11  A    between atoms: N_23  and  C_24
REMARK   12  A    between atoms: C_24  and  C_25
REMARK   13  A    between atoms: C_24  and  C_26
REMARK                            x       y       z     vdW  Elec       q    Type
REMARK                         _______ _______ _______ _____ _____    ______ ____
ROOT
ATOM      1  C   UNL     1       3.574   5.434  18.220  0.00  0.00    +0.000 A 
ATOM      2  C   UNL     1       2.666   4.419  17.914  0.00  0.00    +0.000 A 
ATOM      3  C   UNL     1       1.327   4.491  17.240  0.00  0.00    +0.000 C 
ATOM      4  C   UNL     1       3.184   3.271  18.459  0.00  0.00    +0.000 A 
ATOM      5  C   UNL     1       2.643   1.984  18.456  0.00  0.00    +0.000 A 
ATOM      6  C   UNL     1       3.334   0.975  19.130  0.00  0.00    +0.000 A 
ATOM      7  C   UNL     1       4.540   1.271  19.797  0.00  0.00    +0.000 A 
ATOM      8  C   UNL     1       5.077   2.582  19.782  0.00  0.00    +0.000 A 
ATOM      9  C   UNL     1       4.372   3.585  19.089  0.00  0.00    +0.000 A 
ATOM     10  N   UNL     1       4.643   4.918  18.932  0.00  0.00    +0.000 N 
ENDROOT
BRANCH   1  11
ATOM     11  C   UNL     1       3.386   6.916  17.939  0.00  0.00    +0.000 C 
ATOM     12  O   UNL     1       4.137   7.428  17.129  0.00  0.00    +0.000 OA
BRANCH  11  16
ATOM     13  C   UNL     1       0.666   9.625  19.959  0.00  0.00    +0.000 A 
ATOM     14  C   UNL     1       0.977   9.853  18.599  0.00  0.00    +0.000 A 
ATOM     15  C   UNL     1       1.833   8.974  17.905  0.00  0.00    +0.000 A 
ATOM     16  C   UNL     1       2.398   7.863  18.564  0.00  0.00    +0.000 A 
ATOM     17  C   UNL     1       2.072   7.658  19.921  0.00  0.00    +0.000 A 
ATOM     18  C   UNL     1       1.216   8.517  20.598  0.00  0.00    +0.000 A 
BRANCH  13  20
ATOM     19  C   UNL     1      -0.235  10.472  22.073  0.00  0.00    +0.000 C 
ATOM     20  O   UNL     1      -0.132  10.439  20.701  0.00  0.00    +0.000 OA
ENDBRANCH  13  20
ENDBRANCH  11  16
ENDBRANCH   1  11
BRANCH  10  21
ATOM     21  C   UNL     1       5.766   5.808  19.345  0.00  0.00    +0.000 C 
BRANCH  21  22
ATOM     22  C   UNL     1       7.213   5.744  18.798  0.00  0.00    +0.000 C 
BRANCH  22  23
ATOM     23  O   UNL     1       8.137   5.417  19.807  0.00  0.00    +0.000 OA
ATOM     24  H   UNL     1       7.638   5.128  20.613  0.00  0.00    +0.000 HD
ENDBRANCH  22  23
BRANCH  22  25
ATOM     25  C   UNL     1       7.237   4.662  17.645  0.00  0.00    +0.000 C 
BRANCH  25  26
ATOM     26  N   UNL     1       7.465   5.301  16.332  0.00  0.00    +0.000 NA
ATOM     27  H   UNL     1       8.399   4.973  15.989  0.00  0.00    +0.000 HD
BRANCH  26  28
ATOM     28  C   UNL     1       6.460   5.035  15.276  0.00  0.00    +0.000 C 
ATOM     29  C   UNL     1       7.090   4.856  13.881  0.00  0.00    +0.000 C 
ATOM     30  C   UNL     1       5.714   3.737  15.630  0.00  0.00    +0.000 C 
ENDBRANCH  26  28
ENDBRANCH  25  26
ENDBRANCH  22  25
ENDBRANCH  21  22
ENDBRANCH  10  21
TORSDOF 9
ENDMDL
MODEL 6
REMARK VINA RESULT:      -6.6      2.089      4.909
REMARK  Name = 
REMARK  13 active torsions:
REMARK  status: ('A' for Active; 'I' for Inactive)
REMARK    1  A    between atoms: C_1  and  O_2
REMARK    2  A    between atoms: O_2  and  C_3
REMARK    3  A    between atoms: C_6  and  C_7
REMARK    4  A    between atoms: C_7  and  C_9
REMARK    5  A    between atoms: C_10  and  C_11
REMARK    6  A    between atoms: N_18  and  C_19
REMARK    7  A    between atoms: C_19  and  C_20
REMARK    8  A    between atoms: C_20  and  O_21
REMARK    9  A    between atoms: C_20  and  C_22
REMARK   10  A    between atoms: C_22  and  N_23
REMARK   11  A    between atoms: N_23  and  C_24
REMARK   12  A    between atoms: C_24  and  C_25
REMARK   13  A    between atoms: C_24  and  C_26
REMARK                            x       y       z     vdW  Elec       q    Type
REMARK                         _______ _______ _______ _____ _____    ______ ____
ROOT
ATOM      1  C   UNL     1       3.521   5.467  18.225  0.00  0.00    +0.000 A 
ATOM      2  C   UNL     1       2.603   4.465  17.913  0.00  0.00    +0.000 A 
ATOM      3  C   UNL     1       1.259   4.556  17.250  0.00  0.00    +0.000 C 
ATOM      4  C   UNL     1       3.115   3.305  18.439  0.00  0.00    +0.000 A 
ATOM      5  C   UNL     1       2.562   2.022  18.423  0.00  0.00    +0.000 A 
ATOM      6  C   UNL     1       3.249   0.999  19.078  0.00  0.00    +0.000 A 
ATOM      7  C   UNL     1       4.463   1.275  19.740  0.00  0.00    +0.000 A 
ATOM      8  C   UNL     1       5.011   2.582  19.739  0.00  0.00    +0.000 A 
ATOM      9  C   UNL     1       4.310   3.600  19.064  0.00  0.00    +0.000 A 
ATOM     10  N   UNL     1       4.590   4.933  18.922  0.00  0.00    +0.000 N 
ENDROOT
BRANCH   1  11
ATOM     11  C   UNL     1       3.344   6.954  17.966  0.00  0.00    +0.000 C 
ATOM     12  O   UNL     1       4.060   7.460  17.121  0.00  0.00    +0.000 OA
BRANCH  11  16
ATOM     13  C   UNL     1       0.509   9.733  19.716  0.00  0.00    +0.000 A 
ATOM     14  C   UNL     1       1.036   8.695  20.518  0.00  0.00    +0.000 A 
ATOM     15  C   UNL     1       1.983   7.794  19.988  0.00  0.00    +0.000 A 
ATOM     16  C   UNL     1       2.406   7.912  18.648  0.00  0.00    +0.000 A 
ATOM     17  C   UNL     1       1.865   8.956  17.870  0.00  0.00    +0.000 A 
ATOM     18  C   UNL     1       0.944   9.853  18.399  0.00  0.00    +0.000 A 
BRANCH  13  20
ATOM     19  C   UNL     1      -0.884  11.733  19.472  0.00  0.00    +0.000 C 
ATOM     20  O   UNL     1      -0.421  10.626  20.147  0.00  0.00    +0.000 OA
ENDBRANCH  13  20
ENDBRANCH  11  16
ENDBRANCH   1  11
BRANCH  10  21
ATOM     21  C   UNL     1       5.724   5.807  19.340  0.00  0.00    +0.000 C 
BRANCH  21  22
ATOM     22  C   UNL     1       7.163   5.749  18.769  0.00  0.00    +0.000 C 
BRANCH  22  23
ATOM     23  O   UNL     1       8.110   5.475  19.772  0.00  0.00    +0.000 OA
ATOM     24  H   UNL     1       8.548   6.324  20.037  0.00  0.00    +0.000 HD
ENDBRANCH  22  23
BRANCH  22  25
ATOM     25  C   UNL     1       7.187   4.627  17.655  0.00  0.00    +0.000 C 
BRANCH  25  26
ATOM     26  N   UNL     1       7.470   5.212  16.328  0.00  0.00    +0.000 NA
ATOM     27  H   UNL     1       8.363   4.784  15.988  0.00  0.00    +0.000 HD
BRANCH  26  28
ATOM     28  C   UNL     1       6.436   5.027  15.282  0.00  0.00    +0.000 C 
ATOM     29  C   UNL     1       7.035   4.813  13.879  0.00  0.00    +0.000 C 
ATOM     30  C   UNL     1       5.602   3.785  15.637  0.00  0.00    +0.000 C 
ENDBRANCH  26  28
ENDBRANCH  25  26
ENDBRANCH  22  25
ENDBRANCH  21  22
ENDBRANCH  10  21
TORSDOF 9
ENDMDL
MODEL 7
REMARK VINA RESULT:      -6.3      2.067      6.085
REMARK  Name = 
REMARK  13 active torsions:
REMARK  status: ('A' for Active; 'I' for Inactive)
REMARK    1  A    between atoms: C_1  and  O_2
REMARK    2  A    between atoms: O_2  and  C_3
REMARK    3  A    between atoms: C_6  and  C_7
REMARK    4  A    between atoms: C_7  and  C_9
REMARK    5  A    between atoms: C_10  and  C_11
REMARK    6  A    between atoms: N_18  and  C_19
REMARK    7  A    between atoms: C_19  and  C_20
REMARK    8  A    between atoms: C_20  and  O_21
REMARK    9  A    between atoms: C_20  and  C_22
REMARK   10  A    between atoms: C_22  and  N_23
REMARK   11  A    between atoms: N_23  and  C_24
REMARK   12  A    between atoms: C_24  and  C_25
REMARK   13  A    between atoms: C_24  and  C_26
REMARK                            x       y       z     vdW  Elec       q    Type
REMARK                         _______ _______ _______ _____ _____    ______ ____
ROOT
ATOM      1  C   UNL     1       4.129   5.607  18.697  0.00  0.00    +0.000 A 
ATOM      2  C   UNL     1       3.703   6.807  18.125  0.00  0.00    +0.000 A 
ATOM      3  C   UNL     1       4.237   7.556  16.939  0.00  0.00    +0.000 C 
ATOM      4  C   UNL     1       2.707   7.282  18.941  0.00  0.00    +0.000 A 
ATOM      5  C   UNL     1       1.974   8.465  18.822  0.00  0.00    +0.000 A 
ATOM      6  C   UNL     1       1.040   8.765  19.815  0.00  0.00    +0.000 A 
ATOM      7  C   UNL     1       0.862   7.889  20.905  0.00  0.00    +0.000 A 
ATOM      8  C   UNL     1       1.610   6.689  21.003  0.00  0.00    +0.000 A 
ATOM      9  C   UNL     1       2.541   6.397  19.988  0.00  0.00    +0.000 A 
ATOM     10  N   UNL     1       3.399   5.340  19.841  0.00  0.00    +0.000 N 
ENDROOT
BRANCH   1  11
ATOM     11  C   UNL     1       5.303   4.762  18.230  0.00  0.00    +0.000 C 
ATOM     12  O   UNL     1       5.907   4.133  19.079  0.00  0.00    +0.000 OA
BRANCH  11  16
ATOM     13  C   UNL     1       6.646   4.400  14.121  0.00  0.00    +0.000 A 
ATOM     14  C   UNL     1       7.518   4.964  15.080  0.00  0.00    +0.000 A 
ATOM     15  C   UNL     1       7.123   5.068  16.430  0.00  0.00    +0.000 A 
ATOM     16  C   UNL     1       5.850   4.619  16.836  0.00  0.00    +0.000 A 
ATOM     17  C   UNL     1       5.000   4.060  15.859  0.00  0.00    +0.000 A 
ATOM     18  C   UNL     1       5.397   3.944  14.533  0.00  0.00    +0.000 A 
BRANCH  13  20
ATOM     19  C   UNL     1       6.512   3.308  11.933  0.00  0.00    +0.000 C 
ATOM     20  O   UNL     1       6.946   4.285  12.800  0.00  0.00    +0.000 OA
ENDBRANCH  13  20
ENDBRANCH  11  16
ENDBRANCH   1  11
BRANCH  10  21
ATOM     21  C   UNL     1       3.650   4.090  20.614  0.00  0.00    +0.000 C 
BRANCH  21  22
ATOM     22  C   UNL     1       2.569   3.069  21.051  0.00  0.00    +0.000 C 
BRANCH  22  23
ATOM     23  O   UNL     1       2.055   3.370  22.325  0.00  0.00    +0.000 OA
ATOM     24  H   UNL     1       1.909   4.349  22.386  0.00  0.00    +0.000 HD
ENDBRANCH  22  23
BRANCH  22  25
ATOM     25  C   UNL     1       1.422   3.098  19.963  0.00  0.00    +0.000 C 
BRANCH  25  26
ATOM     26  N   UNL     1       1.444   1.867  19.146  0.00  0.00    +0.000 NA
ATOM     27  H   UNL     1       0.448   1.585  18.989  0.00  0.00    +0.000 HD
BRANCH  26  28
ATOM     28  C   UNL     1       2.119   1.953  17.829  0.00  0.00    +0.000 C 
ATOM     29  C   UNL     1       2.061   3.366  17.216  0.00  0.00    +0.000 C 
ATOM     30  C   UNL     1       3.598   1.576  18.015  0.00  0.00    +0.000 C 
ENDBRANCH  26  28
ENDBRANCH  25  26
ENDBRANCH  22  25
ENDBRANCH  21  22
ENDBRANCH  10  21
TORSDOF 9
ENDMDL
MODEL 8
REMARK VINA RESULT:      -6.3      2.132      6.336
REMARK  Name = 
REMARK  13 active torsions:
REMARK  status: ('A' for Active; 'I' for Inactive)
REMARK    1  A    between atoms: C_1  and  O_2
REMARK    2  A    between atoms: O_2  and  C_3
REMARK    3  A    between atoms: C_6  and  C_7
REMARK    4  A    between atoms: C_7  and  C_9
REMARK    5  A    between atoms: C_10  and  C_11
REMARK    6  A    between atoms: N_18  and  C_19
REMARK    7  A    between atoms: C_19  and  C_20
REMARK    8  A    between atoms: C_20  and  O_21
REMARK    9  A    between atoms: C_20  and  C_22
REMARK   10  A    between atoms: C_22  and  N_23
REMARK   11  A    between atoms: N_23  and  C_24
REMARK   12  A    between atoms: C_24  and  C_25
REMARK   13  A    between atoms: C_24  and  C_26
REMARK                            x       y       z     vdW  Elec       q    Type
REMARK                         _______ _______ _______ _____ _____    ______ ____
ROOT
ATOM      1  C   UNL     1       2.161   6.776  18.949  0.00  0.00    +0.000 A 
ATOM      2  C   UNL     1       1.790   8.066  18.566  0.00  0.00    +0.000 A 
ATOM      3  C   UNL     1       1.841   8.727  17.219  0.00  0.00    +0.000 C 
ATOM      4  C   UNL     1       1.441   8.718  19.722  0.00  0.00    +0.000 A 
ATOM      5  C   UNL     1       1.025  10.041  19.884  0.00  0.00    +0.000 A 
ATOM      6  C   UNL     1       0.775  10.501  21.178  0.00  0.00    +0.000 A 
ATOM      7  C   UNL     1       0.952   9.639  22.280  0.00  0.00    +0.000 A 
ATOM      8  C   UNL     1       1.369   8.297  22.094  0.00  0.00    +0.000 A 
ATOM      9  C   UNL     1       1.607   7.847  20.781  0.00  0.00    +0.000 A 
ATOM     10  N   UNL     1       2.031   6.630  20.318  0.00  0.00    +0.000 N 
ENDROOT
BRANCH   1  11
ATOM     11  C   UNL     1       2.746   5.707  18.040  0.00  0.00    +0.000 C 
ATOM     12  O   UNL     1       2.070   4.715  17.842  0.00  0.00    +0.000 OA
BRANCH  11  16
ATOM     13  C   UNL     1       6.513   5.555  15.893  0.00  0.00    +0.000 A 
ATOM     14  C   UNL     1       6.224   6.684  16.692  0.00  0.00    +0.000 A 
ATOM     15  C   UNL     1       5.023   6.751  17.427  0.00  0.00    +0.000 A 
ATOM     16  C   UNL     1       4.090   5.696  17.363  0.00  0.00    +0.000 A 
ATOM     17  C   UNL     1       4.402   4.580  16.559  0.00  0.00    +0.000 A 
ATOM     18  C   UNL     1       5.594   4.510  15.848  0.00  0.00    +0.000 A 
BRANCH  13  20
ATOM     19  C   UNL     1       7.706   5.226  13.779  0.00  0.00    +0.000 C 
ATOM     20  O   UNL     1       7.637   5.426  15.140  0.00  0.00    +0.000 OA
ENDBRANCH  13  20
ENDBRANCH  11  16
ENDBRANCH   1  11
BRANCH  10  21
ATOM     21  C   UNL     1       2.337   5.321  20.964  0.00  0.00    +0.000 C 
BRANCH  21  22
ATOM     22  C   UNL     1       1.341   4.149  21.141  0.00  0.00    +0.000 C 
BRANCH  22  23
ATOM     23  O   UNL     1       0.394   4.110  20.102  0.00  0.00    +0.000 OA
ATOM     24  H   UNL     1      -0.271   4.830  20.250  0.00  0.00    +0.000 HD
ENDBRANCH  22  23
BRANCH  22  25
ATOM     25  C   UNL     1       2.183   2.812  21.182  0.00  0.00    +0.000 C 
BRANCH  25  26
ATOM     26  N   UNL     1       2.163   2.140  19.866  0.00  0.00    +0.000 NA
ATOM     27  H   UNL     1       1.732   2.810  19.186  0.00  0.00    +0.000 HD
BRANCH  26  28
ATOM     28  C   UNL     1       3.469   1.696  19.322  0.00  0.00    +0.000 C 
ATOM     29  C   UNL     1       3.471   1.589  17.784  0.00  0.00    +0.000 C 
ATOM     30  C   UNL     1       4.539   2.723  19.728  0.00  0.00    +0.000 C 
ENDBRANCH  26  28
ENDBRANCH  25  26
ENDBRANCH  22  25
ENDBRANCH  21  22
ENDBRANCH  10  21
TORSDOF 9
ENDMDL
MODEL 9
REMARK VINA RESULT:      -6.3      4.976     10.254
REMARK  Name = 
REMARK  13 active torsions:
REMARK  status: ('A' for Active; 'I' for Inactive)
REMARK    1  A    between atoms: C_1  and  O_2
REMARK    2  A    between atoms: O_2  and  C_3
REMARK    3  A    between atoms: C_6  and  C_7
REMARK    4  A    between atoms: C_7  and  C_9
REMARK    5  A    between atoms: C_10  and  C_11
REMARK    6  A    between atoms: N_18  and  C_19
REMARK    7  A    between atoms: C_19  and  C_20
REMARK    8  A    between atoms: C_20  and  O_21
REMARK    9  A    between atoms: C_20  and  C_22
REMARK   10  A    between atoms: C_22  and  N_23
REMARK   11  A    between atoms: N_23  and  C_24
REMARK   12  A    between atoms: C_24  and  C_25
REMARK   13  A    between atoms: C_24  and  C_26
REMARK                            x       y       z     vdW  Elec       q    Type
REMARK                         _______ _______ _______ _____ _____    ______ ____
ROOT
ATOM      1  C   UNL     1      -1.455  11.274  18.835  0.00  0.00    +0.000 A 
ATOM      2  C   UNL     1      -2.346  10.831  17.857  0.00  0.00    +0.000 A 
ATOM      3  C   UNL     1      -2.088  10.096  16.574  0.00  0.00    +0.000 C 
ATOM      4  C   UNL     1      -3.582  11.298  18.232  0.00  0.00    +0.000 A 
ATOM      5  C   UNL     1      -4.805  11.151  17.574  0.00  0.00    +0.000 A 
ATOM      6  C   UNL     1      -5.929  11.768  18.125  0.00  0.00    +0.000 A 
ATOM      7  C   UNL     1      -5.810  12.522  19.311  0.00  0.00    +0.000 A 
ATOM      8  C   UNL     1      -4.561  12.653  19.968  0.00  0.00    +0.000 A 
ATOM      9  C   UNL     1      -3.440  12.016  19.403  0.00  0.00    +0.000 A 
ATOM     10  N   UNL     1      -2.131  11.993  19.805  0.00  0.00    +0.000 N 
ENDROOT
BRANCH   1  11
ATOM     11  C   UNL     1       0.057  11.117  18.803  0.00  0.00    +0.000 C 
ATOM     12  O   UNL     1       0.714  12.114  18.565  0.00  0.00    +0.000 OA
BRANCH  11  16
ATOM     13  C   UNL     1       2.210   7.422  19.528  0.00  0.00    +0.000 A 
ATOM     14  C   UNL     1       2.252   7.998  18.238  0.00  0.00    +0.000 A 
ATOM     15  C   UNL     1       1.588   9.215  17.977  0.00  0.00    +0.000 A 
ATOM     16  C   UNL     1       0.866   9.864  18.999  0.00  0.00    +0.000 A 
ATOM     17  C   UNL     1       0.840   9.268  20.277  0.00  0.00    +0.000 A 
ATOM     18  C   UNL     1       1.507   8.077  20.536  0.00  0.00    +0.000 A 
BRANCH  13  20
ATOM     19  C   UNL     1       3.810   5.604  19.160  0.00  0.00    +0.000 C 
ATOM     20  O   UNL     1       2.804   6.242  19.851  0.00  0.00    +0.000 OA
ENDBRANCH  13  20
ENDBRANCH  11  16
ENDBRANCH   1  11
BRANCH  10  21
ATOM     21  C   UNL     1      -1.394  12.544  20.978  0.00  0.00    +0.000 C 
BRANCH  21  22
ATOM     22  C   UNL     1      -1.474  12.003  22.428  0.00  0.00    +0.000 C 
BRANCH  22  23
ATOM     23  O   UNL     1      -0.270  11.393  22.823  0.00  0.00    +0.000 OA
ATOM     24  H   UNL     1       0.027  11.800  23.676  0.00  0.00    +0.000 HD
ENDBRANCH  22  23
BRANCH  22  25
ATOM     25  C   UNL     1      -1.819  13.224  23.371  0.00  0.00    +0.000 C 
BRANCH  25  26
ATOM     26  N   UNL     1      -3.093  13.854  22.968  0.00  0.00    +0.000 NA
ATOM     27  H   UNL     1      -3.457  13.314  22.147  0.00  0.00    +0.000 HD
BRANCH  26  28
ATOM     28  C   UNL     1      -4.161  13.921  23.994  0.00  0.00    +0.000 C 
ATOM     29  C   UNL     1      -5.530  14.317  23.408  0.00  0.00    +0.000 C 
ATOM     30  C   UNL     1      -4.303  12.532  24.638  0.00  0.00    +0.000 C 
ENDBRANCH  26  28
ENDBRANCH  25  26
ENDBRANCH  22  25
ENDBRANCH  21  22
ENDBRANCH  10  21
TORSDOF 9
ENDMDL
