MODEL 1
REMARK VINA RESULT:      -7.6      0.000      0.000
REMARK  Name = 
REMARK  5 active torsions:
REMARK  status: ('A' for Active; 'I' for Inactive)
REMARK    1  A    between atoms: C_1  and  O_2
REMARK    2  A    between atoms: O_2  and  C_3
REMARK    3  A    between atoms: C_6  and  C_7
REMARK    4  A    between atoms: C_17  and  O_18
REMARK    5  A    between atoms: O_18  and  C_19
REMARK                            x       y       z     vdW  Elec       q    Type
REMARK                         _______ _______ _______ _____ _____    ______ ____
ROOT
ATOM      1  C   UNL     1       4.640   4.352  16.424  0.00  0.00    +0.000 A 
ATOM      2  O   UNL     1       4.824   3.613  15.245  0.00  0.00    +0.000 OA
ATOM      3  C   UNL     1       5.754   4.048  14.333  0.00  0.00    +0.000 A 
ATOM      4  C   UNL     1       5.779   3.461  13.068  0.00  0.00    +0.000 A 
ATOM      5  C   UNL     1       6.747   3.859  12.135  0.00  0.00    +0.000 A 
ATOM      6  C   UNL     1       7.700   4.821  12.467  0.00  0.00    +0.000 A 
ATOM      7  C   UNL     1       7.674   5.408  13.724  0.00  0.00    +0.000 A 
ATOM      8  C   UNL     1       6.682   5.030  14.642  0.00  0.00    +0.000 A 
ATOM      9  C   UNL     1       6.608   5.684  15.934  0.00  0.00    +0.000 A 
ATOM     10  O   UNL     1       7.529   6.399  16.309  0.00  0.00    +0.000 OA
ATOM     11  C   UNL     1       5.386   5.436  16.747  0.00  0.00    +0.000 A 
ENDROOT
BRANCH   1  15
ATOM     12  C   UNL     1       1.903   2.865  19.427  0.00  0.00    +0.000 A 
ATOM     13  C   UNL     1       1.427   3.651  18.380  0.00  0.00    +0.000 A 
ATOM     14  C   UNL     1       2.276   4.056  17.341  0.00  0.00    +0.000 A 
ATOM     15  C   UNL     1       3.641   3.739  17.354  0.00  0.00    +0.000 A 
ATOM     16  C   UNL     1       4.092   2.896  18.390  0.00  0.00    +0.000 A 
ATOM     17  C   UNL     1       3.235   2.464  19.417  0.00  0.00    +0.000 A 
BRANCH  12  19
ATOM     18  C   UNL     1       1.488   2.658  21.750  0.00  0.00    +0.000 C 
ATOM     19  O   UNL     1       0.996   2.610  20.417  0.00  0.00    +0.000 OA
ENDBRANCH  12  19
ENDBRANCH   1  15
BRANCH  11  20
ATOM     20  O   UNL     1       5.117   6.236  17.848  0.00  0.00    +0.000 OA
ATOM     21  C   UNL     1       4.150   7.259  17.592  0.00  0.00    +0.000 C 
ENDBRANCH  11  20
TORSDOF 3
ENDMDL
MODEL 2
REMARK VINA RESULT:      -7.1      3.296      5.211
REMARK  Name = 
REMARK  5 active torsions:
REMARK  status: ('A' for Active; 'I' for Inactive)
REMARK    1  A    between atoms: C_1  and  O_2
REMARK    2  A    between atoms: O_2  and  C_3
REMARK    3  A    between atoms: C_6  and  C_7
REMARK    4  A    between atoms: C_17  and  O_18
REMARK    5  A    between atoms: O_18  and  C_19
REMARK                            x       y       z     vdW  Elec       q    Type
REMARK                         _______ _______ _______ _____ _____    ______ ____
ROOT
ATOM      1  C   UNL     1       2.965   6.478  18.397  0.00  0.00    +0.000 A 
ATOM      2  O   UNL     1       4.132   6.852  17.714  0.00  0.00    +0.000 OA
ATOM      3  C   UNL     1       4.854   5.882  17.064  0.00  0.00    +0.000 A 
ATOM      4  C   UNL     1       6.125   6.199  16.584  0.00  0.00    +0.000 A 
ATOM      5  C   UNL     1       6.864   5.239  15.881  0.00  0.00    +0.000 A 
ATOM      6  C   UNL     1       6.332   3.973  15.635  0.00  0.00    +0.000 A 
ATOM      7  C   UNL     1       5.069   3.655  16.113  0.00  0.00    +0.000 A 
ATOM      8  C   UNL     1       4.348   4.610  16.847  0.00  0.00    +0.000 A 
ATOM      9  C   UNL     1       3.055   4.264  17.406  0.00  0.00    +0.000 A 
ATOM     10  O   UNL     1       2.498   3.230  17.059  0.00  0.00    +0.000 OA
ATOM     11  C   UNL     1       2.469   5.216  18.390  0.00  0.00    +0.000 A 
ENDROOT
BRANCH   1  15
ATOM     12  C   UNL     1       0.506   9.663  19.987  0.00  0.00    +0.000 A 
ATOM     13  C   UNL     1       0.984   8.665  20.832  0.00  0.00    +0.000 A 
ATOM     14  C   UNL     1       1.866   7.683  20.361  0.00  0.00    +0.000 A 
ATOM     15  C   UNL     1       2.244   7.636  19.012  0.00  0.00    +0.000 A 
ATOM     16  C   UNL     1       1.797   8.686  18.185  0.00  0.00    +0.000 A 
ATOM     17  C   UNL     1       0.936   9.689  18.664  0.00  0.00    +0.000 A 
BRANCH  12  19
ATOM     18  C   UNL     1      -0.351  10.654  21.961  0.00  0.00    +0.000 C 
ATOM     19  O   UNL     1      -0.410  10.507  20.548  0.00  0.00    +0.000 OA
ENDBRANCH  12  19
ENDBRANCH   1  15
BRANCH  11  20
ATOM     20  O   UNL     1       1.390   4.824  19.167  0.00  0.00    +0.000 OA
ATOM     21  C   UNL     1       1.759   4.052  20.314  0.00  0.00    +0.000 C 
ENDBRANCH  11  20
TORSDOF 3
ENDMDL
MODEL 3
REMARK VINA RESULT:      -7.1      2.473      6.870
REMARK  Name = 
REMARK  5 active torsions:
REMARK  status: ('A' for Active; 'I' for Inactive)
REMARK    1  A    between atoms: C_1  and  O_2
REMARK    2  A    between atoms: O_2  and  C_3
REMARK    3  A    between atoms: C_6  and  C_7
REMARK    4  A    between atoms: C_17  and  O_18
REMARK    5  A    between atoms: O_18  and  C_19
REMARK                            x       y       z     vdW  Elec       q    Type
REMARK                         _______ _______ _______ _____ _____    ______ ____
ROOT
ATOM      1  C   UNL     1       4.975   5.000  18.149  0.00  0.00    +0.000 A 
ATOM      2  O   UNL     1       4.060   5.319  19.164  0.00  0.00    +0.000 OA
ATOM      3  C   UNL     1       2.958   4.518  19.334  0.00  0.00    +0.000 A 
ATOM      4  C   UNL     1       1.933   4.954  20.175  0.00  0.00    +0.000 A 
ATOM      5  C   UNL     1       0.818   4.135  20.397  0.00  0.00    +0.000 A 
ATOM      6  C   UNL     1       0.733   2.876  19.802  0.00  0.00    +0.000 A 
ATOM      7  C   UNL     1       1.749   2.442  18.964  0.00  0.00    +0.000 A 
ATOM      8  C   UNL     1       2.847   3.281  18.718  0.00  0.00    +0.000 A 
ATOM      9  C   UNL     1       3.882   2.862  17.793  0.00  0.00    +0.000 A 
ATOM     10  O   UNL     1       3.915   1.703  17.399  0.00  0.00    +0.000 OA
ATOM     11  C   UNL     1       4.868   3.895  17.370  0.00  0.00    +0.000 A 
ENDROOT
BRANCH   1  15
ATOM     12  C   UNL     1       8.146   7.940  18.279  0.00  0.00    +0.000 A 
ATOM     13  C   UNL     1       8.247   6.773  19.032  0.00  0.00    +0.000 A 
ATOM     14  C   UNL     1       7.283   5.762  18.926  0.00  0.00    +0.000 A 
ATOM     15  C   UNL     1       6.156   5.917  18.109  0.00  0.00    +0.000 A 
ATOM     16  C   UNL     1       6.098   7.078  17.311  0.00  0.00    +0.000 A 
ATOM     17  C   UNL     1       7.080   8.081  17.394  0.00  0.00    +0.000 A 
BRANCH  12  19
ATOM     18  C   UNL     1       8.757  10.228  18.243  0.00  0.00    +0.000 C 
ATOM     19  O   UNL     1       9.102   8.881  18.536  0.00  0.00    +0.000 OA
ENDBRANCH  12  19
ENDBRANCH   1  15
BRANCH  11  20
ATOM     20  O   UNL     1       5.700   3.650  16.289  0.00  0.00    +0.000 OA
ATOM     21  C   UNL     1       5.286   4.304  15.086  0.00  0.00    +0.000 C 
ENDBRANCH  11  20
TORSDOF 3
ENDMDL
MODEL 4
REMARK VINA RESULT:      -7.0      0.716      1.314
REMARK  Name = 
REMARK  5 active torsions:
REMARK  status: ('A' for Active; 'I' for Inactive)
REMARK    1  A    between atoms: C_1  and  O_2
REMARK    2  A    between atoms: O_2  and  C_3
REMARK    3  A    between atoms: C_6  and  C_7
REMARK    4  A    between atoms: C_17  and  O_18
REMARK    5  A    between atoms: O_18  and  C_19
REMARK                            x       y       z     vdW  Elec       q    Type
REMARK                         _______ _______ _______ _____ _____    ______ ____
ROOT
ATOM      1  C   UNL     1       4.860   4.562  16.485  0.00  0.00    +0.000 A 
ATOM      2  O   UNL     1       4.775   3.744  15.348  0.00  0.00    +0.000 OA
ATOM      3  C   UNL     1       5.602   4.007  14.284  0.00  0.00    +0.000 A 
ATOM      4  C   UNL     1       5.366   3.355  13.073  0.00  0.00    +0.000 A 
ATOM      5  C   UNL     1       6.222   3.574  11.986  0.00  0.00    +0.000 A 
ATOM      6  C   UNL     1       7.323   4.422  12.109  0.00  0.00    +0.000 A 
ATOM      7  C   UNL     1       7.558   5.073  13.311  0.00  0.00    +0.000 A 
ATOM      8  C   UNL     1       6.677   4.876  14.386  0.00  0.00    +0.000 A 
ATOM      9  C   UNL     1       6.877   5.602  15.625  0.00  0.00    +0.000 A 
ATOM     10  O   UNL     1       7.924   6.210  15.813  0.00  0.00    +0.000 OA
ATOM     11  C   UNL     1       5.771   5.557  16.620  0.00  0.00    +0.000 A 
ENDROOT
BRANCH   1  15
ATOM     12  C   UNL     1       2.089   2.988  19.411  0.00  0.00    +0.000 A 
ATOM     13  C   UNL     1       3.460   2.826  19.593  0.00  0.00    +0.000 A 
ATOM     14  C   UNL     1       4.378   3.417  18.715  0.00  0.00    +0.000 A 
ATOM     15  C   UNL     1       3.947   4.134  17.590  0.00  0.00    +0.000 A 
ATOM     16  C   UNL     1       2.559   4.335  17.453  0.00  0.00    +0.000 A 
ATOM     17  C   UNL     1       1.637   3.768  18.351  0.00  0.00    +0.000 A 
BRANCH  12  19
ATOM     18  C   UNL     1       1.473   2.595  21.665  0.00  0.00    +0.000 C 
ATOM     19  O   UNL     1       1.302   2.293  20.286  0.00  0.00    +0.000 OA
ENDBRANCH  12  19
ENDBRANCH   1  15
BRANCH  11  20
ATOM     20  O   UNL     1       5.769   6.442  17.688  0.00  0.00    +0.000 OA
ATOM     21  C   UNL     1       6.740   6.133  18.692  0.00  0.00    +0.000 C 
ENDBRANCH  11  20
TORSDOF 3
ENDMDL
MODEL 5
REMARK VINA RESULT:      -7.0      3.278      5.249
REMARK  Name = 
REMARK  5 active torsions:
REMARK  status: ('A' for Active; 'I' for Inactive)
REMARK    1  A    between atoms: C_1  and  O_2
REMARK    2  A    between atoms: O_2  and  C_3
REMARK    3  A    between atoms: C_6  and  C_7
REMARK    4  A    between atoms: C_17  and  O_18
REMARK    5  A    between atoms: O_18  and  C_19
REMARK                            x       y       z     vdW  Elec       q    Type
REMARK                         _______ _______ _______ _____ _____    ______ ____
ROOT
ATOM      1  C   UNL     1       2.911   6.522  18.343  0.00  0.00    +0.000 A 
ATOM      2  O   UNL     1       4.073   6.962  17.691  0.00  0.00    +0.000 OA
ATOM      3  C   UNL     1       4.900   6.028  17.117  0.00  0.00    +0.000 A 
ATOM      4  C   UNL     1       6.161   6.429  16.676  0.00  0.00    +0.000 A 
ATOM      5  C   UNL     1       7.006   5.504  16.048  0.00  0.00    +0.000 A 
ATOM      6  C   UNL     1       6.588   4.189  15.838  0.00  0.00    +0.000 A 
ATOM      7  C   UNL     1       5.335   3.789  16.279  0.00  0.00    +0.000 A 
ATOM      8  C   UNL     1       4.507   4.711  16.938  0.00  0.00    +0.000 A 
ATOM      9  C   UNL     1       3.223   4.284  17.458  0.00  0.00    +0.000 A 
ATOM     10  O   UNL     1       2.767   3.194  17.136  0.00  0.00    +0.000 OA
ATOM     11  C   UNL     1       2.519   5.225  18.372  0.00  0.00    +0.000 A 
ENDROOT
BRANCH   1  15
ATOM     12  C   UNL     1       0.865   9.930  20.053  0.00  0.00    +0.000 A 
ATOM     13  C   UNL     1       1.070   9.860  18.678  0.00  0.00    +0.000 A 
ATOM     14  C   UNL     1       1.636   8.720  18.091  0.00  0.00    +0.000 A 
ATOM     15  C   UNL     1       2.072   7.643  18.874  0.00  0.00    +0.000 A 
ATOM     16  C   UNL     1       1.806   7.706  20.257  0.00  0.00    +0.000 A 
ATOM     17  C   UNL     1       1.210   8.837  20.843  0.00  0.00    +0.000 A 
BRANCH  12  19
ATOM     18  C   UNL     1      -0.296  11.099  21.755  0.00  0.00    +0.000 C 
ATOM     19  O   UNL     1       0.384  11.125  20.507  0.00  0.00    +0.000 OA
ENDBRANCH  12  19
ENDBRANCH   1  15
BRANCH  11  20
ATOM     20  O   UNL     1       1.441   4.778  19.122  0.00  0.00    +0.000 OA
ATOM     21  C   UNL     1       1.819   4.109  20.328  0.00  0.00    +0.000 C 
ENDBRANCH  11  20
TORSDOF 3
ENDMDL
MODEL 6
REMARK VINA RESULT:      -6.9      3.766      5.738
REMARK  Name = 
REMARK  5 active torsions:
REMARK  status: ('A' for Active; 'I' for Inactive)
REMARK    1  A    between atoms: C_1  and  O_2
REMARK    2  A    between atoms: O_2  and  C_3
REMARK    3  A    between atoms: C_6  and  C_7
REMARK    4  A    between atoms: C_17  and  O_18
REMARK    5  A    between atoms: O_18  and  C_19
REMARK                            x       y       z     vdW  Elec       q    Type
REMARK                         _______ _______ _______ _____ _____    ______ ____
ROOT
ATOM      1  C   UNL     1       2.476   6.772  19.096  0.00  0.00    +0.000 A 
ATOM      2  O   UNL     1       3.355   7.197  18.088  0.00  0.00    +0.000 OA
ATOM      3  C   UNL     1       4.045   6.249  17.373  0.00  0.00    +0.000 A 
ATOM      4  C   UNL     1       5.085   6.663  16.539  0.00  0.00    +0.000 A 
ATOM      5  C   UNL     1       5.776   5.719  15.768  0.00  0.00    +0.000 A 
ATOM      6  C   UNL     1       5.420   4.370  15.809  0.00  0.00    +0.000 A 
ATOM      7  C   UNL     1       4.388   3.958  16.640  0.00  0.00    +0.000 A 
ATOM      8  C   UNL     1       3.723   4.903  17.436  0.00  0.00    +0.000 A 
ATOM      9  C   UNL     1       2.688   4.471  18.355  0.00  0.00    +0.000 A 
ATOM     10  O   UNL     1       2.244   3.332  18.281  0.00  0.00    +0.000 OA
ATOM     11  C   UNL     1       2.213   5.468  19.354  0.00  0.00    +0.000 A 
ENDROOT
BRANCH   1  15
ATOM     12  C   UNL     1       0.763  10.154  21.181  0.00  0.00    +0.000 A 
ATOM     13  C   UNL     1       0.921  10.197  19.798  0.00  0.00    +0.000 A 
ATOM     14  C   UNL     1       1.375   9.076  19.091  0.00  0.00    +0.000 A 
ATOM     15  C   UNL     1       1.746   7.900  19.756  0.00  0.00    +0.000 A 
ATOM     16  C   UNL     1       1.527   7.855  21.148  0.00  0.00    +0.000 A 
ATOM     17  C   UNL     1       1.042   8.970  21.855  0.00  0.00    +0.000 A 
BRANCH  12  19
ATOM     18  C   UNL     1      -0.733  11.291  22.625  0.00  0.00    +0.000 C 
ATOM     19  O   UNL     1       0.393  11.336  21.758  0.00  0.00    +0.000 OA
ENDBRANCH  12  19
ENDBRANCH   1  15
BRANCH  11  20
ATOM     20  O   UNL     1       1.444   5.051  20.430  0.00  0.00    +0.000 OA
ATOM     21  C   UNL     1       2.134   4.171  21.323  0.00  0.00    +0.000 C 
ENDBRANCH  11  20
TORSDOF 3
ENDMDL
MODEL 7
REMARK VINA RESULT:      -6.7      2.589      7.127
REMARK  Name = 
REMARK  5 active torsions:
REMARK  status: ('A' for Active; 'I' for Inactive)
REMARK    1  A    between atoms: C_1  and  O_2
REMARK    2  A    between atoms: O_2  and  C_3
REMARK    3  A    between atoms: C_6  and  C_7
REMARK    4  A    between atoms: C_17  and  O_18
REMARK    5  A    between atoms: O_18  and  C_19
REMARK                            x       y       z     vdW  Elec       q    Type
REMARK                         _______ _______ _______ _____ _____    ______ ____
ROOT
ATOM      1  C   UNL     1       3.770   5.795  18.296  0.00  0.00    +0.000 A 
ATOM      2  O   UNL     1       3.388   7.144  18.260  0.00  0.00    +0.000 OA
ATOM      3  C   UNL     1       2.404   7.574  19.116  0.00  0.00    +0.000 A 
ATOM      4  C   UNL     1       1.859   8.844  18.929  0.00  0.00    +0.000 A 
ATOM      5  C   UNL     1       0.884   9.321  19.816  0.00  0.00    +0.000 A 
ATOM      6  C   UNL     1       0.469   8.546  20.899  0.00  0.00    +0.000 A 
ATOM      7  C   UNL     1       1.008   7.281  21.084  0.00  0.00    +0.000 A 
ATOM      8  C   UNL     1       1.959   6.795  20.173  0.00  0.00    +0.000 A 
ATOM      9  C   UNL     1       2.480   5.451  20.323  0.00  0.00    +0.000 A 
ATOM     10  O   UNL     1       2.263   4.824  21.353  0.00  0.00    +0.000 OA
ATOM     11  C   UNL     1       3.270   4.902  19.186  0.00  0.00    +0.000 A 
ENDROOT
BRANCH   1  15
ATOM     12  C   UNL     1       6.842   5.189  15.310  0.00  0.00    +0.000 A 
ATOM     13  C   UNL     1       7.160   5.794  16.523  0.00  0.00    +0.000 A 
ATOM     14  C   UNL     1       6.206   5.906  17.544  0.00  0.00    +0.000 A 
ATOM     15  C   UNL     1       4.888   5.472  17.355  0.00  0.00    +0.000 A 
ATOM     16  C   UNL     1       4.599   4.812  16.144  0.00  0.00    +0.000 A 
ATOM     17  C   UNL     1       5.563   4.672  15.130  0.00  0.00    +0.000 A 
BRANCH  12  19
ATOM     18  C   UNL     1       7.450   4.904  13.039  0.00  0.00    +0.000 C 
ATOM     19  O   UNL     1       7.834   5.218  14.371  0.00  0.00    +0.000 OA
ENDBRANCH  12  19
ENDBRANCH   1  15
BRANCH  11  20
ATOM     20  O   UNL     1       3.554   3.546  19.136  0.00  0.00    +0.000 OA
ATOM     21  C   UNL     1       2.534   2.768  18.503  0.00  0.00    +0.000 C 
ENDBRANCH  11  20
TORSDOF 3
ENDMDL
MODEL 8
REMARK VINA RESULT:      -6.6      2.525      6.856
REMARK  Name = 
REMARK  5 active torsions:
REMARK  status: ('A' for Active; 'I' for Inactive)
REMARK    1  A    between atoms: C_1  and  O_2
REMARK    2  A    between atoms: O_2  and  C_3
REMARK    3  A    between atoms: C_6  and  C_7
REMARK    4  A    between atoms: C_17  and  O_18
REMARK    5  A    between atoms: O_18  and  C_19
REMARK                            x       y       z     vdW  Elec       q    Type
REMARK                         _______ _______ _______ _____ _____    ______ ____
ROOT
ATOM      1  C   UNL     1       3.568   5.758  17.915  0.00  0.00    +0.000 A 
ATOM      2  O   UNL     1       3.259   7.123  17.821  0.00  0.00    +0.000 OA
ATOM      3  C   UNL     1       2.402   7.670  18.744  0.00  0.00    +0.000 A 
ATOM      4  C   UNL     1       1.909   8.957  18.523  0.00  0.00    +0.000 A 
ATOM      5  C   UNL     1       1.067   9.553  19.472  0.00  0.00    +0.000 A 
ATOM      6  C   UNL     1       0.735   8.880  20.648  0.00  0.00    +0.000 A 
ATOM      7  C   UNL     1       1.222   7.599  20.868  0.00  0.00    +0.000 A 
ATOM      8  C   UNL     1       2.036   6.995  19.897  0.00  0.00    +0.000 A 
ATOM      9  C   UNL     1       2.497   5.633  20.089  0.00  0.00    +0.000 A 
ATOM     10  O   UNL     1       2.363   5.093  21.180  0.00  0.00    +0.000 OA
ATOM     11  C   UNL     1       3.123   4.961  18.918  0.00  0.00    +0.000 A 
ENDROOT
BRANCH   1  15
ATOM     12  C   UNL     1       6.067   4.298  14.700  0.00  0.00    +0.000 A 
ATOM     13  C   UNL     1       5.879   5.667  14.868  0.00  0.00    +0.000 A 
ATOM     14  C   UNL     1       5.161   6.166  15.963  0.00  0.00    +0.000 A 
ATOM     15  C   UNL     1       4.554   5.303  16.886  0.00  0.00    +0.000 A 
ATOM     16  C   UNL     1       4.802   3.924  16.731  0.00  0.00    +0.000 A 
ATOM     17  C   UNL     1       5.548   3.424  15.650  0.00  0.00    +0.000 A 
BRANCH  12  19
ATOM     18  C   UNL     1       5.901   3.412  12.509  0.00  0.00    +0.000 C 
ATOM     19  O   UNL     1       6.712   3.939  13.550  0.00  0.00    +0.000 OA
ENDBRANCH  12  19
ENDBRANCH   1  15
BRANCH  11  20
ATOM     20  O   UNL     1       3.326   3.589  18.939  0.00  0.00    +0.000 OA
ATOM     21  C   UNL     1       2.134   2.829  18.720  0.00  0.00    +0.000 C 
ENDBRANCH  11  20
TORSDOF 3
ENDMDL
MODEL 9
REMARK VINA RESULT:      -6.5      2.700      7.063
REMARK  Name = 
REMARK  5 active torsions:
REMARK  status: ('A' for Active; 'I' for Inactive)
REMARK    1  A    between atoms: C_1  and  O_2
REMARK    2  A    between atoms: O_2  and  C_3
REMARK    3  A    between atoms: C_6  and  C_7
REMARK    4  A    between atoms: C_17  and  O_18
REMARK    5  A    between atoms: O_18  and  C_19
REMARK                            x       y       z     vdW  Elec       q    Type
REMARK                         _______ _______ _______ _____ _____    ______ ____
ROOT
ATOM      1  C   UNL     1       3.621   6.483  18.080  0.00  0.00    +0.000 A 
ATOM      2  O   UNL     1       3.343   7.815  17.740  0.00  0.00    +0.000 OA
ATOM      3  C   UNL     1       2.339   8.470  18.410  0.00  0.00    +0.000 A 
ATOM      4  C   UNL     1       1.902   9.703  17.925  0.00  0.00    +0.000 A 
ATOM      5  C   UNL     1       0.909  10.411  18.616  0.00  0.00    +0.000 A 
ATOM      6  C   UNL     1       0.368   9.904  19.798  0.00  0.00    +0.000 A 
ATOM      7  C   UNL     1       0.800   8.677  20.280  0.00  0.00    +0.000 A 
ATOM      8  C   UNL     1       1.770   7.957  19.565  0.00  0.00    +0.000 A 
ATOM      9  C   UNL     1       2.180   6.645  20.026  0.00  0.00    +0.000 A 
ATOM     10  O   UNL     1       1.851   6.261  21.142  0.00  0.00    +0.000 OA
ATOM     11  C   UNL     1       3.000   5.826  19.091  0.00  0.00    +0.000 A 
ENDROOT
BRANCH   1  15
ATOM     12  C   UNL     1       6.824   5.083  15.530  0.00  0.00    +0.000 A 
ATOM     13  C   UNL     1       7.105   5.928  16.601  0.00  0.00    +0.000 A 
ATOM     14  C   UNL     1       6.101   6.310  17.500  0.00  0.00    +0.000 A 
ATOM     15  C   UNL     1       4.772   5.907  17.316  0.00  0.00    +0.000 A 
ATOM     16  C   UNL     1       4.516   5.007  16.262  0.00  0.00    +0.000 A 
ATOM     17  C   UNL     1       5.529   4.599  15.376  0.00  0.00    +0.000 A 
BRANCH  12  19
ATOM     18  C   UNL     1       7.602   5.010  13.294  0.00  0.00    +0.000 C 
ATOM     19  O   UNL     1       7.870   4.856  14.681  0.00  0.00    +0.000 OA
ENDBRANCH  12  19
ENDBRANCH   1  15
BRANCH  11  20
ATOM     20  O   UNL     1       3.187   4.475  19.342  0.00  0.00    +0.000 OA
ATOM     21  C   UNL     1       2.130   3.648  18.846  0.00  0.00    +0.000 C 
ENDBRANCH  11  20
TORSDOF 3
ENDMDL
