MODEL 1
REMARK VINA RESULT:      -6.1      0.000      0.000
REMARK  Name = 
REMARK  9 active torsions:
REMARK  status: ('A' for Active; 'I' for Inactive)
REMARK    1  A    between atoms: C_1  and  N_2
REMARK    2  A    between atoms: N_2  and  C_3
REMARK    3  A    between atoms: N_2  and  C_4
REMARK    4  A    between atoms: N_2  and  C_5
REMARK    5  A    between atoms: C_5  and  C_6
REMARK    6  A    between atoms: C_6  and  C_7
REMARK    7  A    between atoms: C_9  and  O_10
REMARK    8  A    between atoms: C_11  and  O_12
REMARK    9  A    between atoms: C_14  and  N_15
REMARK                            x       y       z     vdW  Elec       q    Type
REMARK                         _______ _______ _______ _____ _____    ______ ____
ROOT
ATOM      1  C   UNL     1       5.481   5.138  17.526  0.00  0.00    +0.000 A 
ATOM      2  C   UNL     1       6.120   4.839  18.751  0.00  0.00    +0.000 A 
ATOM      3  C   UNL     1       7.174   5.626  19.195  0.00  0.00    +0.000 A 
ATOM      4  C   UNL     1       7.613   6.694  18.428  0.00  0.00    +0.000 A 
ATOM      5  C   UNL     1       7.026   6.978  17.204  0.00  0.00    +0.000 A 
ATOM      6  C   UNL     1       5.985   6.177  16.715  0.00  0.00    +0.000 A 
ENDROOT
BRANCH   6   7
ATOM      7  N   UNL     1       5.353   6.548  15.513  0.00  0.00    +0.000 N 
ATOM      8  H   UNL     1       4.386   6.839  15.665  0.00  0.00    +0.000 HD
ATOM      9  H   UNL     1       5.843   7.288  15.020  0.00  0.00    +0.000 HD
ENDBRANCH   6   7
BRANCH   3  10
ATOM     10  O   UNL     1       7.782   5.412  20.398  0.00  0.00    +0.000 OA
ATOM     11  H   UNL     1       8.729   5.244  20.261  0.00  0.00    +0.000 HD
ENDBRANCH   3  10
BRANCH   4  12
ATOM     12  O   UNL     1       8.627   7.489  18.880  0.00  0.00    +0.000 OA
ATOM     13  H   UNL     1       8.188   8.280  19.252  0.00  0.00    +0.000 HD
ENDBRANCH   4  12
BRANCH   1  14
ATOM     14  C   UNL     1       4.217   4.376  17.175  0.00  0.00    +0.000 C 
BRANCH  14  15
ATOM     15  C   UNL     1       3.261   4.381  18.378  0.00  0.00    +0.000 C 
BRANCH  15  17
ATOM     16  C   UNL     1       3.200   2.824  20.307  0.00  0.00    +0.000 C 
ATOM     17  N   UNL     1       2.793   2.985  18.837  0.00  0.00    +0.000 N 
ATOM     18  C   UNL     1       3.455   1.873  18.035  0.00  0.00    +0.000 C 
ATOM     19  C   UNL     1       1.278   2.858  18.746  0.00  0.00    +0.000 C 
ENDBRANCH  15  17
ENDBRANCH  14  15
ENDBRANCH   1  14
TORSDOF 6
ENDMDL
MODEL 2
REMARK VINA RESULT:      -6.1      0.254      1.120
REMARK  Name = 
REMARK  9 active torsions:
REMARK  status: ('A' for Active; 'I' for Inactive)
REMARK    1  A    between atoms: C_1  and  N_2
REMARK    2  A    between atoms: N_2  and  C_3
REMARK    3  A    between atoms: N_2  and  C_4
REMARK    4  A    between atoms: N_2  and  C_5
REMARK    5  A    between atoms: C_5  and  C_6
REMARK    6  A    between atoms: C_6  and  C_7
REMARK    7  A    between atoms: C_9  and  O_10
REMARK    8  A    between atoms: C_11  and  O_12
REMARK    9  A    between atoms: C_14  and  N_15
REMARK                            x       y       z     vdW  Elec       q    Type
REMARK                         _______ _______ _______ _____ _____    ______ ____
ROOT
ATOM      1  C   UNL     1       5.708   4.986  17.419  0.00  0.00    +0.000 A 
ATOM      2  C   UNL     1       6.306   4.734  18.676  0.00  0.00    +0.000 A 
ATOM      3  C   UNL     1       7.277   5.595  19.169  0.00  0.00    +0.000 A 
ATOM      4  C   UNL     1       7.674   6.692  18.421  0.00  0.00    +0.000 A 
ATOM      5  C   UNL     1       7.128   6.934  17.169  0.00  0.00    +0.000 A 
ATOM      6  C   UNL     1       6.174   6.059  16.632  0.00  0.00    +0.000 A 
ENDROOT
BRANCH   6   7
ATOM      7  N   UNL     1       5.577   6.384  15.399  0.00  0.00    +0.000 N 
ATOM      8  H   UNL     1       4.567   6.510  15.486  0.00  0.00    +0.000 HD
ATOM      9  H   UNL     1       5.975   7.216  14.973  0.00  0.00    +0.000 HD
ENDBRANCH   6   7
BRANCH   3  10
ATOM     10  O   UNL     1       7.838   5.425  20.401  0.00  0.00    +0.000 OA
ATOM     11  H   UNL     1       8.780   5.207  20.304  0.00  0.00    +0.000 HD
ENDBRANCH   3  10
BRANCH   4  12
ATOM     12  O   UNL     1       8.604   7.559  18.920  0.00  0.00    +0.000 OA
ATOM     13  H   UNL     1       9.416   7.027  19.035  0.00  0.00    +0.000 HD
ENDBRANCH   4  12
BRANCH   1  14
ATOM     14  C   UNL     1       4.522   4.133  17.009  0.00  0.00    +0.000 C 
BRANCH  14  15
ATOM     15  C   UNL     1       3.340   4.406  17.953  0.00  0.00    +0.000 C 
BRANCH  15  17
ATOM     16  C   UNL     1       3.440   1.930  18.033  0.00  0.00    +0.000 C 
ATOM     17  N   UNL     1       2.797   3.161  18.683  0.00  0.00    +0.000 N 
ATOM     18  C   UNL     1       1.286   3.038  18.546  0.00  0.00    +0.000 C 
ATOM     19  C   UNL     1       3.184   3.178  20.156  0.00  0.00    +0.000 C 
ENDBRANCH  15  17
ENDBRANCH  14  15
ENDBRANCH   1  14
TORSDOF 6
ENDMDL
MODEL 3
REMARK VINA RESULT:      -6.1      0.275      1.154
REMARK  Name = 
REMARK  9 active torsions:
REMARK  status: ('A' for Active; 'I' for Inactive)
REMARK    1  A    between atoms: C_1  and  N_2
REMARK    2  A    between atoms: N_2  and  C_3
REMARK    3  A    between atoms: N_2  and  C_4
REMARK    4  A    between atoms: N_2  and  C_5
REMARK    5  A    between atoms: C_5  and  C_6
REMARK    6  A    between atoms: C_6  and  C_7
REMARK    7  A    between atoms: C_9  and  O_10
REMARK    8  A    between atoms: C_11  and  O_12
REMARK    9  A    between atoms: C_14  and  N_15
REMARK                            x       y       z     vdW  Elec       q    Type
REMARK                         _______ _______ _______ _____ _____    ______ ____
ROOT
ATOM      1  C   UNL     1       5.728   4.988  17.412  0.00  0.00    +0.000 A 
ATOM      2  C   UNL     1       6.323   4.737  18.670  0.00  0.00    +0.000 A 
ATOM      3  C   UNL     1       7.290   5.601  19.165  0.00  0.00    +0.000 A 
ATOM      4  C   UNL     1       7.687   6.699  18.418  0.00  0.00    +0.000 A 
ATOM      5  C   UNL     1       7.145   6.939  17.164  0.00  0.00    +0.000 A 
ATOM      6  C   UNL     1       6.194   6.061  16.625  0.00  0.00    +0.000 A 
ENDROOT
BRANCH   6   7
ATOM      7  N   UNL     1       5.600   6.385  15.390  0.00  0.00    +0.000 N 
ATOM      8  H   UNL     1       6.294   6.662  14.695  0.00  0.00    +0.000 HD
ATOM      9  H   UNL     1       5.039   5.629  15.010  0.00  0.00    +0.000 HD
ENDBRANCH   6   7
BRANCH   3  10
ATOM     10  O   UNL     1       7.849   5.433  20.399  0.00  0.00    +0.000 OA
ATOM     11  H   UNL     1       7.214   4.992  20.988  0.00  0.00    +0.000 HD
ENDBRANCH   3  10
BRANCH   4  12
ATOM     12  O   UNL     1       8.614   7.568  18.919  0.00  0.00    +0.000 OA
ATOM     13  H   UNL     1       8.096   8.268  19.364  0.00  0.00    +0.000 HD
ENDBRANCH   4  12
BRANCH   1  14
ATOM     14  C   UNL     1       4.545   4.132  16.999  0.00  0.00    +0.000 C 
BRANCH  14  15
ATOM     15  C   UNL     1       3.362   4.400  17.941  0.00  0.00    +0.000 C 
BRANCH  15  17
ATOM     16  C   UNL     1       1.301   3.142  18.507  0.00  0.00    +0.000 C 
ATOM     17  N   UNL     1       2.826   3.152  18.674  0.00  0.00    +0.000 N 
ATOM     18  C   UNL     1       3.142   3.189  20.163  0.00  0.00    +0.000 C 
ATOM     19  C   UNL     1       3.380   1.875  18.058  0.00  0.00    +0.000 C 
ENDBRANCH  15  17
ENDBRANCH  14  15
ENDBRANCH   1  14
TORSDOF 6
ENDMDL
MODEL 4
REMARK VINA RESULT:      -5.9      3.248      5.953
REMARK  Name = 
REMARK  9 active torsions:
REMARK  status: ('A' for Active; 'I' for Inactive)
REMARK    1  A    between atoms: C_1  and  N_2
REMARK    2  A    between atoms: N_2  and  C_3
REMARK    3  A    between atoms: N_2  and  C_4
REMARK    4  A    between atoms: N_2  and  C_5
REMARK    5  A    between atoms: C_5  and  C_6
REMARK    6  A    between atoms: C_6  and  C_7
REMARK    7  A    between atoms: C_9  and  O_10
REMARK    8  A    between atoms: C_11  and  O_12
REMARK    9  A    between atoms: C_14  and  N_15
REMARK                            x       y       z     vdW  Elec       q    Type
REMARK                         _______ _______ _______ _____ _____    ______ ____
ROOT
ATOM      1  C   UNL     1       4.211   3.590  18.613  0.00  0.00    +0.000 A 
ATOM      2  C   UNL     1       3.192   4.223  17.864  0.00  0.00    +0.000 A 
ATOM      3  C   UNL     1       1.924   3.662  17.802  0.00  0.00    +0.000 A 
ATOM      4  C   UNL     1       1.661   2.471  18.460  0.00  0.00    +0.000 A 
ATOM      5  C   UNL     1       2.658   1.814  19.167  0.00  0.00    +0.000 A 
ATOM      6  C   UNL     1       3.956   2.340  19.213  0.00  0.00    +0.000 A 
ENDROOT
BRANCH   6   7
ATOM      7  N   UNL     1       4.918   1.695  20.014  0.00  0.00    +0.000 N 
ATOM      8  H   UNL     1       5.755   1.452  19.481  0.00  0.00    +0.000 HD
ATOM      9  H   UNL     1       5.193   2.243  20.823  0.00  0.00    +0.000 HD
ENDBRANCH   6   7
BRANCH   3  10
ATOM     10  O   UNL     1       0.895   4.267  17.141  0.00  0.00    +0.000 OA
ATOM     11  H   UNL     1       0.902   5.220  17.328  0.00  0.00    +0.000 HD
ENDBRANCH   3  10
BRANCH   4  12
ATOM     12  O   UNL     1       0.405   1.936  18.429  0.00  0.00    +0.000 OA
ATOM     13  H   UNL     1      -0.198   2.682  18.619  0.00  0.00    +0.000 HD
ENDBRANCH   4  12
BRANCH   1  14
ATOM     14  C   UNL     1       5.519   4.335  18.811  0.00  0.00    +0.000 C 
BRANCH  14  15
ATOM     15  C   UNL     1       5.382   5.769  18.277  0.00  0.00    +0.000 C 
BRANCH  15  17
ATOM     16  C   UNL     1       5.320   6.522  15.915  0.00  0.00    +0.000 C 
ATOM     17  N   UNL     1       6.258   6.086  17.048  0.00  0.00    +0.000 N 
ATOM     18  C   UNL     1       7.039   4.867  16.578  0.00  0.00    +0.000 C 
ATOM     19  C   UNL     1       7.216   7.233  17.340  0.00  0.00    +0.000 C 
ENDBRANCH  15  17
ENDBRANCH  14  15
ENDBRANCH   1  14
TORSDOF 6
ENDMDL
MODEL 5
REMARK VINA RESULT:      -5.8      2.508      2.833
REMARK  Name = 
REMARK  9 active torsions:
REMARK  status: ('A' for Active; 'I' for Inactive)
REMARK    1  A    between atoms: C_1  and  N_2
REMARK    2  A    between atoms: N_2  and  C_3
REMARK    3  A    between atoms: N_2  and  C_4
REMARK    4  A    between atoms: N_2  and  C_5
REMARK    5  A    between atoms: C_5  and  C_6
REMARK    6  A    between atoms: C_6  and  C_7
REMARK    7  A    between atoms: C_9  and  O_10
REMARK    8  A    between atoms: C_11  and  O_12
REMARK    9  A    between atoms: C_14  and  N_15
REMARK                            x       y       z     vdW  Elec       q    Type
REMARK                         _______ _______ _______ _____ _____    ______ ____
ROOT
ATOM      1  C   UNL     1       3.684   5.053  17.386  0.00  0.00    +0.000 A 
ATOM      2  C   UNL     1       4.361   3.960  16.796  0.00  0.00    +0.000 A 
ATOM      3  C   UNL     1       5.558   4.165  16.124  0.00  0.00    +0.000 A 
ATOM      4  C   UNL     1       6.081   5.444  16.013  0.00  0.00    +0.000 A 
ATOM      5  C   UNL     1       5.412   6.534  16.550  0.00  0.00    +0.000 A 
ATOM      6  C   UNL     1       4.183   6.359  17.202  0.00  0.00    +0.000 A 
ENDROOT
BRANCH   6   7
ATOM      7  N   UNL     1       3.577   7.474  17.812  0.00  0.00    +0.000 N 
ATOM      8  H   UNL     1       3.207   7.248  18.736  0.00  0.00    +0.000 HD
ATOM      9  H   UNL     1       4.203   8.269  17.896  0.00  0.00    +0.000 HD
ENDBRANCH   6   7
BRANCH   3  10
ATOM     10  O   UNL     1       6.276   3.134  15.590  0.00  0.00    +0.000 OA
ATOM     11  H   UNL     1       7.116   3.039  16.068  0.00  0.00    +0.000 HD
ENDBRANCH   3  10
BRANCH   4  12
ATOM     12  O   UNL     1       7.275   5.642  15.382  0.00  0.00    +0.000 OA
ATOM     13  H   UNL     1       7.581   6.521  15.679  0.00  0.00    +0.000 HD
ENDBRANCH   4  12
BRANCH   1  14
ATOM     14  C   UNL     1       2.488   4.758  18.272  0.00  0.00    +0.000 C 
BRANCH  14  15
ATOM     15  C   UNL     1       2.967   4.439  19.696  0.00  0.00    +0.000 C 
BRANCH  15  17
ATOM     16  C   UNL     1       4.217   2.336  20.101  0.00  0.00    +0.000 C 
ATOM     17  N   UNL     1       2.816   2.962  20.113  0.00  0.00    +0.000 N 
ATOM     18  C   UNL     1       1.940   2.185  19.140  0.00  0.00    +0.000 C 
ATOM     19  C   UNL     1       2.254   2.845  21.523  0.00  0.00    +0.000 C 
ENDBRANCH  15  17
ENDBRANCH  14  15
ENDBRANCH   1  14
TORSDOF 6
ENDMDL
MODEL 6
REMARK VINA RESULT:      -5.8      2.705      3.154
REMARK  Name = 
REMARK  9 active torsions:
REMARK  status: ('A' for Active; 'I' for Inactive)
REMARK    1  A    between atoms: C_1  and  N_2
REMARK    2  A    between atoms: N_2  and  C_3
REMARK    3  A    between atoms: N_2  and  C_4
REMARK    4  A    between atoms: N_2  and  C_5
REMARK    5  A    between atoms: C_5  and  C_6
REMARK    6  A    between atoms: C_6  and  C_7
REMARK    7  A    between atoms: C_9  and  O_10
REMARK    8  A    between atoms: C_11  and  O_12
REMARK    9  A    between atoms: C_14  and  N_15
REMARK                            x       y       z     vdW  Elec       q    Type
REMARK                         _______ _______ _______ _____ _____    ______ ____
ROOT
ATOM      1  C   UNL     1       5.369   4.196  18.036  0.00  0.00    +0.000 A 
ATOM      2  C   UNL     1       4.952   3.954  16.707  0.00  0.00    +0.000 A 
ATOM      3  C   UNL     1       5.721   4.407  15.644  0.00  0.00    +0.000 A 
ATOM      4  C   UNL     1       6.888   5.114  15.885  0.00  0.00    +0.000 A 
ATOM      5  C   UNL     1       7.293   5.397  17.182  0.00  0.00    +0.000 A 
ATOM      6  C   UNL     1       6.515   4.983  18.272  0.00  0.00    +0.000 A 
ENDROOT
BRANCH   6   7
ATOM      7  N   UNL     1       7.002   5.209  19.574  0.00  0.00    +0.000 N 
ATOM      8  H   UNL     1       7.826   4.640  19.775  0.00  0.00    +0.000 HD
ATOM      9  H   UNL     1       7.225   6.183  19.750  0.00  0.00    +0.000 HD
ENDBRANCH   6   7
BRANCH   3  10
ATOM     10  O   UNL     1       5.390   4.146  14.346  0.00  0.00    +0.000 OA
ATOM     11  H   UNL     1       5.843   3.339  14.049  0.00  0.00    +0.000 HD
ENDBRANCH   3  10
BRANCH   4  12
ATOM     12  O   UNL     1       7.663   5.531  14.841  0.00  0.00    +0.000 OA
ATOM     13  H   UNL     1       7.996   6.412  15.103  0.00  0.00    +0.000 HD
ENDBRANCH   4  12
BRANCH   1  14
ATOM     14  C   UNL     1       4.604   3.520  19.159  0.00  0.00    +0.000 C 
BRANCH  14  15
ATOM     15  C   UNL     1       3.378   4.367  19.531  0.00  0.00    +0.000 C 
BRANCH  15  17
ATOM     16  C   UNL     1       2.241   2.206  19.100  0.00  0.00    +0.000 C 
ATOM     17  N   UNL     1       2.019   3.721  19.190  0.00  0.00    +0.000 N 
ATOM     18  C   UNL     1       1.481   4.204  17.851  0.00  0.00    +0.000 C 
ATOM     19  C   UNL     1       0.996   3.987  20.286  0.00  0.00    +0.000 C 
ENDBRANCH  15  17
ENDBRANCH  14  15
ENDBRANCH   1  14
TORSDOF 6
ENDMDL
MODEL 7
REMARK VINA RESULT:      -5.8      2.696      3.096
REMARK  Name = 
REMARK  9 active torsions:
REMARK  status: ('A' for Active; 'I' for Inactive)
REMARK    1  A    between atoms: C_1  and  N_2
REMARK    2  A    between atoms: N_2  and  C_3
REMARK    3  A    between atoms: N_2  and  C_4
REMARK    4  A    between atoms: N_2  and  C_5
REMARK    5  A    between atoms: C_5  and  C_6
REMARK    6  A    between atoms: C_6  and  C_7
REMARK    7  A    between atoms: C_9  and  O_10
REMARK    8  A    between atoms: C_11  and  O_12
REMARK    9  A    between atoms: C_14  and  N_15
REMARK                            x       y       z     vdW  Elec       q    Type
REMARK                         _______ _______ _______ _____ _____    ______ ____
ROOT
ATOM      1  C   UNL     1       5.375   4.259  18.109  0.00  0.00    +0.000 A 
ATOM      2  C   UNL     1       4.930   4.013  16.789  0.00  0.00    +0.000 A 
ATOM      3  C   UNL     1       5.696   4.427  15.709  0.00  0.00    +0.000 A 
ATOM      4  C   UNL     1       6.889   5.101  15.923  0.00  0.00    +0.000 A 
ATOM      5  C   UNL     1       7.323   5.387  17.210  0.00  0.00    +0.000 A 
ATOM      6  C   UNL     1       6.549   5.012  18.317  0.00  0.00    +0.000 A 
ENDROOT
BRANCH   6   7
ATOM      7  N   UNL     1       7.063   5.239  19.608  0.00  0.00    +0.000 N 
ATOM      8  H   UNL     1       7.877   4.654  19.802  0.00  0.00    +0.000 HD
ATOM      9  H   UNL     1       7.311   6.210  19.771  0.00  0.00    +0.000 HD
ENDBRANCH   6   7
BRANCH   3  10
ATOM     10  O   UNL     1       5.338   4.160  14.420  0.00  0.00    +0.000 OA
ATOM     11  H   UNL     1       6.115   3.859  13.920  0.00  0.00    +0.000 HD
ENDBRANCH   3  10
BRANCH   4  12
ATOM     12  O   UNL     1       7.660   5.479  14.862  0.00  0.00    +0.000 OA
ATOM     13  H   UNL     1       8.317   6.104  15.230  0.00  0.00    +0.000 HD
ENDBRANCH   4  12
BRANCH   1  14
ATOM     14  C   UNL     1       4.607   3.621  19.252  0.00  0.00    +0.000 C 
BRANCH  14  15
ATOM     15  C   UNL     1       3.319   4.416  19.515  0.00  0.00    +0.000 C 
BRANCH  15  17
ATOM     16  C   UNL     1       0.995   3.924  20.227  0.00  0.00    +0.000 C 
ATOM     17  N   UNL     1       2.019   3.691  19.109  0.00  0.00    +0.000 N 
ATOM     18  C   UNL     1       2.230   2.191  18.960  0.00  0.00    +0.000 C 
ATOM     19  C   UNL     1       1.452   4.265  17.817  0.00  0.00    +0.000 C 
ENDBRANCH  15  17
ENDBRANCH  14  15
ENDBRANCH   1  14
TORSDOF 6
ENDMDL
MODEL 8
REMARK VINA RESULT:      -5.8      3.534      5.770
REMARK  Name = 
REMARK  9 active torsions:
REMARK  status: ('A' for Active; 'I' for Inactive)
REMARK    1  A    between atoms: C_1  and  N_2
REMARK    2  A    between atoms: N_2  and  C_3
REMARK    3  A    between atoms: N_2  and  C_4
REMARK    4  A    between atoms: N_2  and  C_5
REMARK    5  A    between atoms: C_5  and  C_6
REMARK    6  A    between atoms: C_6  and  C_7
REMARK    7  A    between atoms: C_9  and  O_10
REMARK    8  A    between atoms: C_11  and  O_12
REMARK    9  A    between atoms: C_14  and  N_15
REMARK                            x       y       z     vdW  Elec       q    Type
REMARK                         _______ _______ _______ _____ _____    ______ ____
ROOT
ATOM      1  C   UNL     1       3.155   4.262  18.054  0.00  0.00    +0.000 A 
ATOM      2  C   UNL     1       2.185   3.286  17.730  0.00  0.00    +0.000 A 
ATOM      3  C   UNL     1       1.318   2.817  18.707  0.00  0.00    +0.000 A 
ATOM      4  C   UNL     1       1.416   3.291  20.006  0.00  0.00    +0.000 A 
ATOM      5  C   UNL     1       2.387   4.219  20.352  0.00  0.00    +0.000 A 
ATOM      6  C   UNL     1       3.299   4.681  19.393  0.00  0.00    +0.000 A 
ENDROOT
BRANCH   6   7
ATOM      7  N   UNL     1       4.213   5.688  19.758  0.00  0.00    +0.000 N 
ATOM      8  H   UNL     1       4.404   5.682  20.761  0.00  0.00    +0.000 HD
ATOM      9  H   UNL     1       5.093   5.626  19.256  0.00  0.00    +0.000 HD
ENDBRANCH   6   7
BRANCH   3  10
ATOM     10  O   UNL     1       0.328   1.920  18.429  0.00  0.00    +0.000 OA
ATOM     11  H   UNL     1       0.069   1.998  17.496  0.00  0.00    +0.000 HD
ENDBRANCH   3  10
BRANCH   4  12
ATOM     12  O   UNL     1       0.542   2.856  20.960  0.00  0.00    +0.000 OA
ATOM     13  H   UNL     1       1.051   2.856  21.795  0.00  0.00    +0.000 HD
ENDBRANCH   4  12
BRANCH   1  14
ATOM     14  C   UNL     1       3.948   4.884  16.919  0.00  0.00    +0.000 C 
BRANCH  14  15
ATOM     15  C   UNL     1       5.263   4.113  16.725  0.00  0.00    +0.000 C 
BRANCH  15  17
ATOM     16  C   UNL     1       7.108   4.800  15.218  0.00  0.00    +0.000 C 
ATOM     17  N   UNL     1       6.521   4.999  16.621  0.00  0.00    +0.000 N 
ATOM     18  C   UNL     1       7.580   4.604  17.641  0.00  0.00    +0.000 C 
ATOM     19  C   UNL     1       6.169   6.472  16.784  0.00  0.00    +0.000 C 
ENDBRANCH  15  17
ENDBRANCH  14  15
ENDBRANCH   1  14
TORSDOF 6
ENDMDL
MODEL 9
REMARK VINA RESULT:      -5.8      1.966      2.342
REMARK  Name = 
REMARK  9 active torsions:
REMARK  status: ('A' for Active; 'I' for Inactive)
REMARK    1  A    between atoms: C_1  and  N_2
REMARK    2  A    between atoms: N_2  and  C_3
REMARK    3  A    between atoms: N_2  and  C_4
REMARK    4  A    between atoms: N_2  and  C_5
REMARK    5  A    between atoms: C_5  and  C_6
REMARK    6  A    between atoms: C_6  and  C_7
REMARK    7  A    between atoms: C_9  and  O_10
REMARK    8  A    between atoms: C_11  and  O_12
REMARK    9  A    between atoms: C_14  and  N_15
REMARK                            x       y       z     vdW  Elec       q    Type
REMARK                         _______ _______ _______ _____ _____    ______ ____
ROOT
ATOM      1  C   UNL     1       4.786   5.263  18.596  0.00  0.00    +0.000 A 
ATOM      2  C   UNL     1       5.964   4.484  18.528  0.00  0.00    +0.000 A 
ATOM      3  C   UNL     1       6.942   4.784  17.590  0.00  0.00    +0.000 A 
ATOM      4  C   UNL     1       6.756   5.836  16.706  0.00  0.00    +0.000 A 
ATOM      5  C   UNL     1       5.589   6.586  16.730  0.00  0.00    +0.000 A 
ATOM      6  C   UNL     1       4.570   6.280  17.643  0.00  0.00    +0.000 A 
ENDROOT
BRANCH   6   7
ATOM      7  N   UNL     1       3.440   7.118  17.699  0.00  0.00    +0.000 N 
ATOM      8  H   UNL     1       2.879   6.946  18.535  0.00  0.00    +0.000 HD
ATOM      9  H   UNL     1       3.676   8.105  17.661  0.00  0.00    +0.000 HD
ENDBRANCH   6   7
BRANCH   3  10
ATOM     10  O   UNL     1       8.120   4.099  17.526  0.00  0.00    +0.000 OA
ATOM     11  H   UNL     1       8.133   3.544  16.729  0.00  0.00    +0.000 HD
ENDBRANCH   3  10
BRANCH   4  12
ATOM     12  O   UNL     1       7.732   6.153  15.806  0.00  0.00    +0.000 OA
ATOM     13  H   UNL     1       7.825   7.125  15.858  0.00  0.00    +0.000 HD
ENDBRANCH   4  12
BRANCH   1  14
ATOM     14  C   UNL     1       3.837   5.024  19.756  0.00  0.00    +0.000 C 
BRANCH  14  15
ATOM     15  C   UNL     1       3.267   3.599  19.670  0.00  0.00    +0.000 C 
BRANCH  15  17
ATOM     16  C   UNL     1       1.298   4.840  20.524  0.00  0.00    +0.000 C 
ATOM     17  N   UNL     1       1.850   3.434  20.257  0.00  0.00    +0.000 N 
ATOM     18  C   UNL     1       1.867   2.671  21.574  0.00  0.00    +0.000 C 
ATOM     19  C   UNL     1       0.925   2.739  19.267  0.00  0.00    +0.000 C 
ENDBRANCH  15  17
ENDBRANCH  14  15
ENDBRANCH   1  14
TORSDOF 6
ENDMDL
