MODEL 1
REMARK VINA RESULT:      -9.1      0.000      0.000
REMARK  Name = 
REMARK  3 active torsions:
REMARK  status: ('A' for Active; 'I' for Inactive)
REMARK    1  A    between atoms: C_4  and  C_5
REMARK    2  A    between atoms: C_15  and  C_16
REMARK    3  A    between atoms: C_19  and  N_20
REMARK                            x       y       z     vdW  Elec       q    Type
REMARK                         _______ _______ _______ _____ _____    ______ ____
ROOT
ATOM      1  O   UNL     1       2.069   3.622  21.175  0.00  0.00    +0.000 OA
ATOM      2  C   UNL     1       2.429   4.604  20.540  0.00  0.00    +0.000 A 
ATOM      3  N   UNL     1       3.375   4.547  19.548  0.00  0.00    +0.000 NA
ATOM      4  C   UNL     1       3.702   5.634  18.922  0.00  0.00    +0.000 A 
ATOM      5  C   UNL     1       3.097   6.961  19.185  0.00  0.00    +0.000 A 
ATOM      6  C   UNL     1       2.179   6.973  20.153  0.00  0.00    +0.000 A 
ATOM      7  N   UNL     1       1.864   5.825  20.817  0.00  0.00    +0.000 N 
ATOM      8  H   UNL     1       1.159   5.821  21.541  0.00  0.00    +0.000 HD
ENDROOT
BRANCH   4   9
ATOM      9  C   UNL     1       4.721   5.572  17.835  0.00  0.00    +0.000 A 
ATOM     10  C   UNL     1       5.932   6.256  18.015  0.00  0.00    +0.000 A 
ATOM     11  C   UNL     1       6.941   6.217  17.045  0.00  0.00    +0.000 A 
ATOM     12  C   UNL     1       6.682   5.475  15.890  0.00  0.00    +0.000 A 
ATOM     13  N   UNL     1       7.437   5.234  14.771  0.00  0.00    +0.000 N 
ATOM     14  N   UNL     1       6.828   4.457  13.856  0.00  0.00    +0.000 NA
ATOM     15  C   UNL     1       5.638   4.201  14.406  0.00  0.00    +0.000 A 
ATOM     16  C   UNL     1       5.486   4.802  15.674  0.00  0.00    +0.000 A 
ATOM     17  C   UNL     1       4.478   4.853  16.653  0.00  0.00    +0.000 A 
ATOM     18  H   UNL     1       8.371   5.569  14.571  0.00  0.00    +0.000 HD
ENDBRANCH   4   9
BRANCH   6  19
ATOM     19  C   UNL     1       1.457   8.198  20.492  0.00  0.00    +0.000 A 
ATOM     20  C   UNL     1       1.161   9.123  19.491  0.00  0.00    +0.000 A 
ATOM     21  C   UNL     1       0.420  10.269  19.791  0.00  0.00    +0.000 A 
ATOM     22  C   UNL     1      -0.050  10.526  21.087  0.00  0.00    +0.000 A 
ATOM     23  C   UNL     1       0.317   9.620  22.092  0.00  0.00    +0.000 A 
ATOM     24  C   UNL     1       1.052   8.463  21.801  0.00  0.00    +0.000 A 
BRANCH  22  25
ATOM     25  N   UNL     1      -0.913  11.568  21.345  0.00  0.00    +0.000 N 
ATOM     26  C   UNL     1      -1.399  12.433  20.263  0.00  0.00    +0.000 C 
ATOM     27  C   UNL     1      -2.911  12.675  20.452  0.00  0.00    +0.000 C 
ATOM     28  N   UNL     1      -3.246  13.257  21.766  0.00  0.00    +0.000 NA
ATOM     29  C   UNL     1      -2.706  12.393  22.839  0.00  0.00    +0.000 C 
ATOM     30  C   UNL     1      -1.197  12.067  22.698  0.00  0.00    +0.000 C 
ATOM     31  H   UNL     1      -4.261  13.299  21.856  0.00  0.00    +0.000 HD
ENDBRANCH  22  25
ENDBRANCH   6  19
TORSDOF 3
ENDMDL
MODEL 2
REMARK VINA RESULT:      -9.0      0.503      1.087
REMARK  Name = 
REMARK  3 active torsions:
REMARK  status: ('A' for Active; 'I' for Inactive)
REMARK    1  A    between atoms: C_4  and  C_5
REMARK    2  A    between atoms: C_15  and  C_16
REMARK    3  A    between atoms: C_19  and  N_20
REMARK                            x       y       z     vdW  Elec       q    Type
REMARK                         _______ _______ _______ _____ _____    ______ ____
ROOT
ATOM      1  O   UNL     1       2.014   3.645  21.148  0.00  0.00    +0.000 OA
ATOM      2  C   UNL     1       2.391   4.627  20.523  0.00  0.00    +0.000 A 
ATOM      3  N   UNL     1       3.339   4.563  19.533  0.00  0.00    +0.000 NA
ATOM      4  C   UNL     1       3.684   5.650  18.916  0.00  0.00    +0.000 A 
ATOM      5  C   UNL     1       3.099   6.984  19.189  0.00  0.00    +0.000 A 
ATOM      6  C   UNL     1       2.180   7.003  20.156  0.00  0.00    +0.000 A 
ATOM      7  N   UNL     1       1.845   5.854  20.809  0.00  0.00    +0.000 N 
ATOM      8  H   UNL     1       1.139   5.855  21.531  0.00  0.00    +0.000 HD
ENDROOT
BRANCH   4   9
ATOM      9  C   UNL     1       4.704   5.581  17.831  0.00  0.00    +0.000 A 
ATOM     10  C   UNL     1       5.923   6.249  18.016  0.00  0.00    +0.000 A 
ATOM     11  C   UNL     1       6.933   6.203  17.048  0.00  0.00    +0.000 A 
ATOM     12  C   UNL     1       6.667   5.469  15.889  0.00  0.00    +0.000 A 
ATOM     13  N   UNL     1       7.421   5.224  14.771  0.00  0.00    +0.000 N 
ATOM     14  N   UNL     1       6.806   4.459  13.850  0.00  0.00    +0.000 NA
ATOM     15  C   UNL     1       5.612   4.215  14.397  0.00  0.00    +0.000 A 
ATOM     16  C   UNL     1       5.464   4.812  15.668  0.00  0.00    +0.000 A 
ATOM     17  C   UNL     1       4.455   4.870  16.645  0.00  0.00    +0.000 A 
ATOM     18  H   UNL     1       8.360   5.550  14.574  0.00  0.00    +0.000 HD
ENDBRANCH   4   9
BRANCH   6  19
ATOM     19  C   UNL     1       1.477   8.236  20.503  0.00  0.00    +0.000 A 
ATOM     20  C   UNL     1       1.116   9.130  19.496  0.00  0.00    +0.000 A 
ATOM     21  C   UNL     1       0.391  10.284  19.809  0.00  0.00    +0.000 A 
ATOM     22  C   UNL     1       0.003  10.579  21.124  0.00  0.00    +0.000 A 
ATOM     23  C   UNL     1       0.436   9.703  22.130  0.00  0.00    +0.000 A 
ATOM     24  C   UNL     1       1.154   8.539  21.828  0.00  0.00    +0.000 A 
BRANCH  22  25
ATOM     25  N   UNL     1      -0.845  11.627  21.406  0.00  0.00    +0.000 N 
ATOM     26  C   UNL     1      -1.383  11.821  22.758  0.00  0.00    +0.000 C 
ATOM     27  C   UNL     1      -1.304  13.319  23.122  0.00  0.00    +0.000 C 
ATOM     28  N   UNL     1      -2.008  14.188  22.157  0.00  0.00    +0.000 NA
ATOM     29  C   UNL     1      -1.480  13.940  20.797  0.00  0.00    +0.000 C 
ATOM     30  C   UNL     1      -1.486  12.449  20.371  0.00  0.00    +0.000 C 
ATOM     31  H   UNL     1      -1.833  15.160  22.407  0.00  0.00    +0.000 HD
ENDBRANCH  22  25
ENDBRANCH   6  19
TORSDOF 3
ENDMDL
MODEL 3
REMARK VINA RESULT:      -9.0      0.876      1.528
REMARK  Name = 
REMARK  3 active torsions:
REMARK  status: ('A' for Active; 'I' for Inactive)
REMARK    1  A    between atoms: C_4  and  C_5
REMARK    2  A    between atoms: C_15  and  C_16
REMARK    3  A    between atoms: C_19  and  N_20
REMARK                            x       y       z     vdW  Elec       q    Type
REMARK                         _______ _______ _______ _____ _____    ______ ____
ROOT
ATOM      1  O   UNL     1       2.091   3.701  21.246  0.00  0.00    +0.000 OA
ATOM      2  C   UNL     1       2.456   4.663  20.582  0.00  0.00    +0.000 A 
ATOM      3  N   UNL     1       3.410   4.574  19.600  0.00  0.00    +0.000 NA
ATOM      4  C   UNL     1       3.740   5.640  18.941  0.00  0.00    +0.000 A 
ATOM      5  C   UNL     1       3.131   6.974  19.154  0.00  0.00    +0.000 A 
ATOM      6  C   UNL     1       2.206   7.017  20.114  0.00  0.00    +0.000 A 
ATOM      7  N   UNL     1       1.887   5.891  20.814  0.00  0.00    +0.000 N 
ATOM      8  H   UNL     1       1.176   5.910  21.531  0.00  0.00    +0.000 HD
ENDROOT
BRANCH   4   9
ATOM      9  C   UNL     1       4.767   5.543  17.864  0.00  0.00    +0.000 A 
ATOM     10  C   UNL     1       6.038   6.088  18.102  0.00  0.00    +0.000 A 
ATOM     11  C   UNL     1       7.055   6.008  17.144  0.00  0.00    +0.000 A 
ATOM     12  C   UNL     1       6.744   5.370  15.941  0.00  0.00    +0.000 A 
ATOM     13  N   UNL     1       7.492   5.125  14.818  0.00  0.00    +0.000 N 
ATOM     14  N   UNL     1       6.826   4.473  13.847  0.00  0.00    +0.000 NA
ATOM     15  C   UNL     1       5.606   4.305  14.365  0.00  0.00    +0.000 A 
ATOM     16  C   UNL     1       5.491   4.837  15.668  0.00  0.00    +0.000 A 
ATOM     17  C   UNL     1       4.475   4.929  16.636  0.00  0.00    +0.000 A 
ATOM     18  H   UNL     1       8.459   5.375  14.652  0.00  0.00    +0.000 HD
ENDBRANCH   4   9
BRANCH   6  19
ATOM     19  C   UNL     1       1.479   8.252  20.406  0.00  0.00    +0.000 A 
ATOM     20  C   UNL     1       1.002   8.481  21.696  0.00  0.00    +0.000 A 
ATOM     21  C   UNL     1       0.357   9.683  22.001  0.00  0.00    +0.000 A 
ATOM     22  C   UNL     1       0.174  10.689  21.041  0.00  0.00    +0.000 A 
ATOM     23  C   UNL     1       0.599  10.409  19.735  0.00  0.00    +0.000 A 
ATOM     24  C   UNL     1       1.255   9.212  19.418  0.00  0.00    +0.000 A 
BRANCH  22  25
ATOM     25  N   UNL     1      -0.314  11.930  21.383  0.00  0.00    +0.000 N 
ATOM     26  C   UNL     1      -1.574  12.069  22.125  0.00  0.00    +0.000 C 
ATOM     27  C   UNL     1      -1.393  13.127  23.233  0.00  0.00    +0.000 C 
ATOM     28  N   UNL     1      -0.951  14.438  22.717  0.00  0.00    +0.000 NA
ATOM     29  C   UNL     1       0.293  14.265  21.935  0.00  0.00    +0.000 C 
ATOM     30  C   UNL     1       0.206  13.186  20.826  0.00  0.00    +0.000 C 
ATOM     31  H   UNL     1      -0.762  15.053  23.507  0.00  0.00    +0.000 HD
ENDBRANCH  22  25
ENDBRANCH   6  19
TORSDOF 3
ENDMDL
MODEL 4
REMARK VINA RESULT:      -8.9      3.351     10.046
REMARK  Name = 
REMARK  3 active torsions:
REMARK  status: ('A' for Active; 'I' for Inactive)
REMARK    1  A    between atoms: C_4  and  C_5
REMARK    2  A    between atoms: C_15  and  C_16
REMARK    3  A    between atoms: C_19  and  N_20
REMARK                            x       y       z     vdW  Elec       q    Type
REMARK                         _______ _______ _______ _____ _____    ______ ____
ROOT
ATOM      1  O   UNL     1       1.399  13.708  18.453  0.00  0.00    +0.000 OA
ATOM      2  C   UNL     1       0.696  12.706  18.466  0.00  0.00    +0.000 A 
ATOM      3  N   UNL     1      -0.663  12.745  18.283  0.00  0.00    +0.000 NA
ATOM      4  C   UNL     1      -1.337  11.639  18.310  0.00  0.00    +0.000 A 
ATOM      5  C   UNL     1      -0.732  10.299  18.503  0.00  0.00    +0.000 A 
ATOM      6  C   UNL     1       0.591  10.304  18.673  0.00  0.00    +0.000 A 
ATOM      7  N   UNL     1       1.281  11.480  18.665  0.00  0.00    +0.000 N 
ATOM      8  H   UNL     1       2.285  11.492  18.777  0.00  0.00    +0.000 HD
ENDROOT
BRANCH   4   9
ATOM      9  C   UNL     1      -2.812  11.677  18.099  0.00  0.00    +0.000 A 
ATOM     10  C   UNL     1      -3.315  11.339  16.834  0.00  0.00    +0.000 A 
ATOM     11  C   UNL     1      -4.691  11.330  16.576  0.00  0.00    +0.000 A 
ATOM     12  C   UNL     1      -5.537  11.678  17.633  0.00  0.00    +0.000 A 
ATOM     13  N   UNL     1      -6.902  11.767  17.718  0.00  0.00    +0.000 N 
ATOM     14  N   UNL     1      -7.352  12.146  18.929  0.00  0.00    +0.000 NA
ATOM     15  C   UNL     1      -6.234  12.314  19.639  0.00  0.00    +0.000 A 
ATOM     16  C   UNL     1      -5.069  12.035  18.892  0.00  0.00    +0.000 A 
ATOM     17  C   UNL     1      -3.684  12.047  19.136  0.00  0.00    +0.000 A 
ATOM     18  H   UNL     1      -7.581  11.584  16.990  0.00  0.00    +0.000 HD
ENDBRANCH   4   9
BRANCH   6  19
ATOM     19  C   UNL     1       1.336   9.056  18.823  0.00  0.00    +0.000 A 
ATOM     20  C   UNL     1       2.097   8.576  17.758  0.00  0.00    +0.000 A 
ATOM     21  C   UNL     1       2.861   7.415  17.909  0.00  0.00    +0.000 A 
ATOM     22  C   UNL     1       2.894   6.703  19.117  0.00  0.00    +0.000 A 
ATOM     23  C   UNL     1       2.068   7.163  20.152  0.00  0.00    +0.000 A 
ATOM     24  C   UNL     1       1.305   8.331  20.016  0.00  0.00    +0.000 A 
BRANCH  22  25
ATOM     25  N   UNL     1       3.768   5.658  19.312  0.00  0.00    +0.000 N 
ATOM     26  C   UNL     1       3.423   4.539  20.198  0.00  0.00    +0.000 C 
ATOM     27  C   UNL     1       3.825   3.214  19.518  0.00  0.00    +0.000 C 
ATOM     28  N   UNL     1       5.255   3.160  19.153  0.00  0.00    +0.000 NA
ATOM     29  C   UNL     1       5.588   4.321  18.299  0.00  0.00    +0.000 C 
ATOM     30  C   UNL     1       5.177   5.692  18.895  0.00  0.00    +0.000 C 
ATOM     31  H   UNL     1       5.425   2.304  18.626  0.00  0.00    +0.000 HD
ENDBRANCH  22  25
ENDBRANCH   6  19
TORSDOF 3
ENDMDL
MODEL 5
REMARK VINA RESULT:      -8.8      3.067      9.929
REMARK  Name = 
REMARK  3 active torsions:
REMARK  status: ('A' for Active; 'I' for Inactive)
REMARK    1  A    between atoms: C_4  and  C_5
REMARK    2  A    between atoms: C_15  and  C_16
REMARK    3  A    between atoms: C_19  and  N_20
REMARK                            x       y       z     vdW  Elec       q    Type
REMARK                         _______ _______ _______ _____ _____    ______ ____
ROOT
ATOM      1  O   UNL     1       0.918  12.807  21.380  0.00  0.00    +0.000 OA
ATOM      2  C   UNL     1       0.412  12.001  20.609  0.00  0.00    +0.000 A 
ATOM      3  N   UNL     1      -0.819  12.190  20.034  0.00  0.00    +0.000 NA
ATOM      4  C   UNL     1      -1.284  11.288  19.227  0.00  0.00    +0.000 A 
ATOM      5  C   UNL     1      -0.559  10.052  18.850  0.00  0.00    +0.000 A 
ATOM      6  C   UNL     1       0.635   9.908  19.428  0.00  0.00    +0.000 A 
ATOM      7  N   UNL     1       1.100  10.855  20.292  0.00  0.00    +0.000 N 
ATOM      8  H   UNL     1       2.009  10.763  20.722  0.00  0.00    +0.000 HD
ENDROOT
BRANCH   4   9
ATOM      9  C   UNL     1      -2.616  11.496  18.590  0.00  0.00    +0.000 A 
ATOM     10  C   UNL     1      -2.769  11.164  17.236  0.00  0.00    +0.000 A 
ATOM     11  C   UNL     1      -3.999  11.311  16.584  0.00  0.00    +0.000 A 
ATOM     12  C   UNL     1      -5.062  11.809  17.342  0.00  0.00    +0.000 A 
ATOM     13  N   UNL     1      -6.370  12.068  17.021  0.00  0.00    +0.000 N 
ATOM     14  N   UNL     1      -7.100  12.554  18.041  0.00  0.00    +0.000 NA
ATOM     15  C   UNL     1      -6.224  12.618  19.048  0.00  0.00    +0.000 A 
ATOM     16  C   UNL     1      -4.939  12.164  18.679  0.00  0.00    +0.000 A 
ATOM     17  C   UNL     1      -3.696  12.018  19.321  0.00  0.00    +0.000 A 
ATOM     18  H   UNL     1      -6.825  11.935  16.126  0.00  0.00    +0.000 HD
ENDBRANCH   4   9
BRANCH   6  19
ATOM     19  C   UNL     1       1.491   8.765  19.116  0.00  0.00    +0.000 A 
ATOM     20  C   UNL     1       2.138   8.706  17.882  0.00  0.00    +0.000 A 
ATOM     21  C   UNL     1       3.006   7.649  17.595  0.00  0.00    +0.000 A 
ATOM     22  C   UNL     1       3.258   6.627  18.522  0.00  0.00    +0.000 A 
ATOM     23  C   UNL     1       2.544   6.668  19.728  0.00  0.00    +0.000 A 
ATOM     24  C   UNL     1       1.679   7.728  20.031  0.00  0.00    +0.000 A 
BRANCH  22  25
ATOM     25  N   UNL     1       4.231   5.679  18.299  0.00  0.00    +0.000 N 
ATOM     26  C   UNL     1       4.099   4.701  17.212  0.00  0.00    +0.000 C 
ATOM     27  C   UNL     1       5.454   4.569  16.485  0.00  0.00    +0.000 C 
ATOM     28  N   UNL     1       6.561   4.192  17.386  0.00  0.00    +0.000 NA
ATOM     29  C   UNL     1       6.644   5.166  18.497  0.00  0.00    +0.000 C 
ATOM     30  C   UNL     1       5.309   5.387  19.254  0.00  0.00    +0.000 C 
ATOM     31  H   UNL     1       7.433   4.218  16.859  0.00  0.00    +0.000 HD
ENDBRANCH  22  25
ENDBRANCH   6  19
TORSDOF 3
ENDMDL
MODEL 6
REMARK VINA RESULT:      -8.8      3.007     10.339
REMARK  Name = 
REMARK  3 active torsions:
REMARK  status: ('A' for Active; 'I' for Inactive)
REMARK    1  A    between atoms: C_4  and  C_5
REMARK    2  A    between atoms: C_15  and  C_16
REMARK    3  A    between atoms: C_19  and  N_20
REMARK                            x       y       z     vdW  Elec       q    Type
REMARK                         _______ _______ _______ _____ _____    ______ ____
ROOT
ATOM      1  O   UNL     1       1.553  13.859  18.234  0.00  0.00    +0.000 OA
ATOM      2  C   UNL     1       0.960  12.949  18.801  0.00  0.00    +0.000 A 
ATOM      3  N   UNL     1      -0.211  13.137  19.490  0.00  0.00    +0.000 NA
ATOM      4  C   UNL     1      -0.777  12.121  20.063  0.00  0.00    +0.000 A 
ATOM      5  C   UNL     1      -0.256  10.734  20.005  0.00  0.00    +0.000 A 
ATOM      6  C   UNL     1       0.881  10.594  19.322  0.00  0.00    +0.000 A 
ATOM      7  N   UNL     1       1.476  11.677  18.745  0.00  0.00    +0.000 N 
ATOM      8  H   UNL     1       2.328  11.579  18.213  0.00  0.00    +0.000 HD
ENDROOT
BRANCH   4   9
ATOM      9  C   UNL     1      -2.056  12.319  20.802  0.00  0.00    +0.000 A 
ATOM     10  C   UNL     1      -3.217  12.601  20.067  0.00  0.00    +0.000 A 
ATOM     11  C   UNL     1      -4.455  12.772  20.697  0.00  0.00    +0.000 A 
ATOM     12  C   UNL     1      -4.479  12.657  22.089  0.00  0.00    +0.000 A 
ATOM     13  N   UNL     1      -5.501  12.764  22.997  0.00  0.00    +0.000 N 
ATOM     14  N   UNL     1      -5.120  12.589  24.276  0.00  0.00    +0.000 NA
ATOM     15  C   UNL     1      -3.805  12.372  24.182  0.00  0.00    +0.000 A 
ATOM     16  C   UNL     1      -3.344  12.397  22.848  0.00  0.00    +0.000 A 
ATOM     17  C   UNL     1      -2.105  12.233  22.203  0.00  0.00    +0.000 A 
ATOM     18  H   UNL     1      -6.478  12.955  22.809  0.00  0.00    +0.000 HD
ENDBRANCH   4   9
BRANCH   6  19
ATOM     19  C   UNL     1       1.490   9.279  19.133  0.00  0.00    +0.000 A 
ATOM     20  C   UNL     1       2.066   8.956  17.905  0.00  0.00    +0.000 A 
ATOM     21  C   UNL     1       2.703   7.724  17.732  0.00  0.00    +0.000 A 
ATOM     22  C   UNL     1       2.789   6.784  18.768  0.00  0.00    +0.000 A 
ATOM     23  C   UNL     1       2.143   7.099  19.972  0.00  0.00    +0.000 A 
ATOM     24  C   UNL     1       1.509   8.334  20.161  0.00  0.00    +0.000 A 
BRANCH  22  25
ATOM     25  N   UNL     1       3.553   5.645  18.644  0.00  0.00    +0.000 N 
ATOM     26  C   UNL     1       4.911   5.703  18.089  0.00  0.00    +0.000 C 
ATOM     27  C   UNL     1       5.846   4.827  18.949  0.00  0.00    +0.000 C 
ATOM     28  N   UNL     1       5.392   3.426  19.057  0.00  0.00    +0.000 NA
ATOM     29  C   UNL     1       4.006   3.397  19.574  0.00  0.00    +0.000 C 
ATOM     30  C   UNL     1       3.011   4.287  18.787  0.00  0.00    +0.000 C 
ATOM     31  H   UNL     1       5.999   2.936  19.712  0.00  0.00    +0.000 HD
ENDBRANCH  22  25
ENDBRANCH   6  19
TORSDOF 3
ENDMDL
MODEL 7
REMARK VINA RESULT:      -8.8      3.239      9.988
REMARK  Name = 
REMARK  3 active torsions:
REMARK  status: ('A' for Active; 'I' for Inactive)
REMARK    1  A    between atoms: C_4  and  C_5
REMARK    2  A    between atoms: C_15  and  C_16
REMARK    3  A    between atoms: C_19  and  N_20
REMARK                            x       y       z     vdW  Elec       q    Type
REMARK                         _______ _______ _______ _____ _____    ______ ____
ROOT
ATOM      1  O   UNL     1       1.384  13.567  19.797  0.00  0.00    +0.000 OA
ATOM      2  C   UNL     1       0.752  12.582  19.437  0.00  0.00    +0.000 A 
ATOM      3  N   UNL     1      -0.565  12.639  19.057  0.00  0.00    +0.000 NA
ATOM      4  C   UNL     1      -1.164  11.551  18.687  0.00  0.00    +0.000 A 
ATOM      5  C   UNL     1      -0.510  10.223  18.616  0.00  0.00    +0.000 A 
ATOM      6  C   UNL     1       0.771  10.211  18.989  0.00  0.00    +0.000 A 
ATOM      7  N   UNL     1       1.379  11.361  19.398  0.00  0.00    +0.000 N 
ATOM      8  H   UNL     1       2.352  11.366  19.667  0.00  0.00    +0.000 HD
ENDROOT
BRANCH   4   9
ATOM      9  C   UNL     1      -2.591  11.612  18.262  0.00  0.00    +0.000 A 
ATOM     10  C   UNL     1      -2.912  11.255  16.944  0.00  0.00    +0.000 A 
ATOM     11  C   UNL     1      -4.236  11.265  16.488  0.00  0.00    +0.000 A 
ATOM     12  C   UNL     1      -5.218  11.653  17.403  0.00  0.00    +0.000 A 
ATOM     13  N   UNL     1      -6.579  11.769  17.286  0.00  0.00    +0.000 N 
ATOM     14  N   UNL     1      -7.193  12.183  18.410  0.00  0.00    +0.000 NA
ATOM     15  C   UNL     1      -6.186  12.347  19.273  0.00  0.00    +0.000 A 
ATOM     16  C   UNL     1      -4.931  12.029  18.709  0.00  0.00    +0.000 A 
ATOM     17  C   UNL     1      -3.597  12.021  19.153  0.00  0.00    +0.000 A 
ATOM     18  H   UNL     1      -7.149  11.582  16.470  0.00  0.00    +0.000 HD
ENDBRANCH   4   9
BRANCH   6  19
ATOM     19  C   UNL     1       1.564   8.985  18.924  0.00  0.00    +0.000 A 
ATOM     20  C   UNL     1       1.594   8.125  20.021  0.00  0.00    +0.000 A 
ATOM     21  C   UNL     1       2.301   6.921  19.949  0.00  0.00    +0.000 A 
ATOM     22  C   UNL     1       2.991   6.537  18.791  0.00  0.00    +0.000 A 
ATOM     23  C   UNL     1       3.006   7.448  17.725  0.00  0.00    +0.000 A 
ATOM     24  C   UNL     1       2.293   8.653  17.781  0.00  0.00    +0.000 A 
BRANCH  22  25
ATOM     25  N   UNL     1       3.549   5.285  18.668  0.00  0.00    +0.000 N 
ATOM     26  C   UNL     1       3.264   4.231  19.650  0.00  0.00    +0.000 C 
ATOM     27  C   UNL     1       3.000   2.905  18.906  0.00  0.00    +0.000 C 
ATOM     28  N   UNL     1       4.115   2.502  18.025  0.00  0.00    +0.000 NA
ATOM     29  C   UNL     1       4.413   3.598  17.077  0.00  0.00    +0.000 C 
ATOM     30  C   UNL     1       4.650   4.976  17.745  0.00  0.00    +0.000 C 
ATOM     31  H   UNL     1       3.832   1.677  17.499  0.00  0.00    +0.000 HD
ENDBRANCH  22  25
ENDBRANCH   6  19
TORSDOF 3
ENDMDL
MODEL 8
REMARK VINA RESULT:      -8.7      3.184     10.037
REMARK  Name = 
REMARK  3 active torsions:
REMARK  status: ('A' for Active; 'I' for Inactive)
REMARK    1  A    between atoms: C_4  and  C_5
REMARK    2  A    between atoms: C_15  and  C_16
REMARK    3  A    between atoms: C_19  and  N_20
REMARK                            x       y       z     vdW  Elec       q    Type
REMARK                         _______ _______ _______ _____ _____    ______ ____
ROOT
ATOM      1  O   UNL     1       1.135  13.632  20.296  0.00  0.00    +0.000 OA
ATOM      2  C   UNL     1       0.541  12.668  19.832  0.00  0.00    +0.000 A 
ATOM      3  N   UNL     1      -0.766  12.724  19.420  0.00  0.00    +0.000 NA
ATOM      4  C   UNL     1      -1.323  11.657  18.939  0.00  0.00    +0.000 A 
ATOM      5  C   UNL     1      -0.631  10.358  18.772  0.00  0.00    +0.000 A 
ATOM      6  C   UNL     1       0.639  10.346  19.180  0.00  0.00    +0.000 A 
ATOM      7  N   UNL     1       1.203  11.471  19.705  0.00  0.00    +0.000 N 
ATOM      8  H   UNL     1       2.168  11.477  20.003  0.00  0.00    +0.000 HD
ENDROOT
BRANCH   4   9
ATOM      9  C   UNL     1      -2.740  11.719  18.478  0.00  0.00    +0.000 A 
ATOM     10  C   UNL     1      -3.025  11.389  17.145  0.00  0.00    +0.000 A 
ATOM     11  C   UNL     1      -4.336  11.401  16.655  0.00  0.00    +0.000 A 
ATOM     12  C   UNL     1      -5.344  11.763  17.553  0.00  0.00    +0.000 A 
ATOM     13  N   UNL     1      -6.703  11.873  17.404  0.00  0.00    +0.000 N 
ATOM     14  N   UNL     1      -7.348  12.258  18.520  0.00  0.00    +0.000 NA
ATOM     15  C   UNL     1      -6.365  12.409  19.412  0.00  0.00    +0.000 A 
ATOM     16  C   UNL     1      -5.093  12.112  18.874  0.00  0.00    +0.000 A 
ATOM     17  C   UNL     1      -3.771  12.102  19.352  0.00  0.00    +0.000 A 
ATOM     18  H   UNL     1      -7.250  11.700  16.569  0.00  0.00    +0.000 HD
ENDBRANCH   4   9
BRANCH   6  19
ATOM     19  C   UNL     1       1.468   9.151  19.032  0.00  0.00    +0.000 A 
ATOM     20  C   UNL     1       1.525   8.220  20.068  0.00  0.00    +0.000 A 
ATOM     21  C   UNL     1       2.267   7.045  19.915  0.00  0.00    +0.000 A 
ATOM     22  C   UNL     1       2.967   6.762  18.733  0.00  0.00    +0.000 A 
ATOM     23  C   UNL     1       2.953   7.743  17.732  0.00  0.00    +0.000 A 
ATOM     24  C   UNL     1       2.205   8.920  17.869  0.00  0.00    +0.000 A 
BRANCH  22  25
ATOM     25  N   UNL     1       3.561   5.537  18.525  0.00  0.00    +0.000 N 
ATOM     26  C   UNL     1       4.635   5.376  17.537  0.00  0.00    +0.000 C 
ATOM     27  C   UNL     1       5.754   4.505  18.145  0.00  0.00    +0.000 C 
ATOM     28  N   UNL     1       5.276   3.186  18.608  0.00  0.00    +0.000 NA
ATOM     29  C   UNL     1       4.165   3.375  19.566  0.00  0.00    +0.000 C 
ATOM     30  C   UNL     1       3.016   4.275  19.044  0.00  0.00    +0.000 C 
ATOM     31  H   UNL     1       6.043   2.710  19.081  0.00  0.00    +0.000 HD
ENDBRANCH  22  25
ENDBRANCH   6  19
TORSDOF 3
ENDMDL
MODEL 9
REMARK VINA RESULT:      -8.7      1.125      1.798
REMARK  Name = 
REMARK  3 active torsions:
REMARK  status: ('A' for Active; 'I' for Inactive)
REMARK    1  A    between atoms: C_4  and  C_5
REMARK    2  A    between atoms: C_15  and  C_16
REMARK    3  A    between atoms: C_19  and  N_20
REMARK                            x       y       z     vdW  Elec       q    Type
REMARK                         _______ _______ _______ _____ _____    ______ ____
ROOT
ATOM      1  O   UNL     1       2.318   4.595  21.388  0.00  0.00    +0.000 OA
ATOM      2  C   UNL     1       2.587   5.403  20.509  0.00  0.00    +0.000 A 
ATOM      3  N   UNL     1       3.560   5.185  19.567  0.00  0.00    +0.000 NA
ATOM      4  C   UNL     1       3.784   6.091  18.668  0.00  0.00    +0.000 A 
ATOM      5  C   UNL     1       3.032   7.364  18.561  0.00  0.00    +0.000 A 
ATOM      6  C   UNL     1       2.093   7.536  19.492  0.00  0.00    +0.000 A 
ATOM      7  N   UNL     1       1.886   6.582  20.445  0.00  0.00    +0.000 N 
ATOM      8  H   UNL     1       1.166   6.696  21.145  0.00  0.00    +0.000 HD
ENDROOT
BRANCH   4   9
ATOM      9  C   UNL     1       4.833   5.851  17.635  0.00  0.00    +0.000 A 
ATOM     10  C   UNL     1       6.123   6.351  17.864  0.00  0.00    +0.000 A 
ATOM     11  C   UNL     1       7.160   6.139  16.947  0.00  0.00    +0.000 A 
ATOM     12  C   UNL     1       6.848   5.414  15.794  0.00  0.00    +0.000 A 
ATOM     13  N   UNL     1       7.611   5.035  14.720  0.00  0.00    +0.000 N 
ATOM     14  N   UNL     1       6.937   4.335  13.789  0.00  0.00    +0.000 NA
ATOM     15  C   UNL     1       5.698   4.272  14.282  0.00  0.00    +0.000 A 
ATOM     16  C   UNL     1       5.576   4.921  15.530  0.00  0.00    +0.000 A 
ATOM     17  C   UNL     1       4.542   5.146  16.456  0.00  0.00    +0.000 A 
ATOM     18  H   UNL     1       8.593   5.223  14.562  0.00  0.00    +0.000 HD
ENDBRANCH   4   9
BRANCH   6  19
ATOM     19  C   UNL     1       1.233   8.718  19.487  0.00  0.00    +0.000 A 
ATOM     20  C   UNL     1       0.691   9.180  20.685  0.00  0.00    +0.000 A 
ATOM     21  C   UNL     1      -0.084  10.344  20.701  0.00  0.00    +0.000 A 
ATOM     22  C   UNL     1      -0.338  11.079  19.534  0.00  0.00    +0.000 A 
ATOM     23  C   UNL     1       0.158  10.559  18.331  0.00  0.00    +0.000 A 
ATOM     24  C   UNL     1       0.944   9.399  18.303  0.00  0.00    +0.000 A 
BRANCH  22  25
ATOM     25  N   UNL     1      -0.963  12.305  19.579  0.00  0.00    +0.000 N 
ATOM     26  C   UNL     1      -2.292  12.455  20.185  0.00  0.00    +0.000 C 
ATOM     27  C   UNL     1      -2.306  13.725  21.062  0.00  0.00    +0.000 C 
ATOM     28  N   UNL     1      -1.937  14.947  20.319  0.00  0.00    +0.000 NA
ATOM     29  C   UNL     1      -0.617  14.754  19.679  0.00  0.00    +0.000 C 
ATOM     30  C   UNL     1      -0.507  13.473  18.812  0.00  0.00    +0.000 C 
ATOM     31  H   UNL     1      -1.875  15.722  20.978  0.00  0.00    +0.000 HD
ENDBRANCH  22  25
ENDBRANCH   6  19
TORSDOF 3
ENDMDL
