MODEL 1
REMARK VINA RESULT:      -9.3      0.000      0.000
REMARK  Name = 
REMARK  4 active torsions:
REMARK  status: ('A' for Active; 'I' for Inactive)
REMARK    1  A    between atoms: C_3  and  C_4
REMARK    2  A    between atoms: C_10  and  C_11
REMARK    3  A    between atoms: C_14  and  C_15
REMARK    4  A    between atoms: C_26  and  O_27
REMARK                            x       y       z     vdW  Elec       q    Type
REMARK                         _______ _______ _______ _____ _____    ______ ____
ROOT
ATOM      1  O   UNL     1       3.841   2.449  17.316  0.00  0.00    +0.000 OA
ATOM      2  C   UNL     1       3.998   3.664  17.281  0.00  0.00    +0.000 C 
ATOM      3  C   UNL     1       3.143   4.614  18.064  0.00  0.00    +0.000 C 
ATOM      4  C   UNL     1       3.211   5.943  17.802  0.00  0.00    +0.000 C 
ATOM      5  C   UNL     1       4.037   6.539  16.682  0.00  0.00    +0.000 C 
ATOM      6  C   UNL     1       4.913   5.513  15.962  0.00  0.00    +0.000 C 
ATOM      7  C   UNL     1       6.360   5.938  15.727  0.00  0.00    +0.000 C 
ATOM      8  C   UNL     1       7.153   4.618  15.672  0.00  0.00    +0.000 C 
ATOM      9  C   UNL     1       6.196   3.526  16.163  0.00  0.00    +0.000 C 
ATOM     10  N   UNL     1       5.067   4.269  16.674  0.00  0.00    +0.000 N 
ENDROOT
BRANCH   3  11
ATOM     11  C   UNL     1       2.385   4.053  19.202  0.00  0.00    +0.000 A 
ATOM     12  C   UNL     1       1.042   3.684  19.066  0.00  0.00    +0.000 A 
ATOM     13  C   UNL     1       0.365   3.096  20.136  0.00  0.00    +0.000 A 
ATOM     14  C   UNL     1       1.022   2.876  21.347  0.00  0.00    +0.000 A 
ATOM     15  C   UNL     1       2.356   3.249  21.494  0.00  0.00    +0.000 A 
ATOM     16  C   UNL     1       3.035   3.837  20.427  0.00  0.00    +0.000 A 
ENDBRANCH   3  11
BRANCH   4  17
ATOM     17  C   UNL     1       2.568   6.936  18.681  0.00  0.00    +0.000 A 
ATOM     18  C   UNL     1       2.317   6.613  20.019  0.00  0.00    +0.000 A 
ATOM     19  C   UNL     1       1.627   7.504  20.846  0.00  0.00    +0.000 A 
ATOM     20  C   UNL     1       1.175   8.748  20.370  0.00  0.00    +0.000 A 
ATOM     21  C   UNL     1       1.469   9.066  19.031  0.00  0.00    +0.000 A 
ATOM     22  C   UNL     1       2.151   8.174  18.193  0.00  0.00    +0.000 A 
BRANCH  20  23
ATOM     23  C   UNL     1       0.405   9.667  21.240  0.00  0.00    +0.000 A 
ATOM     24  C   UNL     1      -0.017   9.280  22.525  0.00  0.00    +0.000 A 
ATOM     25  C   UNL     1      -0.772  10.137  23.337  0.00  0.00    +0.000 A 
ATOM     26  C   UNL     1      -1.108  11.408  22.886  0.00  0.00    +0.000 A 
ATOM     27  C   UNL     1      -0.697  11.821  21.624  0.00  0.00    +0.000 A 
ATOM     28  C   UNL     1       0.045  10.958  20.810  0.00  0.00    +0.000 A 
ENDBRANCH  20  23
ENDBRANCH   4  17
BRANCH   8  29
ATOM     29  O   UNL     1       8.297   4.728  16.520  0.00  0.00    +0.000 OA
ATOM     30  H   UNL     1       8.985   4.136  16.166  0.00  0.00    +0.000 HD
ENDBRANCH   8  29
TORSDOF 4
ENDMDL
MODEL 2
REMARK VINA RESULT:      -9.2      1.650      2.197
REMARK  Name = 
REMARK  4 active torsions:
REMARK  status: ('A' for Active; 'I' for Inactive)
REMARK    1  A    between atoms: C_3  and  C_4
REMARK    2  A    between atoms: C_10  and  C_11
REMARK    3  A    between atoms: C_14  and  C_15
REMARK    4  A    between atoms: C_26  and  O_27
REMARK                            x       y       z     vdW  Elec       q    Type
REMARK                         _______ _______ _______ _____ _____    ______ ____
ROOT
ATOM      1  O   UNL     1       4.772   3.337  17.982  0.00  0.00    +0.000 OA
ATOM      2  C   UNL     1       4.788   4.561  18.023  0.00  0.00    +0.000 C 
ATOM      3  C   UNL     1       3.556   5.378  18.274  0.00  0.00    +0.000 C 
ATOM      4  C   UNL     1       3.594   6.719  18.072  0.00  0.00    +0.000 C 
ATOM      5  C   UNL     1       4.791   7.452  17.505  0.00  0.00    +0.000 C 
ATOM      6  C   UNL     1       6.018   6.558  17.320  0.00  0.00    +0.000 C 
ATOM      7  C   UNL     1       7.334   7.140  17.830  0.00  0.00    +0.000 C 
ATOM      8  C   UNL     1       8.194   5.911  18.183  0.00  0.00    +0.000 C 
ATOM      9  C   UNL     1       7.250   4.704  18.142  0.00  0.00    +0.000 C 
ATOM     10  N   UNL     1       5.940   5.301  18.021  0.00  0.00    +0.000 N 
ENDROOT
BRANCH   3  11
ATOM     11  C   UNL     1       2.405   4.686  18.889  0.00  0.00    +0.000 A 
ATOM     12  C   UNL     1       1.424   4.072  18.103  0.00  0.00    +0.000 A 
ATOM     13  C   UNL     1       0.380   3.369  18.707  0.00  0.00    +0.000 A 
ATOM     14  C   UNL     1       0.309   3.275  20.097  0.00  0.00    +0.000 A 
ATOM     15  C   UNL     1       1.276   3.892  20.888  0.00  0.00    +0.000 A 
ATOM     16  C   UNL     1       2.319   4.595  20.287  0.00  0.00    +0.000 A 
ENDBRANCH   3  11
BRANCH   4  17
ATOM     17  C   UNL     1       2.493   7.596  18.510  0.00  0.00    +0.000 A 
ATOM     18  C   UNL     1       1.840   8.404  17.574  0.00  0.00    +0.000 A 
ATOM     19  C   UNL     1       0.856   9.309  17.982  0.00  0.00    +0.000 A 
ATOM     20  C   UNL     1       0.484   9.430  19.333  0.00  0.00    +0.000 A 
ATOM     21  C   UNL     1       1.131   8.583  20.252  0.00  0.00    +0.000 A 
ATOM     22  C   UNL     1       2.125   7.681  19.852  0.00  0.00    +0.000 A 
BRANCH  20  23
ATOM     23  C   UNL     1      -0.527  10.424  19.763  0.00  0.00    +0.000 A 
ATOM     24  C   UNL     1      -1.495  10.919  18.870  0.00  0.00    +0.000 A 
ATOM     25  C   UNL     1      -2.433  11.882  19.267  0.00  0.00    +0.000 A 
ATOM     26  C   UNL     1      -2.432  12.359  20.573  0.00  0.00    +0.000 A 
ATOM     27  C   UNL     1      -1.493  11.881  21.479  0.00  0.00    +0.000 A 
ATOM     28  C   UNL     1      -0.549  10.930  21.076  0.00  0.00    +0.000 A 
ENDBRANCH  20  23
ENDBRANCH   4  17
BRANCH   8  29
ATOM     29  O   UNL     1       8.750   6.093  19.486  0.00  0.00    +0.000 OA
ATOM     30  H   UNL     1       9.441   6.776  19.419  0.00  0.00    +0.000 HD
ENDBRANCH   8  29
TORSDOF 4
ENDMDL
MODEL 3
REMARK VINA RESULT:      -8.9      0.943      1.298
REMARK  Name = 
REMARK  4 active torsions:
REMARK  status: ('A' for Active; 'I' for Inactive)
REMARK    1  A    between atoms: C_3  and  C_4
REMARK    2  A    between atoms: C_10  and  C_11
REMARK    3  A    between atoms: C_14  and  C_15
REMARK    4  A    between atoms: C_26  and  O_27
REMARK                            x       y       z     vdW  Elec       q    Type
REMARK                         _______ _______ _______ _____ _____    ______ ____
ROOT
ATOM      1  O   UNL     1       4.302   3.184  17.567  0.00  0.00    +0.000 OA
ATOM      2  C   UNL     1       4.320   4.407  17.642  0.00  0.00    +0.000 C 
ATOM      3  C   UNL     1       3.215   5.195  18.277  0.00  0.00    +0.000 C 
ATOM      4  C   UNL     1       3.179   6.541  18.118  0.00  0.00    +0.000 C 
ATOM      5  C   UNL     1       4.145   7.311  17.242  0.00  0.00    +0.000 C 
ATOM      6  C   UNL     1       5.266   6.444  16.669  0.00  0.00    +0.000 C 
ATOM      7  C   UNL     1       6.671   7.033  16.779  0.00  0.00    +0.000 C 
ATOM      8  C   UNL     1       7.607   5.810  16.818  0.00  0.00    +0.000 C 
ATOM      9  C   UNL     1       6.703   4.588  17.021  0.00  0.00    +0.000 C 
ATOM     10  N   UNL     1       5.413   5.166  17.319  0.00  0.00    +0.000 N 
ENDROOT
BRANCH   3  11
ATOM     11  C   UNL     1       2.307   4.465  19.186  0.00  0.00    +0.000 A 
ATOM     12  C   UNL     1       1.124   3.884  18.716  0.00  0.00    +0.000 A 
ATOM     13  C   UNL     1       0.314   3.144  19.580  0.00  0.00    +0.000 A 
ATOM     14  C   UNL     1       0.679   2.982  20.917  0.00  0.00    +0.000 A 
ATOM     15  C   UNL     1       1.850   3.565  21.396  0.00  0.00    +0.000 A 
ATOM     16  C   UNL     1       2.660   4.305  20.535  0.00  0.00    +0.000 A 
ENDBRANCH   3  11
BRANCH   4  17
ATOM     17  C   UNL     1       2.254   7.386  18.895  0.00  0.00    +0.000 A 
ATOM     18  C   UNL     1       1.598   8.449  18.266  0.00  0.00    +0.000 A 
ATOM     19  C   UNL     1       0.788   9.317  19.003  0.00  0.00    +0.000 A 
ATOM     20  C   UNL     1       0.597   9.148  20.387  0.00  0.00    +0.000 A 
ATOM     21  C   UNL     1       1.240   8.051  20.991  0.00  0.00    +0.000 A 
ATOM     22  C   UNL     1       2.062   7.183  20.261  0.00  0.00    +0.000 A 
BRANCH  20  23
ATOM     23  C   UNL     1      -0.226  10.099  21.169  0.00  0.00    +0.000 A 
ATOM     24  C   UNL     1      -0.442   9.922  22.548  0.00  0.00    +0.000 A 
ATOM     25  C   UNL     1      -1.246  10.804  23.282  0.00  0.00    +0.000 A 
ATOM     26  C   UNL     1      -1.839  11.893  22.655  0.00  0.00    +0.000 A 
ATOM     27  C   UNL     1      -1.637  12.098  21.295  0.00  0.00    +0.000 A 
ATOM     28  C   UNL     1      -0.845  11.208  20.561  0.00  0.00    +0.000 A 
ENDBRANCH  20  23
ENDBRANCH   4  17
BRANCH   8  29
ATOM     29  O   UNL     1       8.527   5.963  17.899  0.00  0.00    +0.000 OA
ATOM     30  H   UNL     1       8.584   6.913  18.105  0.00  0.00    +0.000 HD
ENDBRANCH   8  29
TORSDOF 4
ENDMDL
MODEL 4
REMARK VINA RESULT:      -8.6      4.947      9.157
REMARK  Name = 
REMARK  4 active torsions:
REMARK  status: ('A' for Active; 'I' for Inactive)
REMARK    1  A    between atoms: C_3  and  C_4
REMARK    2  A    between atoms: C_10  and  C_11
REMARK    3  A    between atoms: C_14  and  C_15
REMARK    4  A    between atoms: C_26  and  O_27
REMARK                            x       y       z     vdW  Elec       q    Type
REMARK                         _______ _______ _______ _____ _____    ______ ____
ROOT
ATOM      1  O   UNL     1      -2.822  13.449  19.902  0.00  0.00    +0.000 OA
ATOM      2  C   UNL     1      -1.674  13.090  20.135  0.00  0.00    +0.000 C 
ATOM      3  C   UNL     1      -1.120  11.785  19.648  0.00  0.00    +0.000 C 
ATOM      4  C   UNL     1       0.066  11.341  20.134  0.00  0.00    +0.000 C 
ATOM      5  C   UNL     1       0.841  12.041  21.231  0.00  0.00    +0.000 C 
ATOM      6  C   UNL     1       0.235  13.385  21.639  0.00  0.00    +0.000 C 
ATOM      7  C   UNL     1       1.227  14.538  21.764  0.00  0.00    +0.000 C 
ATOM      8  C   UNL     1       0.394  15.804  21.480  0.00  0.00    +0.000 C 
ATOM      9  C   UNL     1      -0.948  15.314  20.925  0.00  0.00    +0.000 C 
ATOM     10  N   UNL     1      -0.729  13.903  20.702  0.00  0.00    +0.000 N 
ENDROOT
BRANCH   3  11
ATOM     11  C   UNL     1      -1.832  11.127  18.533  0.00  0.00    +0.000 A 
ATOM     12  C   UNL     1      -2.611   9.984  18.744  0.00  0.00    +0.000 A 
ATOM     13  C   UNL     1      -3.326   9.418  17.687  0.00  0.00    +0.000 A 
ATOM     14  C   UNL     1      -3.267   9.988  16.415  0.00  0.00    +0.000 A 
ATOM     15  C   UNL     1      -2.486  11.120  16.193  0.00  0.00    +0.000 A 
ATOM     16  C   UNL     1      -1.771  11.687  17.247  0.00  0.00    +0.000 A 
ENDBRANCH   3  11
BRANCH   4  17
ATOM     17  C   UNL     1       0.762  10.188  19.536  0.00  0.00    +0.000 A 
ATOM     18  C   UNL     1       0.922   9.016  20.282  0.00  0.00    +0.000 A 
ATOM     19  C   UNL     1       1.656   7.943  19.769  0.00  0.00    +0.000 A 
ATOM     20  C   UNL     1       2.247   8.000  18.494  0.00  0.00    +0.000 A 
ATOM     21  C   UNL     1       2.045   9.177  17.748  0.00  0.00    +0.000 A 
ATOM     22  C   UNL     1       1.318  10.260  18.260  0.00  0.00    +0.000 A 
BRANCH  20  23
ATOM     23  C   UNL     1       3.062   6.877  17.976  0.00  0.00    +0.000 A 
ATOM     24  C   UNL     1       4.267   7.102  17.286  0.00  0.00    +0.000 A 
ATOM     25  C   UNL     1       5.024   6.042  16.768  0.00  0.00    +0.000 A 
ATOM     26  C   UNL     1       4.598   4.730  16.946  0.00  0.00    +0.000 A 
ATOM     27  C   UNL     1       3.416   4.478  17.632  0.00  0.00    +0.000 A 
ATOM     28  C   UNL     1       2.656   5.539  18.135  0.00  0.00    +0.000 A 
ENDBRANCH  20  23
ENDBRANCH   4  17
BRANCH   8  29
ATOM     29  O   UNL     1       1.088  16.612  20.529  0.00  0.00    +0.000 OA
ATOM     30  H   UNL     1       0.793  17.532  20.654  0.00  0.00    +0.000 HD
ENDBRANCH   8  29
TORSDOF 4
ENDMDL
MODEL 5
REMARK VINA RESULT:      -8.6      1.651      2.234
REMARK  Name = 
REMARK  4 active torsions:
REMARK  status: ('A' for Active; 'I' for Inactive)
REMARK    1  A    between atoms: C_3  and  C_4
REMARK    2  A    between atoms: C_10  and  C_11
REMARK    3  A    between atoms: C_14  and  C_15
REMARK    4  A    between atoms: C_26  and  O_27
REMARK                            x       y       z     vdW  Elec       q    Type
REMARK                         _______ _______ _______ _____ _____    ______ ____
ROOT
ATOM      1  O   UNL     1       4.821   3.205  18.003  0.00  0.00    +0.000 OA
ATOM      2  C   UNL     1       4.851   4.429  18.047  0.00  0.00    +0.000 C 
ATOM      3  C   UNL     1       3.626   5.261  18.278  0.00  0.00    +0.000 C 
ATOM      4  C   UNL     1       3.683   6.602  18.079  0.00  0.00    +0.000 C 
ATOM      5  C   UNL     1       4.900   7.320  17.535  0.00  0.00    +0.000 C 
ATOM      6  C   UNL     1       6.118   6.412  17.370  0.00  0.00    +0.000 C 
ATOM      7  C   UNL     1       7.432   6.976  17.904  0.00  0.00    +0.000 C 
ATOM      8  C   UNL     1       8.271   5.736  18.270  0.00  0.00    +0.000 C 
ATOM      9  C   UNL     1       7.313   4.541  18.209  0.00  0.00    +0.000 C 
ATOM     10  N   UNL     1       6.012   5.155  18.067  0.00  0.00    +0.000 N 
ENDROOT
BRANCH   3  11
ATOM     11  C   UNL     1       2.456   4.582  18.872  0.00  0.00    +0.000 A 
ATOM     12  C   UNL     1       2.261   4.554  20.257  0.00  0.00    +0.000 A 
ATOM     13  C   UNL     1       1.114   3.962  20.792  0.00  0.00    +0.000 A 
ATOM     14  C   UNL     1       0.159   3.395  19.948  0.00  0.00    +0.000 A 
ATOM     15  C   UNL     1       0.350   3.409  18.569  0.00  0.00    +0.000 A 
ATOM     16  C   UNL     1       1.494   3.999  18.032  0.00  0.00    +0.000 A 
ENDBRANCH   3  11
BRANCH   4  17
ATOM     17  C   UNL     1       2.586   7.491  18.500  0.00  0.00    +0.000 A 
ATOM     18  C   UNL     1       1.950   8.298  17.551  0.00  0.00    +0.000 A 
ATOM     19  C   UNL     1       0.970   9.215  17.943  0.00  0.00    +0.000 A 
ATOM     20  C   UNL     1       0.585   9.349  19.289  0.00  0.00    +0.000 A 
ATOM     21  C   UNL     1       1.215   8.502  20.221  0.00  0.00    +0.000 A 
ATOM     22  C   UNL     1       2.205   7.589  19.838  0.00  0.00    +0.000 A 
BRANCH  20  23
ATOM     23  C   UNL     1      -0.421  10.354  19.701  0.00  0.00    +0.000 A 
ATOM     24  C   UNL     1      -0.436  10.886  21.004  0.00  0.00    +0.000 A 
ATOM     25  C   UNL     1      -1.408  11.814  21.404  0.00  0.00    +0.000 A 
ATOM     26  C   UNL     1      -2.376  12.243  20.504  0.00  0.00    +0.000 A 
ATOM     27  C   UNL     1      -2.379  11.741  19.208  0.00  0.00    +0.000 A 
ATOM     28  C   UNL     1      -1.417  10.804  18.814  0.00  0.00    +0.000 A 
ENDBRANCH  20  23
ENDBRANCH   4  17
BRANCH   8  29
ATOM     29  O   UNL     1       8.806   5.909  19.583  0.00  0.00    +0.000 OA
ATOM     30  H   UNL     1       9.751   6.127  19.490  0.00  0.00    +0.000 HD
ENDBRANCH   8  29
TORSDOF 4
ENDMDL
MODEL 6
REMARK VINA RESULT:      -8.6      4.891      8.993
REMARK  Name = 
REMARK  4 active torsions:
REMARK  status: ('A' for Active; 'I' for Inactive)
REMARK    1  A    between atoms: C_3  and  C_4
REMARK    2  A    between atoms: C_10  and  C_11
REMARK    3  A    between atoms: C_14  and  C_15
REMARK    4  A    between atoms: C_26  and  O_27
REMARK                            x       y       z     vdW  Elec       q    Type
REMARK                         _______ _______ _______ _____ _____    ______ ____
ROOT
ATOM      1  O   UNL     1      -2.288  13.738  19.733  0.00  0.00    +0.000 OA
ATOM      2  C   UNL     1      -1.157  13.306  19.919  0.00  0.00    +0.000 C 
ATOM      3  C   UNL     1      -0.739  11.927  19.507  0.00  0.00    +0.000 C 
ATOM      4  C   UNL     1       0.443  11.428  19.949  0.00  0.00    +0.000 C 
ATOM      5  C   UNL     1       1.344  12.145  20.931  0.00  0.00    +0.000 C 
ATOM      6  C   UNL     1       0.872  13.561  21.266  0.00  0.00    +0.000 C 
ATOM      7  C   UNL     1       1.954  14.637  21.230  0.00  0.00    +0.000 C 
ATOM      8  C   UNL     1       1.201  15.940  20.898  0.00  0.00    +0.000 C 
ATOM      9  C   UNL     1      -0.211  15.518  20.474  0.00  0.00    +0.000 C 
ATOM     10  N   UNL     1      -0.115  14.082  20.354  0.00  0.00    +0.000 N 
ENDROOT
BRANCH   3  11
ATOM     11  C   UNL     1      -1.576  11.245  18.498  0.00  0.00    +0.000 A 
ATOM     12  C   UNL     1      -2.318  10.104  18.824  0.00  0.00    +0.000 A 
ATOM     13  C   UNL     1      -3.152   9.515  17.871  0.00  0.00    +0.000 A 
ATOM     14  C   UNL     1      -3.249  10.059  16.591  0.00  0.00    +0.000 A 
ATOM     15  C   UNL     1      -2.506  11.188  16.255  0.00  0.00    +0.000 A 
ATOM     16  C   UNL     1      -1.673  11.779  17.204  0.00  0.00    +0.000 A 
ENDBRANCH   3  11
BRANCH   4  17
ATOM     17  C   UNL     1       1.005  10.179  19.404  0.00  0.00    +0.000 A 
ATOM     18  C   UNL     1       1.073   9.042  20.215  0.00  0.00    +0.000 A 
ATOM     19  C   UNL     1       1.685   7.875  19.749  0.00  0.00    +0.000 A 
ATOM     20  C   UNL     1       2.239   7.800  18.458  0.00  0.00    +0.000 A 
ATOM     21  C   UNL     1       2.128   8.946  17.648  0.00  0.00    +0.000 A 
ATOM     22  C   UNL     1       1.526  10.123  18.112  0.00  0.00    +0.000 A 
BRANCH  20  23
ATOM     23  C   UNL     1       2.926   6.575  17.988  0.00  0.00    +0.000 A 
ATOM     24  C   UNL     1       2.315   5.310  18.081  0.00  0.00    +0.000 A 
ATOM     25  C   UNL     1       2.977   4.146  17.667  0.00  0.00    +0.000 A 
ATOM     26  C   UNL     1       4.258   4.225  17.133  0.00  0.00    +0.000 A 
ATOM     27  C   UNL     1       4.882   5.462  17.021  0.00  0.00    +0.000 A 
ATOM     28  C   UNL     1       4.225   6.620  17.449  0.00  0.00    +0.000 A 
ENDBRANCH  20  23
ENDBRANCH   4  17
BRANCH   8  29
ATOM     29  O   UNL     1       1.883  16.614  19.840  0.00  0.00    +0.000 OA
ATOM     30  H   UNL     1       1.248  16.741  19.113  0.00  0.00    +0.000 HD
ENDBRANCH   8  29
TORSDOF 4
ENDMDL
MODEL 7
REMARK VINA RESULT:      -8.5      4.894      9.013
REMARK  Name = 
REMARK  4 active torsions:
REMARK  status: ('A' for Active; 'I' for Inactive)
REMARK    1  A    between atoms: C_3  and  C_4
REMARK    2  A    between atoms: C_10  and  C_11
REMARK    3  A    between atoms: C_14  and  C_15
REMARK    4  A    between atoms: C_26  and  O_27
REMARK                            x       y       z     vdW  Elec       q    Type
REMARK                         _______ _______ _______ _____ _____    ______ ____
ROOT
ATOM      1  O   UNL     1      -2.211  13.852  19.787  0.00  0.00    +0.000 OA
ATOM      2  C   UNL     1      -1.084  13.408  19.970  0.00  0.00    +0.000 C 
ATOM      3  C   UNL     1      -0.683  12.023  19.562  0.00  0.00    +0.000 C 
ATOM      4  C   UNL     1       0.495  11.513  20.001  0.00  0.00    +0.000 C 
ATOM      5  C   UNL     1       1.408  12.225  20.977  0.00  0.00    +0.000 C 
ATOM      6  C   UNL     1       0.953  13.646  21.307  0.00  0.00    +0.000 C 
ATOM      7  C   UNL     1       2.047  14.711  21.262  0.00  0.00    +0.000 C 
ATOM      8  C   UNL     1       1.307  16.020  20.928  0.00  0.00    +0.000 C 
ATOM      9  C   UNL     1      -0.111  15.612  20.512  0.00  0.00    +0.000 C 
ATOM     10  N   UNL     1      -0.032  14.175  20.397  0.00  0.00    +0.000 N 
ENDROOT
BRANCH   3  11
ATOM     11  C   UNL     1      -1.532  11.346  18.559  0.00  0.00    +0.000 A 
ATOM     12  C   UNL     1      -1.626  11.826  17.248  0.00  0.00    +0.000 A 
ATOM     13  C   UNL     1      -2.384  11.134  16.301  0.00  0.00    +0.000 A 
ATOM     14  C   UNL     1      -3.051   9.962  16.657  0.00  0.00    +0.000 A 
ATOM     15  C   UNL     1      -2.970   9.483  17.963  0.00  0.00    +0.000 A 
ATOM     16  C   UNL     1      -2.215  10.172  18.910  0.00  0.00    +0.000 A 
ENDBRANCH   3  11
BRANCH   4  17
ATOM     17  C   UNL     1       1.042  10.256  19.459  0.00  0.00    +0.000 A 
ATOM     18  C   UNL     1       1.098   9.121  20.274  0.00  0.00    +0.000 A 
ATOM     19  C   UNL     1       1.695   7.945  19.810  0.00  0.00    +0.000 A 
ATOM     20  C   UNL     1       2.245   7.859  18.518  0.00  0.00    +0.000 A 
ATOM     21  C   UNL     1       2.146   9.004  17.705  0.00  0.00    +0.000 A 
ATOM     22  C   UNL     1       1.559  10.189  18.166  0.00  0.00    +0.000 A 
BRANCH  20  23
ATOM     23  C   UNL     1       2.916   6.624  18.051  0.00  0.00    +0.000 A 
ATOM     24  C   UNL     1       4.194   6.661  17.464  0.00  0.00    +0.000 A 
ATOM     25  C   UNL     1       4.817   5.497  16.994  0.00  0.00    +0.000 A 
ATOM     26  C   UNL     1       4.180   4.267  17.116  0.00  0.00    +0.000 A 
ATOM     27  C   UNL     1       2.921   4.200  17.699  0.00  0.00    +0.000 A 
ATOM     28  C   UNL     1       2.296   5.366  18.156  0.00  0.00    +0.000 A 
ENDBRANCH  20  23
ENDBRANCH   4  17
BRANCH   8  29
ATOM     29  O   UNL     1       1.992  16.683  19.865  0.00  0.00    +0.000 OA
ATOM     30  H   UNL     1       2.493  17.422  20.253  0.00  0.00    +0.000 HD
ENDBRANCH   8  29
TORSDOF 4
ENDMDL
MODEL 8
REMARK VINA RESULT:      -8.5      5.102      9.414
REMARK  Name = 
REMARK  4 active torsions:
REMARK  status: ('A' for Active; 'I' for Inactive)
REMARK    1  A    between atoms: C_3  and  C_4
REMARK    2  A    between atoms: C_10  and  C_11
REMARK    3  A    between atoms: C_14  and  C_15
REMARK    4  A    between atoms: C_26  and  O_27
REMARK                            x       y       z     vdW  Elec       q    Type
REMARK                         _______ _______ _______ _____ _____    ______ ____
ROOT
ATOM      1  O   UNL     1      -3.634  13.137  19.881  0.00  0.00    +0.000 OA
ATOM      2  C   UNL     1      -2.500  12.895  20.277  0.00  0.00    +0.000 C 
ATOM      3  C   UNL     1      -1.716  11.706  19.811  0.00  0.00    +0.000 C 
ATOM      4  C   UNL     1      -0.574  11.365  20.458  0.00  0.00    +0.000 C 
ATOM      5  C   UNL     1      -0.075  12.059  21.708  0.00  0.00    +0.000 C 
ATOM      6  C   UNL     1      -0.903  13.286  22.092  0.00  0.00    +0.000 C 
ATOM      7  C   UNL     1      -0.097  14.532  22.449  0.00  0.00    +0.000 C 
ATOM      8  C   UNL     1      -1.029  15.712  22.109  0.00  0.00    +0.000 C 
ATOM      9  C   UNL     1      -2.195  15.117  21.311  0.00  0.00    +0.000 C 
ATOM     10  N   UNL     1      -1.767  13.764  21.041  0.00  0.00    +0.000 N 
ENDROOT
BRANCH   3  11
ATOM     11  C   UNL     1      -2.155  11.064  18.555  0.00  0.00    +0.000 A 
ATOM     12  C   UNL     1      -2.814   9.829  18.565  0.00  0.00    +0.000 A 
ATOM     13  C   UNL     1      -3.277   9.272  17.371  0.00  0.00    +0.000 A 
ATOM     14  C   UNL     1      -3.084   9.942  16.163  0.00  0.00    +0.000 A 
ATOM     15  C   UNL     1      -2.420  11.166  16.142  0.00  0.00    +0.000 A 
ATOM     16  C   UNL     1      -1.957  11.725  17.333  0.00  0.00    +0.000 A 
ENDBRANCH   3  11
BRANCH   4  17
ATOM     17  C   UNL     1       0.348  10.352  19.913  0.00  0.00    +0.000 A 
ATOM     18  C   UNL     1       0.953  10.567  18.670  0.00  0.00    +0.000 A 
ATOM     19  C   UNL     1       1.758   9.581  18.094  0.00  0.00    +0.000 A 
ATOM     20  C   UNL     1       1.995   8.354  18.740  0.00  0.00    +0.000 A 
ATOM     21  C   UNL     1       1.403   8.174  20.005  0.00  0.00    +0.000 A 
ATOM     22  C   UNL     1       0.587   9.154  20.585  0.00  0.00    +0.000 A 
BRANCH  20  23
ATOM     23  C   UNL     1       2.812   7.297  18.102  0.00  0.00    +0.000 A 
ATOM     24  C   UNL     1       2.492   5.934  18.247  0.00  0.00    +0.000 A 
ATOM     25  C   UNL     1       3.283   4.931  17.669  0.00  0.00    +0.000 A 
ATOM     26  C   UNL     1       4.402   5.272  16.919  0.00  0.00    +0.000 A 
ATOM     27  C   UNL     1       4.737   6.610  16.751  0.00  0.00    +0.000 A 
ATOM     28  C   UNL     1       3.954   7.609  17.341  0.00  0.00    +0.000 A 
ENDBRANCH  20  23
ENDBRANCH   4  17
BRANCH   8  29
ATOM     29  O   UNL     1      -0.304  16.669  21.337  0.00  0.00    +0.000 OA
ATOM     30  H   UNL     1       0.514  16.240  21.026  0.00  0.00    +0.000 HD
ENDBRANCH   8  29
TORSDOF 4
ENDMDL
MODEL 9
REMARK VINA RESULT:      -8.4      0.848      1.747
REMARK  Name = 
REMARK  4 active torsions:
REMARK  status: ('A' for Active; 'I' for Inactive)
REMARK    1  A    between atoms: C_3  and  C_4
REMARK    2  A    between atoms: C_10  and  C_11
REMARK    3  A    between atoms: C_14  and  C_15
REMARK    4  A    between atoms: C_26  and  O_27
REMARK                            x       y       z     vdW  Elec       q    Type
REMARK                         _______ _______ _______ _____ _____    ______ ____
ROOT
ATOM      1  O   UNL     1       4.366   3.060  17.527  0.00  0.00    +0.000 OA
ATOM      2  C   UNL     1       4.375   4.284  17.596  0.00  0.00    +0.000 C 
ATOM      3  C   UNL     1       3.272   5.067  18.241  0.00  0.00    +0.000 C 
ATOM      4  C   UNL     1       3.224   6.412  18.076  0.00  0.00    +0.000 C 
ATOM      5  C   UNL     1       4.173   7.185  17.185  0.00  0.00    +0.000 C 
ATOM      6  C   UNL     1       5.294   6.324  16.602  0.00  0.00    +0.000 C 
ATOM      7  C   UNL     1       6.695   6.924  16.692  0.00  0.00    +0.000 C 
ATOM      8  C   UNL     1       7.641   5.708  16.725  0.00  0.00    +0.000 C 
ATOM      9  C   UNL     1       6.749   4.481  16.946  0.00  0.00    +0.000 C 
ATOM     10  N   UNL     1       5.458   5.050  17.257  0.00  0.00    +0.000 N 
ENDROOT
BRANCH   3  11
ATOM     11  C   UNL     1       2.381   4.334  19.165  0.00  0.00    +0.000 A 
ATOM     12  C   UNL     1       2.721   4.157  20.511  0.00  0.00    +0.000 A 
ATOM     13  C   UNL     1       1.834   3.518  21.380  0.00  0.00    +0.000 A 
ATOM     14  C   UNL     1       0.606   3.052  20.911  0.00  0.00    +0.000 A 
ATOM     15  C   UNL     1       0.264   3.215  19.571  0.00  0.00    +0.000 A 
ATOM     16  C   UNL     1       1.147   3.852  18.701  0.00  0.00    +0.000 A 
ENDBRANCH   3  11
BRANCH   4  17
ATOM     17  C   UNL     1       2.302   7.253  18.861  0.00  0.00    +0.000 A 
ATOM     18  C   UNL     1       1.635   8.312  18.237  0.00  0.00    +0.000 A 
ATOM     19  C   UNL     1       0.827   9.178  18.980  0.00  0.00    +0.000 A 
ATOM     20  C   UNL     1       0.651   9.010  20.365  0.00  0.00    +0.000 A 
ATOM     21  C   UNL     1       1.306   7.918  20.965  0.00  0.00    +0.000 A 
ATOM     22  C   UNL     1       2.125   7.052  20.229  0.00  0.00    +0.000 A 
BRANCH  20  23
ATOM     23  C   UNL     1      -0.170   9.959  21.153  0.00  0.00    +0.000 A 
ATOM     24  C   UNL     1      -0.730  11.108  20.566  0.00  0.00    +0.000 A 
ATOM     25  C   UNL     1      -1.481  12.022  21.318  0.00  0.00    +0.000 A 
ATOM     26  C   UNL     1      -1.700  11.797  22.672  0.00  0.00    +0.000 A 
ATOM     27  C   UNL     1      -1.166  10.666  23.277  0.00  0.00    +0.000 A 
ATOM     28  C   UNL     1      -0.405   9.762  22.527  0.00  0.00    +0.000 A 
ENDBRANCH  20  23
ENDBRANCH   4  17
BRANCH   8  29
ATOM     29  O   UNL     1       8.573   5.873  17.794  0.00  0.00    +0.000 OA
ATOM     30  H   UNL     1       9.231   5.158  17.725  0.00  0.00    +0.000 HD
ENDBRANCH   8  29
TORSDOF 4
ENDMDL
