MODEL 1
REMARK VINA RESULT:      -8.8      0.000      0.000
REMARK  Name = 
REMARK  4 active torsions:
REMARK  status: ('A' for Active; 'I' for Inactive)
REMARK    1  A    between atoms: C_4  and  C_5
REMARK    2  A    between atoms: C_5  and  C_6
REMARK    3  A    between atoms: C_11  and  C_12
REMARK    4  A    between atoms: N_23  and  C_24
REMARK                            x       y       z     vdW  Elec       q    Type
REMARK                         _______ _______ _______ _____ _____    ______ ____
ROOT
ATOM      1  O   UNL     1       6.442   5.046  20.253  0.00  0.00    +0.000 OA
ATOM      2  C   UNL     1       5.903   5.128  19.158  0.00  0.00    +0.000 A 
ATOM      3  N   UNL     1       4.558   5.430  19.009  0.00  0.00    +0.000 N 
ATOM      4  C   UNL     1       3.928   5.522  17.776  0.00  0.00    +0.000 A 
ATOM      5  N   UNL     1       4.519   5.316  16.630  0.00  0.00    +0.000 NA
ATOM      6  C   UNL     1       5.834   5.027  16.745  0.00  0.00    +0.000 A 
ATOM      7  C   UNL     1       6.565   4.933  17.904  0.00  0.00    +0.000 A 
ATOM      8  C   UNL     1       7.870   4.641  17.505  0.00  0.00    +0.000 A 
ATOM      9  N   UNL     1       7.978   4.541  16.172  0.00  0.00    +0.000 NA
ATOM     10  N   UNL     1       6.716   4.780  15.723  0.00  0.00    +0.000 N 
ATOM     11  H   UNL     1       4.047   5.571  19.865  0.00  0.00    +0.000 HD
ENDROOT
BRANCH  10  12
ATOM     12  C   UNL     1       6.440   4.707  14.292  0.00  0.00    +0.000 C 
ATOM     13  C   UNL     1       5.807   3.377  13.873  0.00  0.00    +0.000 C 
ATOM     14  C   UNL     1       5.619   3.334  12.363  0.00  0.00    +0.000 C 
ATOM     15  O   UNL     1       6.854   3.584  11.694  0.00  0.00    +0.000 OA
ATOM     16  C   UNL     1       7.369   4.884  11.974  0.00  0.00    +0.000 C 
ATOM     17  C   UNL     1       7.681   5.030  13.454  0.00  0.00    +0.000 C 
ENDBRANCH  10  12
BRANCH   4  18
ATOM     18  C   UNL     1       2.470   5.912  17.812  0.00  0.00    +0.000 C 
BRANCH  18  19
ATOM     19  C   UNL     1       2.035   6.885  18.897  0.00  0.00    +0.000 A 
ATOM     20  C   UNL     1       1.950   8.263  18.594  0.00  0.00    +0.000 A 
ATOM     21  C   UNL     1       1.504   9.192  19.531  0.00  0.00    +0.000 A 
ATOM     22  C   UNL     1       1.180   8.772  20.810  0.00  0.00    +0.000 A 
ATOM     23  C   UNL     1       1.299   7.422  21.147  0.00  0.00    +0.000 A 
ATOM     24  C   UNL     1       1.699   6.438  20.211  0.00  0.00    +0.000 A 
BRANCH  24  25
ATOM     25  C   UNL     1       1.652   5.003  20.622  0.00  0.00    +0.000 A 
ATOM     26  C   UNL     1       0.828   4.088  19.957  0.00  0.00    +0.000 A 
ATOM     27  C   UNL     1       0.888   2.744  20.284  0.00  0.00    +0.000 A 
ATOM     28  N   UNL     1       1.714   2.261  21.229  0.00  0.00    +0.000 NA
ATOM     29  N   UNL     1       2.473   3.127  21.933  0.00  0.00    +0.000 NA
ATOM     30  C   UNL     1       2.412   4.451  21.648  0.00  0.00    +0.000 A 
ENDBRANCH  24  25
ENDBRANCH  18  19
ENDBRANCH   4  18
TORSDOF 4
ENDMDL
MODEL 2
REMARK VINA RESULT:      -8.7      3.256      7.995
REMARK  Name = 
REMARK  4 active torsions:
REMARK  status: ('A' for Active; 'I' for Inactive)
REMARK    1  A    between atoms: C_4  and  C_5
REMARK    2  A    between atoms: C_5  and  C_6
REMARK    3  A    between atoms: C_11  and  C_12
REMARK    4  A    between atoms: N_23  and  C_24
REMARK                            x       y       z     vdW  Elec       q    Type
REMARK                         _______ _______ _______ _____ _____    ______ ____
ROOT
ATOM      1  O   UNL     1       3.625   8.086  16.509  0.00  0.00    +0.000 OA
ATOM      2  C   UNL     1       3.061   7.954  17.587  0.00  0.00    +0.000 A 
ATOM      3  N   UNL     1       3.186   6.809  18.359  0.00  0.00    +0.000 N 
ATOM      4  C   UNL     1       2.550   6.640  19.581  0.00  0.00    +0.000 A 
ATOM      5  N   UNL     1       1.755   7.520  20.126  0.00  0.00    +0.000 NA
ATOM      6  C   UNL     1       1.621   8.651  19.398  0.00  0.00    +0.000 A 
ATOM      7  C   UNL     1       2.216   8.937  18.194  0.00  0.00    +0.000 A 
ATOM      8  C   UNL     1       1.791  10.224  17.859  0.00  0.00    +0.000 A 
ATOM      9  N   UNL     1       0.963  10.735  18.781  0.00  0.00    +0.000 NA
ATOM     10  N   UNL     1       0.870   9.754  19.719  0.00  0.00    +0.000 N 
ATOM     11  H   UNL     1       3.767   6.085  17.971  0.00  0.00    +0.000 HD
ENDROOT
BRANCH  10  12
ATOM     12  C   UNL     1      -0.002   9.946  20.872  0.00  0.00    +0.000 C 
ATOM     13  C   UNL     1      -0.492  11.391  21.016  0.00  0.00    +0.000 C 
ATOM     14  C   UNL     1      -1.328  11.540  22.278  0.00  0.00    +0.000 C 
ATOM     15  O   UNL     1      -0.601  11.095  23.422  0.00  0.00    +0.000 OA
ATOM     16  C   UNL     1      -0.272   9.709  23.350  0.00  0.00    +0.000 C 
ATOM     17  C   UNL     1       0.640   9.436  22.166  0.00  0.00    +0.000 C 
ENDBRANCH  10  12
BRANCH   4  18
ATOM     18  C   UNL     1       2.848   5.346  20.302  0.00  0.00    +0.000 C 
BRANCH  18  19
ATOM     19  C   UNL     1       2.336   4.062  19.669  0.00  0.00    +0.000 A 
ATOM     20  C   UNL     1       1.034   3.609  19.981  0.00  0.00    +0.000 A 
ATOM     21  C   UNL     1       0.493   2.471  19.388  0.00  0.00    +0.000 A 
ATOM     22  C   UNL     1       1.259   1.730  18.505  0.00  0.00    +0.000 A 
ATOM     23  C   UNL     1       2.564   2.131  18.214  0.00  0.00    +0.000 A 
ATOM     24  C   UNL     1       3.135   3.309  18.755  0.00  0.00    +0.000 A 
BRANCH  24  25
ATOM     25  C   UNL     1       4.481   3.736  18.269  0.00  0.00    +0.000 A 
ATOM     26  C   UNL     1       4.750   3.857  16.901  0.00  0.00    +0.000 A 
ATOM     27  C   UNL     1       5.969   4.363  16.482  0.00  0.00    +0.000 A 
ATOM     28  N   UNL     1       6.929   4.751  17.339  0.00  0.00    +0.000 NA
ATOM     29  N   UNL     1       6.726   4.586  18.663  0.00  0.00    +0.000 NA
ATOM     30  C   UNL     1       5.550   4.068  19.096  0.00  0.00    +0.000 A 
ENDBRANCH  24  25
ENDBRANCH  18  19
ENDBRANCH   4  18
TORSDOF 4
ENDMDL
MODEL 3
REMARK VINA RESULT:      -8.6      2.958      4.982
REMARK  Name = 
REMARK  4 active torsions:
REMARK  status: ('A' for Active; 'I' for Inactive)
REMARK    1  A    between atoms: C_4  and  C_5
REMARK    2  A    between atoms: C_5  and  C_6
REMARK    3  A    between atoms: C_11  and  C_12
REMARK    4  A    between atoms: N_23  and  C_24
REMARK                            x       y       z     vdW  Elec       q    Type
REMARK                         _______ _______ _______ _____ _____    ______ ____
ROOT
ATOM      1  O   UNL     1       1.613   2.342  21.874  0.00  0.00    +0.000 OA
ATOM      2  C   UNL     1       2.110   3.265  21.244  0.00  0.00    +0.000 A 
ATOM      3  N   UNL     1       1.629   4.563  21.319  0.00  0.00    +0.000 N 
ATOM      4  C   UNL     1       2.177   5.622  20.607  0.00  0.00    +0.000 A 
ATOM      5  N   UNL     1       3.181   5.513  19.780  0.00  0.00    +0.000 NA
ATOM      6  C   UNL     1       3.675   4.258  19.694  0.00  0.00    +0.000 A 
ATOM      7  C   UNL     1       3.232   3.144  20.364  0.00  0.00    +0.000 A 
ATOM      8  C   UNL     1       4.071   2.103  19.962  0.00  0.00    +0.000 A 
ATOM      9  N   UNL     1       4.993   2.513  19.079  0.00  0.00    +0.000 NA
ATOM     10  N   UNL     1       4.733   3.840  18.925  0.00  0.00    +0.000 N 
ATOM     11  H   UNL     1       0.835   4.699  21.922  0.00  0.00    +0.000 HD
ENDROOT
BRANCH  10  12
ATOM     12  C   UNL     1       5.526   4.620  17.983  0.00  0.00    +0.000 C 
ATOM     13  C   UNL     1       6.411   5.666  18.669  0.00  0.00    +0.000 C 
ATOM     14  C   UNL     1       7.149   6.496  17.630  0.00  0.00    +0.000 C 
ATOM     15  O   UNL     1       6.233   7.080  16.705  0.00  0.00    +0.000 OA
ATOM     16  C   UNL     1       5.513   6.098  15.962  0.00  0.00    +0.000 C 
ATOM     17  C   UNL     1       4.659   5.246  16.887  0.00  0.00    +0.000 C 
ENDBRANCH  10  12
BRANCH   4  18
ATOM     18  C   UNL     1       1.551   6.974  20.857  0.00  0.00    +0.000 C 
BRANCH  18  19
ATOM     19  C   UNL     1       1.721   8.031  19.777  0.00  0.00    +0.000 A 
ATOM     20  C   UNL     1       2.305   7.668  18.542  0.00  0.00    +0.000 A 
ATOM     21  C   UNL     1       2.434   8.581  17.498  0.00  0.00    +0.000 A 
ATOM     22  C   UNL     1       2.027   9.892  17.680  0.00  0.00    +0.000 A 
ATOM     23  C   UNL     1       1.488  10.286  18.907  0.00  0.00    +0.000 A 
ATOM     24  C   UNL     1       1.292   9.379  19.977  0.00  0.00    +0.000 A 
BRANCH  24  25
ATOM     25  C   UNL     1       0.572   9.858  21.193  0.00  0.00    +0.000 A 
ATOM     26  C   UNL     1      -0.470  10.788  21.096  0.00  0.00    +0.000 A 
ATOM     27  C   UNL     1      -1.195  11.129  22.226  0.00  0.00    +0.000 A 
ATOM     28  N   UNL     1      -0.944  10.603  23.438  0.00  0.00    +0.000 NA
ATOM     29  N   UNL     1       0.096   9.755  23.576  0.00  0.00    +0.000 NA
ATOM     30  C   UNL     1       0.836   9.426  22.489  0.00  0.00    +0.000 A 
ENDBRANCH  24  25
ENDBRANCH  18  19
ENDBRANCH   4  18
TORSDOF 4
ENDMDL
MODEL 4
REMARK VINA RESULT:      -8.5      2.940      4.740
REMARK  Name = 
REMARK  4 active torsions:
REMARK  status: ('A' for Active; 'I' for Inactive)
REMARK    1  A    between atoms: C_4  and  C_5
REMARK    2  A    between atoms: C_5  and  C_6
REMARK    3  A    between atoms: C_11  and  C_12
REMARK    4  A    between atoms: N_23  and  C_24
REMARK                            x       y       z     vdW  Elec       q    Type
REMARK                         _______ _______ _______ _____ _____    ______ ____
ROOT
ATOM      1  O   UNL     1       1.876   2.363  22.051  0.00  0.00    +0.000 OA
ATOM      2  C   UNL     1       2.268   3.283  21.346  0.00  0.00    +0.000 A 
ATOM      3  N   UNL     1       1.704   4.549  21.387  0.00  0.00    +0.000 N 
ATOM      4  C   UNL     1       2.133   5.602  20.592  0.00  0.00    +0.000 A 
ATOM      5  N   UNL     1       3.091   5.517  19.709  0.00  0.00    +0.000 NA
ATOM      6  C   UNL     1       3.665   4.294  19.653  0.00  0.00    +0.000 A 
ATOM      7  C   UNL     1       3.342   3.190  20.404  0.00  0.00    +0.000 A 
ATOM      8  C   UNL     1       4.226   2.188  20.001  0.00  0.00    +0.000 A 
ATOM      9  N   UNL     1       5.062   2.611  19.042  0.00  0.00    +0.000 NA
ATOM     10  N   UNL     1       4.702   3.908  18.841  0.00  0.00    +0.000 N 
ATOM     11  H   UNL     1       0.940   4.662  22.033  0.00  0.00    +0.000 HD
ENDROOT
BRANCH  10  12
ATOM     12  C   UNL     1       5.381   4.688  17.813  0.00  0.00    +0.000 C 
ATOM     13  C   UNL     1       5.401   3.991  16.449  0.00  0.00    +0.000 C 
ATOM     14  C   UNL     1       6.191   4.818  15.445  0.00  0.00    +0.000 C 
ATOM     15  O   UNL     1       7.503   5.090  15.937  0.00  0.00    +0.000 OA
ATOM     16  C   UNL     1       7.483   5.866  17.133  0.00  0.00    +0.000 C 
ATOM     17  C   UNL     1       6.787   5.109  18.252  0.00  0.00    +0.000 C 
ENDBRANCH  10  12
BRANCH   4  18
ATOM     18  C   UNL     1       1.430   6.921  20.815  0.00  0.00    +0.000 C 
BRANCH  18  19
ATOM     19  C   UNL     1       1.624   8.000  19.761  0.00  0.00    +0.000 A 
ATOM     20  C   UNL     1       2.174   7.650  18.507  0.00  0.00    +0.000 A 
ATOM     21  C   UNL     1       2.322   8.586  17.487  0.00  0.00    +0.000 A 
ATOM     22  C   UNL     1       1.969   9.906  17.712  0.00  0.00    +0.000 A 
ATOM     23  C   UNL     1       1.467  10.286  18.958  0.00  0.00    +0.000 A 
ATOM     24  C   UNL     1       1.252   9.358  20.006  0.00  0.00    +0.000 A 
BRANCH  24  25
ATOM     25  C   UNL     1       0.571   9.830  21.247  0.00  0.00    +0.000 A 
ATOM     26  C   UNL     1      -0.490  10.740  21.187  0.00  0.00    +0.000 A 
ATOM     27  C   UNL     1      -1.177  11.074  22.342  0.00  0.00    +0.000 A 
ATOM     28  N   UNL     1      -0.869  10.560  23.546  0.00  0.00    +0.000 NA
ATOM     29  N   UNL     1       0.191   9.731  23.647  0.00  0.00    +0.000 NA
ATOM     30  C   UNL     1       0.894   9.410  22.533  0.00  0.00    +0.000 A 
ENDBRANCH  24  25
ENDBRANCH  18  19
ENDBRANCH   4  18
TORSDOF 4
ENDMDL
MODEL 5
REMARK VINA RESULT:      -8.2      3.693      7.443
REMARK  Name = 
REMARK  4 active torsions:
REMARK  status: ('A' for Active; 'I' for Inactive)
REMARK    1  A    between atoms: C_4  and  C_5
REMARK    2  A    between atoms: C_5  and  C_6
REMARK    3  A    between atoms: C_11  and  C_12
REMARK    4  A    between atoms: N_23  and  C_24
REMARK                            x       y       z     vdW  Elec       q    Type
REMARK                         _______ _______ _______ _____ _____    ______ ____
ROOT
ATOM      1  O   UNL     1       1.781   5.771  21.320  0.00  0.00    +0.000 OA
ATOM      2  C   UNL     1       1.909   6.607  20.436  0.00  0.00    +0.000 A 
ATOM      3  N   UNL     1       2.679   6.386  19.305  0.00  0.00    +0.000 N 
ATOM      4  C   UNL     1       2.840   7.324  18.295  0.00  0.00    +0.000 A 
ATOM      5  N   UNL     1       2.306   8.516  18.305  0.00  0.00    +0.000 NA
ATOM      6  C   UNL     1       1.542   8.756  19.393  0.00  0.00    +0.000 A 
ATOM      7  C   UNL     1       1.294   7.900  20.438  0.00  0.00    +0.000 A 
ATOM      8  C   UNL     1       0.436   8.590  21.297  0.00  0.00    +0.000 A 
ATOM      9  N   UNL     1       0.155   9.820  20.844  0.00  0.00    +0.000 NA
ATOM     10  N   UNL     1       0.844   9.904  19.674  0.00  0.00    +0.000 N 
ATOM     11  H   UNL     1       3.137   5.491  19.260  0.00  0.00    +0.000 HD
ENDROOT
BRANCH  10  12
ATOM     12  C   UNL     1       0.809  11.146  18.910  0.00  0.00    +0.000 C 
ATOM     13  C   UNL     1       1.829  12.179  19.401  0.00  0.00    +0.000 C 
ATOM     14  C   UNL     1       1.686  13.475  18.618  0.00  0.00    +0.000 C 
ATOM     15  O   UNL     1       0.346  13.960  18.685  0.00  0.00    +0.000 OA
ATOM     16  C   UNL     1      -0.586  13.058  18.094  0.00  0.00    +0.000 C 
ATOM     17  C   UNL     1      -0.603  11.737  18.844  0.00  0.00    +0.000 C 
ENDBRANCH  10  12
BRANCH   4  18
ATOM     18  C   UNL     1       3.675   6.883  17.116  0.00  0.00    +0.000 C 
BRANCH  18  19
ATOM     19  C   UNL     1       5.088   6.401  17.405  0.00  0.00    +0.000 A 
ATOM     20  C   UNL     1       6.156   7.325  17.357  0.00  0.00    +0.000 A 
ATOM     21  C   UNL     1       7.461   6.951  17.667  0.00  0.00    +0.000 A 
ATOM     22  C   UNL     1       7.738   5.632  17.986  0.00  0.00    +0.000 A 
ATOM     23  C   UNL     1       6.707   4.691  17.996  0.00  0.00    +0.000 A 
ATOM     24  C   UNL     1       5.359   5.038  17.737  0.00  0.00    +0.000 A 
BRANCH  24  25
ATOM     25  C   UNL     1       4.307   3.994  17.919  0.00  0.00    +0.000 A 
ATOM     26  C   UNL     1       4.216   3.261  19.108  0.00  0.00    +0.000 A 
ATOM     27  C   UNL     1       3.164   2.380  19.293  0.00  0.00    +0.000 A 
ATOM     28  N   UNL     1       2.205   2.188  18.371  0.00  0.00    +0.000 NA
ATOM     29  N   UNL     1       2.300   2.831  17.189  0.00  0.00    +0.000 NA
ATOM     30  C   UNL     1       3.337   3.678  16.974  0.00  0.00    +0.000 A 
ENDBRANCH  24  25
ENDBRANCH  18  19
ENDBRANCH   4  18
TORSDOF 4
ENDMDL
MODEL 6
REMARK VINA RESULT:      -8.1      4.318      8.282
REMARK  Name = 
REMARK  4 active torsions:
REMARK  status: ('A' for Active; 'I' for Inactive)
REMARK    1  A    between atoms: C_4  and  C_5
REMARK    2  A    between atoms: C_5  and  C_6
REMARK    3  A    between atoms: C_11  and  C_12
REMARK    4  A    between atoms: N_23  and  C_24
REMARK                            x       y       z     vdW  Elec       q    Type
REMARK                         _______ _______ _______ _____ _____    ______ ____
ROOT
ATOM      1  O   UNL     1       1.765   9.392  23.023  0.00  0.00    +0.000 OA
ATOM      2  C   UNL     1       1.417   9.327  21.851  0.00  0.00    +0.000 A 
ATOM      3  N   UNL     1       2.061   8.522  20.925  0.00  0.00    +0.000 N 
ATOM      4  C   UNL     1       1.683   8.440  19.592  0.00  0.00    +0.000 A 
ATOM      5  N   UNL     1       0.704   9.121  19.060  0.00  0.00    +0.000 NA
ATOM      6  C   UNL     1       0.053   9.909  19.944  0.00  0.00    +0.000 A 
ATOM      7  C   UNL     1       0.321  10.052  21.283  0.00  0.00    +0.000 A 
ATOM      8  C   UNL     1      -0.632  10.951  21.765  0.00  0.00    +0.000 A 
ATOM      9  N   UNL     1      -1.459  11.373  20.798  0.00  0.00    +0.000 NA
ATOM     10  N   UNL     1      -1.022  10.723  19.686  0.00  0.00    +0.000 N 
ATOM     11  H   UNL     1       2.843   7.996  21.276  0.00  0.00    +0.000 HD
ENDROOT
BRANCH  10  12
ATOM     12  C   UNL     1      -1.672  10.979  18.405  0.00  0.00    +0.000 C 
ATOM     13  C   UNL     1      -3.120  11.457  18.555  0.00  0.00    +0.000 C 
ATOM     14  C   UNL     1      -3.763  11.629  17.187  0.00  0.00    +0.000 C 
ATOM     15  O   UNL     1      -3.662  10.426  16.427  0.00  0.00    +0.000 OA
ATOM     16  C   UNL     1      -2.309  10.062  16.165  0.00  0.00    +0.000 C 
ATOM     17  C   UNL     1      -1.569   9.777  17.462  0.00  0.00    +0.000 C 
ENDBRANCH  10  12
BRANCH   4  18
ATOM     18  C   UNL     1       2.472   7.469  18.745  0.00  0.00    +0.000 C 
BRANCH  18  19
ATOM     19  C   UNL     1       2.656   6.061  19.290  0.00  0.00    +0.000 A 
ATOM     20  C   UNL     1       1.632   5.485  20.076  0.00  0.00    +0.000 A 
ATOM     21  C   UNL     1       1.724   4.180  20.554  0.00  0.00    +0.000 A 
ATOM     22  C   UNL     1       2.862   3.435  20.298  0.00  0.00    +0.000 A 
ATOM     23  C   UNL     1       3.907   3.998  19.562  0.00  0.00    +0.000 A 
ATOM     24  C   UNL     1       3.835   5.302  19.014  0.00  0.00    +0.000 A 
BRANCH  24  25
ATOM     25  C   UNL     1       4.936   5.759  18.117  0.00  0.00    +0.000 A 
ATOM     26  C   UNL     1       6.240   5.920  18.598  0.00  0.00    +0.000 A 
ATOM     27  C   UNL     1       7.264   6.235  17.720  0.00  0.00    +0.000 A 
ATOM     28  N   UNL     1       7.065   6.400  16.401  0.00  0.00    +0.000 NA
ATOM     29  N   UNL     1       5.809   6.317  15.916  0.00  0.00    +0.000 NA
ATOM     30  C   UNL     1       4.787   6.035  16.761  0.00  0.00    +0.000 A 
ENDBRANCH  24  25
ENDBRANCH  18  19
ENDBRANCH   4  18
TORSDOF 4
ENDMDL
MODEL 7
REMARK VINA RESULT:      -7.9      7.473     11.617
REMARK  Name = 
REMARK  4 active torsions:
REMARK  status: ('A' for Active; 'I' for Inactive)
REMARK    1  A    between atoms: C_4  and  C_5
REMARK    2  A    between atoms: C_5  and  C_6
REMARK    3  A    between atoms: C_11  and  C_12
REMARK    4  A    between atoms: N_23  and  C_24
REMARK                            x       y       z     vdW  Elec       q    Type
REMARK                         _______ _______ _______ _____ _____    ______ ____
ROOT
ATOM      1  O   UNL     1      -3.346  10.769  15.103  0.00  0.00    +0.000 OA
ATOM      2  C   UNL     1      -3.097  11.117  16.249  0.00  0.00    +0.000 A 
ATOM      3  N   UNL     1      -1.805  11.174  16.748  0.00  0.00    +0.000 N 
ATOM      4  C   UNL     1      -1.504  11.561  18.047  0.00  0.00    +0.000 A 
ATOM      5  N   UNL     1      -2.394  11.892  18.942  0.00  0.00    +0.000 NA
ATOM      6  C   UNL     1      -3.664  11.853  18.480  0.00  0.00    +0.000 A 
ATOM      7  C   UNL     1      -4.077  11.510  17.216  0.00  0.00    +0.000 A 
ATOM      8  C   UNL     1      -5.466  11.646  17.222  0.00  0.00    +0.000 A 
ATOM      9  N   UNL     1      -5.927  12.041  18.418  0.00  0.00    +0.000 NA
ATOM     10  N   UNL     1      -4.805  12.162  19.178  0.00  0.00    +0.000 N 
ATOM     11  H   UNL     1      -1.079  10.901  16.106  0.00  0.00    +0.000 HD
ENDROOT
BRANCH  10  12
ATOM     12  C   UNL     1      -4.929  12.538  20.582  0.00  0.00    +0.000 C 
ATOM     13  C   UNL     1      -6.334  12.299  21.143  0.00  0.00    +0.000 C 
ATOM     14  C   UNL     1      -6.417  12.785  22.582  0.00  0.00    +0.000 C 
ATOM     15  O   UNL     1      -6.019  14.151  22.678  0.00  0.00    +0.000 OA
ATOM     16  C   UNL     1      -4.660  14.348  22.291  0.00  0.00    +0.000 C 
ATOM     17  C   UNL     1      -4.459  13.975  20.832  0.00  0.00    +0.000 C 
ENDBRANCH  10  12
BRANCH   4  18
ATOM     18  C   UNL     1      -0.034  11.610  18.393  0.00  0.00    +0.000 C 
BRANCH  18  19
ATOM     19  C   UNL     1       0.601  10.333  18.921  0.00  0.00    +0.000 A 
ATOM     20  C   UNL     1       1.233   9.451  18.015  0.00  0.00    +0.000 A 
ATOM     21  C   UNL     1       1.879   8.296  18.449  0.00  0.00    +0.000 A 
ATOM     22  C   UNL     1       1.866   7.969  19.795  0.00  0.00    +0.000 A 
ATOM     23  C   UNL     1       1.209   8.801  20.703  0.00  0.00    +0.000 A 
ATOM     24  C   UNL     1       0.584  10.010  20.312  0.00  0.00    +0.000 A 
BRANCH  24  25
ATOM     25  C   UNL     1       0.039  10.906  21.374  0.00  0.00    +0.000 A 
ATOM     26  C   UNL     1       0.225  12.292  21.315  0.00  0.00    +0.000 A 
ATOM     27  C   UNL     1      -0.387  13.108  22.252  0.00  0.00    +0.000 A 
ATOM     28  N   UNL     1      -1.167  12.629  23.237  0.00  0.00    +0.000 NA
ATOM     29  N   UNL     1      -1.312  11.293  23.359  0.00  0.00    +0.000 NA
ATOM     30  C   UNL     1      -0.701  10.472  22.470  0.00  0.00    +0.000 A 
ENDBRANCH  24  25
ENDBRANCH  18  19
ENDBRANCH   4  18
TORSDOF 4
ENDMDL
MODEL 8
REMARK VINA RESULT:      -7.9      2.569      7.026
REMARK  Name = 
REMARK  4 active torsions:
REMARK  status: ('A' for Active; 'I' for Inactive)
REMARK    1  A    between atoms: C_4  and  C_5
REMARK    2  A    between atoms: C_5  and  C_6
REMARK    3  A    between atoms: C_11  and  C_12
REMARK    4  A    between atoms: N_23  and  C_24
REMARK                            x       y       z     vdW  Elec       q    Type
REMARK                         _______ _______ _______ _____ _____    ______ ____
ROOT
ATOM      1  O   UNL     1       3.662   1.512  20.642  0.00  0.00    +0.000 OA
ATOM      2  C   UNL     1       3.919   2.632  20.222  0.00  0.00    +0.000 A 
ATOM      3  N   UNL     1       5.136   2.949  19.639  0.00  0.00    +0.000 N 
ATOM      4  C   UNL     1       5.447   4.215  19.162  0.00  0.00    +0.000 A 
ATOM      5  N   UNL     1       4.647   5.244  19.228  0.00  0.00    +0.000 NA
ATOM      6  C   UNL     1       3.449   4.961  19.785  0.00  0.00    +0.000 A 
ATOM      7  C   UNL     1       3.024   3.748  20.268  0.00  0.00    +0.000 A 
ATOM      8  C   UNL     1       1.718   3.955  20.716  0.00  0.00    +0.000 A 
ATOM      9  N   UNL     1       1.325   5.226  20.546  0.00  0.00    +0.000 NA
ATOM     10  N   UNL     1       2.402   5.829  19.974  0.00  0.00    +0.000 N 
ATOM     11  H   UNL     1       5.803   2.197  19.589  0.00  0.00    +0.000 HD
ENDROOT
BRANCH  10  12
ATOM     12  C   UNL     1       2.351   7.257  19.682  0.00  0.00    +0.000 C 
ATOM     13  C   UNL     1       1.290   7.998  20.503  0.00  0.00    +0.000 C 
ATOM     14  C   UNL     1       1.235   9.462  20.094  0.00  0.00    +0.000 C 
ATOM     15  O   UNL     1       1.020   9.586  18.689  0.00  0.00    +0.000 OA
ATOM     16  C   UNL     1       2.085   9.022  17.927  0.00  0.00    +0.000 C 
ATOM     17  C   UNL     1       2.195   7.529  18.182  0.00  0.00    +0.000 C 
ENDBRANCH  10  12
BRANCH   4  18
ATOM     18  C   UNL     1       6.803   4.356  18.512  0.00  0.00    +0.000 C 
BRANCH  18  19
ATOM     19  C   UNL     1       7.273   5.764  18.180  0.00  0.00    +0.000 A 
ATOM     20  C   UNL     1       7.908   6.534  19.181  0.00  0.00    +0.000 A 
ATOM     21  C   UNL     1       8.408   7.807  18.916  0.00  0.00    +0.000 A 
ATOM     22  C   UNL     1       8.242   8.360  17.658  0.00  0.00    +0.000 A 
ATOM     23  C   UNL     1       7.579   7.637  16.665  0.00  0.00    +0.000 A 
ATOM     24  C   UNL     1       7.100   6.321  16.876  0.00  0.00    +0.000 A 
BRANCH  24  25
ATOM     25  C   UNL     1       6.539   5.572  15.712  0.00  0.00    +0.000 A 
ATOM     26  C   UNL     1       7.369   5.104  14.687  0.00  0.00    +0.000 A 
ATOM     27  C   UNL     1       6.839   4.316  13.679  0.00  0.00    +0.000 A 
ATOM     28  N   UNL     1       5.541   3.972  13.631  0.00  0.00    +0.000 NA
ATOM     29  N   UNL     1       4.703   4.461  14.568  0.00  0.00    +0.000 NA
ATOM     30  C   UNL     1       5.194   5.256  15.551  0.00  0.00    +0.000 A 
ENDBRANCH  24  25
ENDBRANCH  18  19
ENDBRANCH   4  18
TORSDOF 4
ENDMDL
MODEL 9
REMARK VINA RESULT:      -7.8      4.239      8.031
REMARK  Name = 
REMARK  4 active torsions:
REMARK  status: ('A' for Active; 'I' for Inactive)
REMARK    1  A    between atoms: C_4  and  C_5
REMARK    2  A    between atoms: C_5  and  C_6
REMARK    3  A    between atoms: C_11  and  C_12
REMARK    4  A    between atoms: N_23  and  C_24
REMARK                            x       y       z     vdW  Elec       q    Type
REMARK                         _______ _______ _______ _____ _____    ______ ____
ROOT
ATOM      1  O   UNL     1       1.693   9.352  23.158  0.00  0.00    +0.000 OA
ATOM      2  C   UNL     1       1.425   9.154  21.981  0.00  0.00    +0.000 A 
ATOM      3  N   UNL     1       2.116   8.240  21.202  0.00  0.00    +0.000 N 
ATOM      4  C   UNL     1       1.829   8.005  19.864  0.00  0.00    +0.000 A 
ATOM      5  N   UNL     1       0.900   8.627  19.190  0.00  0.00    +0.000 NA
ATOM      6  C   UNL     1       0.204   9.519  19.929  0.00  0.00    +0.000 A 
ATOM      7  C   UNL     1       0.382   9.816  21.257  0.00  0.00    +0.000 A 
ATOM      8  C   UNL     1      -0.586  10.773  21.564  0.00  0.00    +0.000 A 
ATOM      9  N   UNL     1      -1.338  11.086  20.500  0.00  0.00    +0.000 NA
ATOM     10  N   UNL     1      -0.837  10.307  19.503  0.00  0.00    +0.000 N 
ATOM     11  H   UNL     1       2.864   7.751  21.666  0.00  0.00    +0.000 HD
ENDROOT
BRANCH  10  12
ATOM     12  C   UNL     1      -1.394  10.417  18.160  0.00  0.00    +0.000 C 
ATOM     13  C   UNL     1      -1.653  11.867  17.737  0.00  0.00    +0.000 C 
ATOM     14  C   UNL     1      -2.306  11.907  16.364  0.00  0.00    +0.000 C 
ATOM     15  O   UNL     1      -3.492  11.114  16.344  0.00  0.00    +0.000 OA
ATOM     16  C   UNL     1      -3.226   9.736  16.595  0.00  0.00    +0.000 C 
ATOM     17  C   UNL     1      -2.643   9.547  17.986  0.00  0.00    +0.000 C 
ENDBRANCH  10  12
BRANCH   4  18
ATOM     18  C   UNL     1       2.657   6.934  19.193  0.00  0.00    +0.000 C 
BRANCH  18  19
ATOM     19  C   UNL     1       2.507   5.512  19.711  0.00  0.00    +0.000 A 
ATOM     20  C   UNL     1       1.318   5.142  20.379  0.00  0.00    +0.000 A 
ATOM     21  C   UNL     1       1.104   3.840  20.824  0.00  0.00    +0.000 A 
ATOM     22  C   UNL     1       2.095   2.887  20.656  0.00  0.00    +0.000 A 
ATOM     23  C   UNL     1       3.297   3.240  20.039  0.00  0.00    +0.000 A 
ATOM     24  C   UNL     1       3.536   4.538  19.527  0.00  0.00    +0.000 A 
BRANCH  24  25
ATOM     25  C   UNL     1       4.789   4.778  18.751  0.00  0.00    +0.000 A 
ATOM     26  C   UNL     1       4.845   4.531  17.375  0.00  0.00    +0.000 A 
ATOM     27  C   UNL     1       5.983   4.869  16.662  0.00  0.00    +0.000 A 
ATOM     28  N   UNL     1       7.060   5.433  17.234  0.00  0.00    +0.000 NA
ATOM     29  N   UNL     1       7.062   5.624  18.570  0.00  0.00    +0.000 NA
ATOM     30  C   UNL     1       5.969   5.276  19.294  0.00  0.00    +0.000 A 
ENDBRANCH  24  25
ENDBRANCH  18  19
ENDBRANCH   4  18
TORSDOF 4
ENDMDL
