MODEL 1
REMARK VINA RESULT:      -7.0      0.000      0.000
REMARK  Name = 
REMARK  11 active torsions:
REMARK  status: ('A' for Active; 'I' for Inactive)
REMARK    1  A    between atoms: C_1  and  N_2
REMARK    2  A    between atoms: N_5  and  C_6
REMARK    3  A    between atoms: C_6  and  C_7
REMARK    4  A    between atoms: C_7  and  C_8
REMARK    5  A    between atoms: C_8  and  N_9
REMARK    6  A    between atoms: N_9  and  C_10
REMARK    7  A    between atoms: C_10  and  C_11
REMARK    8  A    between atoms: C_17  and  C_19
REMARK    9  A    between atoms: C_19  and  N_20
REMARK   10  A    between atoms: C_19  and  C_21
REMARK   11  A    between atoms: C_21  and  C_22
REMARK                            x       y       z     vdW  Elec       q    Type
REMARK                         _______ _______ _______ _____ _____    ______ ____
ROOT
ATOM      1  N   UNL     1       6.622   6.341  16.950  0.00  0.00    +0.000 N 
ATOM      2  C   UNL     1       6.815   5.031  16.509  0.00  0.00    +0.000 C 
ATOM      3  O   UNL     1       7.905   4.469  16.659  0.00  0.00    +0.000 OA
ENDROOT
BRANCH   1   4
ATOM      4  C   UNL     1       7.708   6.990  17.713  0.00  0.00    +0.000 C 
BRANCH   4   5
ATOM      5  C   UNL     1       7.593   8.520  17.681  0.00  0.00    +0.000 C 
BRANCH   5   6
ATOM      6  C   UNL     1       8.792   9.250  18.320  0.00  0.00    +0.000 C 
BRANCH   6  11
ATOM      7  C   UNL     1      12.312  12.585  18.472  0.00  0.00    +0.000 C 
ATOM      8  N   UNL     1      10.914  12.328  18.804  0.00  0.00    +0.000 NA
ATOM      9  C   UNL     1      10.794  11.225  19.772  0.00  0.00    +0.000 C 
ATOM     10  C   UNL     1       9.317  10.895  20.090  0.00  0.00    +0.000 C 
ATOM     11  N   UNL     1       8.487  10.562  18.914  0.00  0.00    +0.000 NA
ATOM     12  C   UNL     1       8.652  11.657  17.924  0.00  0.00    +0.000 C 
ATOM     13  C   UNL     1      10.122  12.037  17.596  0.00  0.00    +0.000 C 
ENDBRANCH   6  11
ENDBRANCH   5   6
ENDBRANCH   4   5
ENDBRANCH   1   4
BRANCH   1  14
ATOM     14  C   UNL     1       5.407   7.133  16.739  0.00  0.00    +0.000 C 
BRANCH  14  15
ATOM     15  C   UNL     1       4.339   6.985  17.805  0.00  0.00    +0.000 A 
ATOM     16  C   UNL     1       4.450   6.107  18.894  0.00  0.00    +0.000 A 
ATOM     17  C   UNL     1       3.425   6.000  19.838  0.00  0.00    +0.000 A 
ATOM     18  C   UNL     1       2.261   6.750  19.694  0.00  0.00    +0.000 A 
ATOM     19  C   UNL     1       2.131   7.628  18.622  0.00  0.00    +0.000 A 
ATOM     20  C   UNL     1       3.166   7.754  17.692  0.00  0.00    +0.000 A 
ENDBRANCH  14  15
ENDBRANCH   1  14
BRANCH   2  21
ATOM     21  C   UNL     1       5.668   4.309  15.739  0.00  0.00    +0.000 C 
BRANCH  21  22
ATOM     22  N   UNL     1       6.098   4.024  14.350  0.00  0.00    +0.000 NA
ATOM     23  H   UNL     1       6.160   4.912  13.847  0.00  0.00    +0.000 HD
ATOM     24  H   UNL     1       5.379   3.483  13.871  0.00  0.00    +0.000 HD
ENDBRANCH  21  22
BRANCH  21  25
ATOM     25  C   UNL     1       5.314   2.966  16.406  0.00  0.00    +0.000 C 
BRANCH  25  26
ATOM     26  C   UNL     1       4.075   3.019  17.275  0.00  0.00    +0.000 A 
ATOM     27  C   UNL     1       2.923   3.701  16.857  0.00  0.00    +0.000 A 
ATOM     28  C   UNL     1       1.789   3.735  17.670  0.00  0.00    +0.000 A 
ATOM     29  C   UNL     1       1.797   3.079  18.899  0.00  0.00    +0.000 A 
ATOM     30 CL   UNL     1       0.394   3.113  19.896  0.00  0.00    +0.000 Cl
ATOM     31  C   UNL     1       2.930   2.393  19.326  0.00  0.00    +0.000 A 
ATOM     32  C   UNL     1       4.067   2.366  18.515  0.00  0.00    +0.000 A 
ENDBRANCH  25  26
ENDBRANCH  21  25
ENDBRANCH   2  21
TORSDOF 10
ENDMDL
MODEL 2
REMARK VINA RESULT:      -6.7      0.828      1.357
REMARK  Name = 
REMARK  11 active torsions:
REMARK  status: ('A' for Active; 'I' for Inactive)
REMARK    1  A    between atoms: C_1  and  N_2
REMARK    2  A    between atoms: N_5  and  C_6
REMARK    3  A    between atoms: C_6  and  C_7
REMARK    4  A    between atoms: C_7  and  C_8
REMARK    5  A    between atoms: C_8  and  N_9
REMARK    6  A    between atoms: N_9  and  C_10
REMARK    7  A    between atoms: C_10  and  C_11
REMARK    8  A    between atoms: C_17  and  C_19
REMARK    9  A    between atoms: C_19  and  N_20
REMARK   10  A    between atoms: C_19  and  C_21
REMARK   11  A    between atoms: C_21  and  C_22
REMARK                            x       y       z     vdW  Elec       q    Type
REMARK                         _______ _______ _______ _____ _____    ______ ____
ROOT
ATOM      1  N   UNL     1       6.564   6.261  17.097  0.00  0.00    +0.000 N 
ATOM      2  C   UNL     1       6.840   4.946  16.721  0.00  0.00    +0.000 C 
ATOM      3  O   UNL     1       7.922   4.422  17.005  0.00  0.00    +0.000 OA
ENDROOT
BRANCH   1   4
ATOM      4  C   UNL     1       7.541   6.964  17.953  0.00  0.00    +0.000 C 
BRANCH   4   5
ATOM      5  C   UNL     1       8.019   8.276  17.315  0.00  0.00    +0.000 C 
BRANCH   5   6
ATOM      6  C   UNL     1       8.074   9.464  18.298  0.00  0.00    +0.000 C 
BRANCH   6  11
ATOM      7  C   UNL     1       8.505  14.034  19.869  0.00  0.00    +0.000 C 
ATOM      8  N   UNL     1       9.252  12.823  19.537  0.00  0.00    +0.000 NA
ATOM      9  C   UNL     1       9.072  12.462  18.121  0.00  0.00    +0.000 C 
ATOM     10  C   UNL     1       9.805  11.148  17.764  0.00  0.00    +0.000 C 
ATOM     11  N   UNL     1       9.423   9.980  18.586  0.00  0.00    +0.000 NA
ATOM     12  C   UNL     1       9.562  10.370  20.012  0.00  0.00    +0.000 C 
ATOM     13  C   UNL     1       8.861  11.699  20.406  0.00  0.00    +0.000 C 
ENDBRANCH   6  11
ENDBRANCH   5   6
ENDBRANCH   4   5
ENDBRANCH   1   4
BRANCH   1  14
ATOM     14  C   UNL     1       5.358   7.009  16.731  0.00  0.00    +0.000 C 
BRANCH  14  15
ATOM     15  C   UNL     1       4.263   7.035  17.780  0.00  0.00    +0.000 A 
ATOM     16  C   UNL     1       4.260   6.209  18.914  0.00  0.00    +0.000 A 
ATOM     17  C   UNL     1       3.215   6.264  19.840  0.00  0.00    +0.000 A 
ATOM     18  C   UNL     1       2.142   7.127  19.633  0.00  0.00    +0.000 A 
ATOM     19  C   UNL     1       2.127   7.957  18.516  0.00  0.00    +0.000 A 
ATOM     20  C   UNL     1       3.184   7.919  17.602  0.00  0.00    +0.000 A 
ENDBRANCH  14  15
ENDBRANCH   1  14
BRANCH   2  21
ATOM     21  C   UNL     1       5.804   4.168  15.853  0.00  0.00    +0.000 C 
BRANCH  21  22
ATOM     22  N   UNL     1       6.408   3.813  14.548  0.00  0.00    +0.000 NA
ATOM     23  H   UNL     1       6.159   4.538  13.873  0.00  0.00    +0.000 HD
ATOM     24  H   UNL     1       5.991   2.951  14.198  0.00  0.00    +0.000 HD
ENDBRANCH  21  22
BRANCH  21  25
ATOM     25  C   UNL     1       5.376   2.859  16.545  0.00  0.00    +0.000 C 
BRANCH  25  26
ATOM     26  C   UNL     1       4.148   3.000  17.420  0.00  0.00    +0.000 A 
ATOM     27  C   UNL     1       2.971   3.584  16.931  0.00  0.00    +0.000 A 
ATOM     28  C   UNL     1       1.848   3.701  17.752  0.00  0.00    +0.000 A 
ATOM     29  C   UNL     1       1.892   3.225  19.061  0.00  0.00    +0.000 A 
ATOM     30 CL   UNL     1       0.503   3.360  20.068  0.00  0.00    +0.000 Cl
ATOM     31  C   UNL     1       3.051   2.638  19.559  0.00  0.00    +0.000 A 
ATOM     32  C   UNL     1       4.177   2.528  18.740  0.00  0.00    +0.000 A 
ENDBRANCH  25  26
ENDBRANCH  21  25
ENDBRANCH   2  21
TORSDOF 10
ENDMDL
MODEL 3
REMARK VINA RESULT:      -6.5      3.985      7.277
REMARK  Name = 
REMARK  11 active torsions:
REMARK  status: ('A' for Active; 'I' for Inactive)
REMARK    1  A    between atoms: C_1  and  N_2
REMARK    2  A    between atoms: N_5  and  C_6
REMARK    3  A    between atoms: C_6  and  C_7
REMARK    4  A    between atoms: C_7  and  C_8
REMARK    5  A    between atoms: C_8  and  N_9
REMARK    6  A    between atoms: N_9  and  C_10
REMARK    7  A    between atoms: C_10  and  C_11
REMARK    8  A    between atoms: C_17  and  C_19
REMARK    9  A    between atoms: C_19  and  N_20
REMARK   10  A    between atoms: C_19  and  C_21
REMARK   11  A    between atoms: C_21  and  C_22
REMARK                            x       y       z     vdW  Elec       q    Type
REMARK                         _______ _______ _______ _____ _____    ______ ____
ROOT
ATOM      1  N   UNL     1       2.379   7.030  19.506  0.00  0.00    +0.000 N 
ATOM      2  C   UNL     1       2.083   8.244  18.885  0.00  0.00    +0.000 C 
ATOM      3  O   UNL     1       2.833   8.711  18.021  0.00  0.00    +0.000 OA
ENDROOT
BRANCH   1   4
ATOM      4  C   UNL     1       3.537   6.256  19.013  0.00  0.00    +0.000 C 
BRANCH   4   5
ATOM      5  C   UNL     1       3.244   5.584  17.665  0.00  0.00    +0.000 C 
BRANCH   5   6
ATOM      6  C   UNL     1       4.253   4.481  17.284  0.00  0.00    +0.000 C 
BRANCH   6  11
ATOM      7  C   UNL     1       8.069   7.373  18.069  0.00  0.00    +0.000 C 
ATOM      8  N   UNL     1       7.366   6.595  17.052  0.00  0.00    +0.000 NA
ATOM      9  C   UNL     1       5.993   7.092  16.863  0.00  0.00    +0.000 C 
ATOM     10  C   UNL     1       5.209   6.242  15.835  0.00  0.00    +0.000 C 
ATOM     11  N   UNL     1       5.134   4.800  16.149  0.00  0.00    +0.000 NA
ATOM     12  C   UNL     1       6.520   4.319  16.385  0.00  0.00    +0.000 C 
ATOM     13  C   UNL     1       7.349   5.162  17.392  0.00  0.00    +0.000 C 
ENDBRANCH   6  11
ENDBRANCH   5   6
ENDBRANCH   4   5
ENDBRANCH   1   4
BRANCH   1  14
ATOM     14  C   UNL     1       1.616   6.434  20.605  0.00  0.00    +0.000 C 
BRANCH  14  15
ATOM     15  C   UNL     1       1.635   4.920  20.667  0.00  0.00    +0.000 A 
ATOM     16  C   UNL     1       2.439   4.193  21.559  0.00  0.00    +0.000 A 
ATOM     17  C   UNL     1       2.428   2.796  21.561  0.00  0.00    +0.000 A 
ATOM     18  C   UNL     1       1.632   2.101  20.653  0.00  0.00    +0.000 A 
ATOM     19  C   UNL     1       0.825   2.803  19.762  0.00  0.00    +0.000 A 
ATOM     20  C   UNL     1       0.817   4.200  19.777  0.00  0.00    +0.000 A 
ENDBRANCH  14  15
ENDBRANCH   1  14
BRANCH   2  21
ATOM     21  C   UNL     1       0.841   9.060  19.359  0.00  0.00    +0.000 C 
BRANCH  21  22
ATOM     22  N   UNL     1       1.098   9.631  20.702  0.00  0.00    +0.000 NA
ATOM     23  H   UNL     1       0.643  10.544  20.752  0.00  0.00    +0.000 HD
ATOM     24  H   UNL     1       2.095   9.810  20.815  0.00  0.00    +0.000 HD
ENDBRANCH  21  22
BRANCH  21  25
ATOM     25  C   UNL     1       0.549  10.229  18.399  0.00  0.00    +0.000 C 
BRANCH  25  26
ATOM     26  C   UNL     1      -0.927  10.480  18.169  0.00  0.00    +0.000 A 
ATOM     27  C   UNL     1      -1.649   9.744  17.219  0.00  0.00    +0.000 A 
ATOM     28  C   UNL     1      -3.010   9.988  17.025  0.00  0.00    +0.000 A 
ATOM     29  C   UNL     1      -3.658  10.959  17.786  0.00  0.00    +0.000 A 
ATOM     30 CL   UNL     1      -5.338  11.249  17.552  0.00  0.00    +0.000 Cl
ATOM     31  C   UNL     1      -2.955  11.694  18.736  0.00  0.00    +0.000 A 
ATOM     32  C   UNL     1      -1.592  11.456  18.926  0.00  0.00    +0.000 A 
ENDBRANCH  25  26
ENDBRANCH  21  25
ENDBRANCH   2  21
TORSDOF 10
ENDMDL
MODEL 4
REMARK VINA RESULT:      -6.4      2.176      4.103
REMARK  Name = 
REMARK  11 active torsions:
REMARK  status: ('A' for Active; 'I' for Inactive)
REMARK    1  A    between atoms: C_1  and  N_2
REMARK    2  A    between atoms: N_5  and  C_6
REMARK    3  A    between atoms: C_6  and  C_7
REMARK    4  A    between atoms: C_7  and  C_8
REMARK    5  A    between atoms: C_8  and  N_9
REMARK    6  A    between atoms: N_9  and  C_10
REMARK    7  A    between atoms: C_10  and  C_11
REMARK    8  A    between atoms: C_17  and  C_19
REMARK    9  A    between atoms: C_19  and  N_20
REMARK   10  A    between atoms: C_19  and  C_21
REMARK   11  A    between atoms: C_21  and  C_22
REMARK                            x       y       z     vdW  Elec       q    Type
REMARK                         _______ _______ _______ _____ _____    ______ ____
ROOT
ATOM      1  N   UNL     1       6.343   6.270  17.956  0.00  0.00    +0.000 N 
ATOM      2  C   UNL     1       5.824   5.374  18.892  0.00  0.00    +0.000 C 
ATOM      3  O   UNL     1       6.465   5.079  19.906  0.00  0.00    +0.000 OA
ENDROOT
BRANCH   1   4
ATOM      4  C   UNL     1       7.615   6.952  18.270  0.00  0.00    +0.000 C 
BRANCH   4   5
ATOM      5  C   UNL     1       7.627   8.401  17.765  0.00  0.00    +0.000 C 
BRANCH   5   6
ATOM      6  C   UNL     1       8.836   9.222  18.256  0.00  0.00    +0.000 C 
BRANCH   6  11
ATOM      7  C   UNL     1      12.325  12.582  18.528  0.00  0.00    +0.000 C 
ATOM      8  N   UNL     1      10.923  12.310  18.828  0.00  0.00    +0.000 NA
ATOM      9  C   UNL     1      10.793  11.192  19.777  0.00  0.00    +0.000 C 
ATOM     10  C   UNL     1       9.312  10.845  20.061  0.00  0.00    +0.000 C 
ATOM     11  N   UNL     1       8.508  10.524  18.863  0.00  0.00    +0.000 NA
ATOM     12  C   UNL     1       8.684  11.635  17.893  0.00  0.00    +0.000 C 
ATOM     13  C   UNL     1      10.157  12.030  17.600  0.00  0.00    +0.000 C 
ENDBRANCH   6  11
ENDBRANCH   5   6
ENDBRANCH   4   5
ENDBRANCH   1   4
BRANCH   1  14
ATOM     14  C   UNL     1       5.714   6.616  16.679  0.00  0.00    +0.000 C 
BRANCH  14  15
ATOM     15  C   UNL     1       6.020   5.680  15.526  0.00  0.00    +0.000 A 
ATOM     16  C   UNL     1       7.234   5.692  14.822  0.00  0.00    +0.000 A 
ATOM     17  C   UNL     1       7.455   4.817  13.756  0.00  0.00    +0.000 A 
ATOM     18  C   UNL     1       6.456   3.932  13.358  0.00  0.00    +0.000 A 
ATOM     19  C   UNL     1       5.245   3.902  14.044  0.00  0.00    +0.000 A 
ATOM     20  C   UNL     1       5.033   4.761  15.126  0.00  0.00    +0.000 A 
ENDBRANCH  14  15
ENDBRANCH   1  14
BRANCH   2  21
ATOM     21  C   UNL     1       4.461   4.674  18.602  0.00  0.00    +0.000 C 
BRANCH  21  22
ATOM     22  N   UNL     1       4.638   3.203  18.621  0.00  0.00    +0.000 NA
ATOM     23  H   UNL     1       4.727   2.905  19.595  0.00  0.00    +0.000 HD
ATOM     24  H   UNL     1       5.520   2.957  18.173  0.00  0.00    +0.000 HD
ENDBRANCH  21  22
BRANCH  21  25
ATOM     25  C   UNL     1       3.415   5.035  19.675  0.00  0.00    +0.000 C 
BRANCH  25  26
ATOM     26  C   UNL     1       2.729   6.365  19.441  0.00  0.00    +0.000 A 
ATOM     27  C   UNL     1       2.124   7.065  20.494  0.00  0.00    +0.000 A 
ATOM     28  C   UNL     1       1.501   8.292  20.259  0.00  0.00    +0.000 A 
ATOM     29  C   UNL     1       1.491   8.831  18.973  0.00  0.00    +0.000 A 
ATOM     30 CL   UNL     1       0.731  10.349  18.688  0.00  0.00    +0.000 Cl
ATOM     31  C   UNL     1       2.092   8.150  17.919  0.00  0.00    +0.000 A 
ATOM     32  C   UNL     1       2.708   6.919  18.153  0.00  0.00    +0.000 A 
ENDBRANCH  25  26
ENDBRANCH  21  25
ENDBRANCH   2  21
TORSDOF 10
ENDMDL
MODEL 5
REMARK VINA RESULT:      -6.3      6.319      9.865
REMARK  Name = 
REMARK  11 active torsions:
REMARK  status: ('A' for Active; 'I' for Inactive)
REMARK    1  A    between atoms: C_1  and  N_2
REMARK    2  A    between atoms: N_5  and  C_6
REMARK    3  A    between atoms: C_6  and  C_7
REMARK    4  A    between atoms: C_7  and  C_8
REMARK    5  A    between atoms: C_8  and  N_9
REMARK    6  A    between atoms: N_9  and  C_10
REMARK    7  A    between atoms: C_10  and  C_11
REMARK    8  A    between atoms: C_17  and  C_19
REMARK    9  A    between atoms: C_19  and  N_20
REMARK   10  A    between atoms: C_19  and  C_21
REMARK   11  A    between atoms: C_21  and  C_22
REMARK                            x       y       z     vdW  Elec       q    Type
REMARK                         _______ _______ _______ _____ _____    ______ ____
ROOT
ATOM      1  N   UNL     1       0.202   9.909  18.223  0.00  0.00    +0.000 N 
ATOM      2  C   UNL     1      -0.998  10.316  17.640  0.00  0.00    +0.000 C 
ATOM      3  O   UNL     1      -1.481   9.693  16.689  0.00  0.00    +0.000 OA
ENDROOT
BRANCH   1   4
ATOM      4  C   UNL     1       0.812   8.645  17.761  0.00  0.00    +0.000 C 
BRANCH   4   5
ATOM      5  C   UNL     1       2.122   8.339  18.498  0.00  0.00    +0.000 C 
BRANCH   5   6
ATOM      6  C   UNL     1       2.610   6.886  18.327  0.00  0.00    +0.000 C 
BRANCH   6  11
ATOM      7  C   UNL     1       2.318   2.057  18.702  0.00  0.00    +0.000 C 
ATOM      8  N   UNL     1       2.768   3.270  19.381  0.00  0.00    +0.000 NA
ATOM      9  C   UNL     1       1.639   4.177  19.647  0.00  0.00    +0.000 C 
ATOM     10  C   UNL     1       2.102   5.495  20.309  0.00  0.00    +0.000 C 
ATOM     11  N   UNL     1       3.125   6.247  19.550  0.00  0.00    +0.000 NA
ATOM     12  C   UNL     1       4.237   5.310  19.246  0.00  0.00    +0.000 C 
ATOM     13  C   UNL     1       3.810   3.963  18.603  0.00  0.00    +0.000 C 
ENDBRANCH   6  11
ENDBRANCH   5   6
ENDBRANCH   4   5
ENDBRANCH   1   4
BRANCH   1  14
ATOM     14  C   UNL     1       0.911  10.625  19.287  0.00  0.00    +0.000 C 
BRANCH  14  15
ATOM     15  C   UNL     1       0.249  10.588  20.651  0.00  0.00    +0.000 A 
ATOM     16  C   UNL     1      -0.134  11.739  21.355  0.00  0.00    +0.000 A 
ATOM     17  C   UNL     1      -0.727  11.646  22.618  0.00  0.00    +0.000 A 
ATOM     18  C   UNL     1      -0.921  10.399  23.208  0.00  0.00    +0.000 A 
ATOM     19  C   UNL     1      -0.550   9.245  22.525  0.00  0.00    +0.000 A 
ATOM     20  C   UNL     1       0.019   9.337  21.253  0.00  0.00    +0.000 A 
ENDBRANCH  14  15
ENDBRANCH   1  14
BRANCH   2  21
ATOM     21  C   UNL     1      -1.684  11.624  18.141  0.00  0.00    +0.000 C 
BRANCH  21  22
ATOM     22  N   UNL     1      -1.160  12.785  17.385  0.00  0.00    +0.000 NA
ATOM     23  H   UNL     1      -1.388  12.653  16.397  0.00  0.00    +0.000 HD
ATOM     24  H   UNL     1      -0.142  12.799  17.436  0.00  0.00    +0.000 HD
ENDBRANCH  21  22
BRANCH  21  25
ATOM     25  C   UNL     1      -3.208  11.569  17.921  0.00  0.00    +0.000 C 
BRANCH  25  26
ATOM     26  C   UNL     1      -4.019  11.978  19.133  0.00  0.00    +0.000 A 
ATOM     27  C   UNL     1      -5.405  11.773  19.183  0.00  0.00    +0.000 A 
ATOM     28  C   UNL     1      -6.134  12.154  20.311  0.00  0.00    +0.000 A 
ATOM     29  C   UNL     1      -5.480  12.729  21.399  0.00  0.00    +0.000 A 
ATOM     30 CL   UNL     1      -6.379  13.187  22.793  0.00  0.00    +0.000 Cl
ATOM     31  C   UNL     1      -4.104  12.934  21.366  0.00  0.00    +0.000 A 
ATOM     32  C   UNL     1      -3.375  12.561  20.234  0.00  0.00    +0.000 A 
ENDBRANCH  25  26
ENDBRANCH  21  25
ENDBRANCH   2  21
TORSDOF 10
ENDMDL
MODEL 6
REMARK VINA RESULT:      -6.2      4.629      7.821
REMARK  Name = 
REMARK  11 active torsions:
REMARK  status: ('A' for Active; 'I' for Inactive)
REMARK    1  A    between atoms: C_1  and  N_2
REMARK    2  A    between atoms: N_5  and  C_6
REMARK    3  A    between atoms: C_6  and  C_7
REMARK    4  A    between atoms: C_7  and  C_8
REMARK    5  A    between atoms: C_8  and  N_9
REMARK    6  A    between atoms: N_9  and  C_10
REMARK    7  A    between atoms: C_10  and  C_11
REMARK    8  A    between atoms: C_17  and  C_19
REMARK    9  A    between atoms: C_19  and  N_20
REMARK   10  A    between atoms: C_19  and  C_21
REMARK   11  A    between atoms: C_21  and  C_22
REMARK                            x       y       z     vdW  Elec       q    Type
REMARK                         _______ _______ _______ _____ _____    ______ ____
ROOT
ATOM      1  N   UNL     1       2.192   7.161  19.440  0.00  0.00    +0.000 N 
ATOM      2  C   UNL     1       1.820   8.454  19.072  0.00  0.00    +0.000 C 
ATOM      3  O   UNL     1       2.339   9.008  18.097  0.00  0.00    +0.000 OA
ENDROOT
BRANCH   1   4
ATOM      4  C   UNL     1       3.122   6.424  18.560  0.00  0.00    +0.000 C 
BRANCH   4   5
ATOM      5  C   UNL     1       4.464   6.146  19.252  0.00  0.00    +0.000 C 
BRANCH   5   6
ATOM      6  C   UNL     1       5.644   5.968  18.276  0.00  0.00    +0.000 C 
BRANCH   6  11
ATOM      7  C   UNL     1       5.911   4.053  13.826  0.00  0.00    +0.000 C 
ATOM      8  N   UNL     1       6.161   3.793  15.241  0.00  0.00    +0.000 NA
ATOM      9  C   UNL     1       4.915   3.869  16.021  0.00  0.00    +0.000 C 
ATOM     10  C   UNL     1       5.167   3.658  17.533  0.00  0.00    +0.000 C 
ATOM     11  N   UNL     1       6.143   4.589  18.136  0.00  0.00    +0.000 NA
ATOM     12  C   UNL     1       7.379   4.540  17.314  0.00  0.00    +0.000 C 
ATOM     13  C   UNL     1       7.165   4.723  15.787  0.00  0.00    +0.000 C 
ENDBRANCH   6  11
ENDBRANCH   5   6
ENDBRANCH   4   5
ENDBRANCH   1   4
BRANCH   1  14
ATOM     14  C   UNL     1       1.714   6.449  20.628  0.00  0.00    +0.000 C 
BRANCH  14  15
ATOM     15  C   UNL     1       1.674   4.938  20.512  0.00  0.00    +0.000 A 
ATOM     16  C   UNL     1       1.027   4.261  19.467  0.00  0.00    +0.000 A 
ATOM     17  C   UNL     1       1.009   2.864  19.419  0.00  0.00    +0.000 A 
ATOM     18  C   UNL     1       1.614   2.122  20.430  0.00  0.00    +0.000 A 
ATOM     19  C   UNL     1       2.263   2.774  21.474  0.00  0.00    +0.000 A 
ATOM     20  C   UNL     1       2.303   4.171  21.509  0.00  0.00    +0.000 A 
ENDBRANCH  14  15
ENDBRANCH   1  14
BRANCH   2  21
ATOM     21  C   UNL     1       0.806   9.238  19.961  0.00  0.00    +0.000 C 
BRANCH  21  22
ATOM     22  N   UNL     1       1.365   9.417  21.321  0.00  0.00    +0.000 NA
ATOM     23  H   UNL     1       1.726  10.370  21.394  0.00  0.00    +0.000 HD
ATOM     24  H   UNL     1       2.169   8.804  21.447  0.00  0.00    +0.000 HD
ENDBRANCH  21  22
BRANCH  21  25
ATOM     25  C   UNL     1       0.527  10.637  19.379  0.00  0.00    +0.000 C 
BRANCH  25  26
ATOM     26  C   UNL     1      -0.870  10.801  18.817  0.00  0.00    +0.000 A 
ATOM     27  C   UNL     1      -1.778  11.709  19.381  0.00  0.00    +0.000 A 
ATOM     28  C   UNL     1      -3.060  11.848  18.846  0.00  0.00    +0.000 A 
ATOM     29  C   UNL     1      -3.436  11.091  17.738  0.00  0.00    +0.000 A 
ATOM     30 CL   UNL     1      -5.013  11.273  17.074  0.00  0.00    +0.000 Cl
ATOM     31  C   UNL     1      -2.544  10.190  17.165  0.00  0.00    +0.000 A 
ATOM     32  C   UNL     1      -1.265  10.044  17.705  0.00  0.00    +0.000 A 
ENDBRANCH  25  26
ENDBRANCH  21  25
ENDBRANCH   2  21
TORSDOF 10
ENDMDL
MODEL 7
REMARK VINA RESULT:      -6.2      6.416      9.881
REMARK  Name = 
REMARK  11 active torsions:
REMARK  status: ('A' for Active; 'I' for Inactive)
REMARK    1  A    between atoms: C_1  and  N_2
REMARK    2  A    between atoms: N_5  and  C_6
REMARK    3  A    between atoms: C_6  and  C_7
REMARK    4  A    between atoms: C_7  and  C_8
REMARK    5  A    between atoms: C_8  and  N_9
REMARK    6  A    between atoms: N_9  and  C_10
REMARK    7  A    between atoms: C_10  and  C_11
REMARK    8  A    between atoms: C_17  and  C_19
REMARK    9  A    between atoms: C_19  and  N_20
REMARK   10  A    between atoms: C_19  and  C_21
REMARK   11  A    between atoms: C_21  and  C_22
REMARK                            x       y       z     vdW  Elec       q    Type
REMARK                         _______ _______ _______ _____ _____    ______ ____
ROOT
ATOM      1  N   UNL     1       0.268   9.842  18.244  0.00  0.00    +0.000 N 
ATOM      2  C   UNL     1      -0.966  10.183  17.689  0.00  0.00    +0.000 C 
ATOM      3  O   UNL     1      -1.425   9.551  16.732  0.00  0.00    +0.000 OA
ENDROOT
BRANCH   1   4
ATOM      4  C   UNL     1       0.949   8.630  17.744  0.00  0.00    +0.000 C 
BRANCH   4   5
ATOM      5  C   UNL     1       2.324   8.437  18.397  0.00  0.00    +0.000 C 
BRANCH   5   6
ATOM      6  C   UNL     1       2.924   7.032  18.184  0.00  0.00    +0.000 C 
BRANCH   6  11
ATOM      7  C   UNL     1       2.784   2.193  17.870  0.00  0.00    +0.000 C 
ATOM      8  N   UNL     1       2.983   3.311  18.787  0.00  0.00    +0.000 NA
ATOM      9  C   UNL     1       1.780   4.158  18.856  0.00  0.00    +0.000 C 
ATOM     10  C   UNL     1       1.990   5.385  19.774  0.00  0.00    +0.000 C 
ATOM     11  N   UNL     1       3.136   6.245  19.411  0.00  0.00    +0.000 NA
ATOM     12  C   UNL     1       4.334   5.374  19.297  0.00  0.00    +0.000 C 
ATOM     13  C   UNL     1       4.155   4.117  18.403  0.00  0.00    +0.000 C 
ENDBRANCH   6  11
ENDBRANCH   5   6
ENDBRANCH   4   5
ENDBRANCH   1   4
BRANCH   1  14
ATOM     14  C   UNL     1       0.947  10.579  19.313  0.00  0.00    +0.000 C 
BRANCH  14  15
ATOM     15  C   UNL     1       0.322  10.457  20.689  0.00  0.00    +0.000 A 
ATOM     16  C   UNL     1       0.134   9.232  21.346  0.00  0.00    +0.000 A 
ATOM     17  C   UNL     1      -0.463   9.178  22.608  0.00  0.00    +0.000 A 
ATOM     18  C   UNL     1      -0.906  10.346  23.223  0.00  0.00    +0.000 A 
ATOM     19  C   UNL     1      -0.727  11.572  22.589  0.00  0.00    +0.000 A 
ATOM     20  C   UNL     1      -0.107  11.629  21.338  0.00  0.00    +0.000 A 
ENDBRANCH  14  15
ENDBRANCH   1  14
BRANCH   2  21
ATOM     21  C   UNL     1      -1.725  11.434  18.229  0.00  0.00    +0.000 C 
BRANCH  21  22
ATOM     22  N   UNL     1      -1.319  12.636  17.464  0.00  0.00    +0.000 NA
ATOM     23  H   UNL     1      -0.310  12.586  17.303  0.00  0.00    +0.000 HD
ATOM     24  H   UNL     1      -1.469  13.471  18.029  0.00  0.00    +0.000 HD
ENDBRANCH  21  22
BRANCH  21  25
ATOM     25  C   UNL     1      -3.249  11.268  18.069  0.00  0.00    +0.000 C 
BRANCH  25  26
ATOM     26  C   UNL     1      -4.062  12.081  19.054  0.00  0.00    +0.000 A 
ATOM     27  C   UNL     1      -5.411  12.379  18.812  0.00  0.00    +0.000 A 
ATOM     28  C   UNL     1      -6.145  13.125  19.735  0.00  0.00    +0.000 A 
ATOM     29  C   UNL     1      -5.538  13.569  20.909  0.00  0.00    +0.000 A 
ATOM     30 CL   UNL     1      -6.448  14.480  22.051  0.00  0.00    +0.000 Cl
ATOM     31  C   UNL     1      -4.202  13.277  21.166  0.00  0.00    +0.000 A 
ATOM     32  C   UNL     1      -3.465  12.536  20.239  0.00  0.00    +0.000 A 
ENDBRANCH  25  26
ENDBRANCH  21  25
ENDBRANCH   2  21
TORSDOF 10
ENDMDL
MODEL 8
REMARK VINA RESULT:      -6.2      6.232      9.680
REMARK  Name = 
REMARK  11 active torsions:
REMARK  status: ('A' for Active; 'I' for Inactive)
REMARK    1  A    between atoms: C_1  and  N_2
REMARK    2  A    between atoms: N_5  and  C_6
REMARK    3  A    between atoms: C_6  and  C_7
REMARK    4  A    between atoms: C_7  and  C_8
REMARK    5  A    between atoms: C_8  and  N_9
REMARK    6  A    between atoms: N_9  and  C_10
REMARK    7  A    between atoms: C_10  and  C_11
REMARK    8  A    between atoms: C_17  and  C_19
REMARK    9  A    between atoms: C_19  and  N_20
REMARK   10  A    between atoms: C_19  and  C_21
REMARK   11  A    between atoms: C_21  and  C_22
REMARK                            x       y       z     vdW  Elec       q    Type
REMARK                         _______ _______ _______ _____ _____    ______ ____
ROOT
ATOM      1  N   UNL     1       0.222   9.844  18.195  0.00  0.00    +0.000 N 
ATOM      2  C   UNL     1      -0.991  10.270  17.653  0.00  0.00    +0.000 C 
ATOM      3  O   UNL     1      -1.494   9.680  16.692  0.00  0.00    +0.000 OA
ENDROOT
BRANCH   1   4
ATOM      4  C   UNL     1       0.822   8.598  17.677  0.00  0.00    +0.000 C 
BRANCH   4   5
ATOM      5  C   UNL     1       2.188   8.311  18.314  0.00  0.00    +0.000 C 
BRANCH   5   6
ATOM      6  C   UNL     1       2.414   6.827  18.665  0.00  0.00    +0.000 C 
BRANCH   6  11
ATOM      7  C   UNL     1       3.218   2.069  18.160  0.00  0.00    +0.000 C 
ATOM      8  N   UNL     1       3.868   3.373  18.250  0.00  0.00    +0.000 NA
ATOM      9  C   UNL     1       3.581   4.018  19.543  0.00  0.00    +0.000 C 
ATOM     10  C   UNL     1       4.209   5.429  19.635  0.00  0.00    +0.000 C 
ATOM     11  N   UNL     1       3.807   6.360  18.560  0.00  0.00    +0.000 NA
ATOM     12  C   UNL     1       4.055   5.682  17.262  0.00  0.00    +0.000 C 
ATOM     13  C   UNL     1       3.462   4.251  17.139  0.00  0.00    +0.000 C 
ENDBRANCH   6  11
ENDBRANCH   5   6
ENDBRANCH   4   5
ENDBRANCH   1   4
BRANCH   1  14
ATOM     14  C   UNL     1       0.954  10.524  19.268  0.00  0.00    +0.000 C 
BRANCH  14  15
ATOM     15  C   UNL     1       0.298  10.480  20.635  0.00  0.00    +0.000 A 
ATOM     16  C   UNL     1      -0.120  11.626  21.327  0.00  0.00    +0.000 A 
ATOM     17  C   UNL     1      -0.706  11.527  22.593  0.00  0.00    +0.000 A 
ATOM     18  C   UNL     1      -0.858  10.282  23.197  0.00  0.00    +0.000 A 
ATOM     19  C   UNL     1      -0.452   9.133  22.526  0.00  0.00    +0.000 A 
ATOM     20  C   UNL     1       0.110   9.230  21.250  0.00  0.00    +0.000 A 
ENDBRANCH  14  15
ENDBRANCH   1  14
BRANCH   2  21
ATOM     21  C   UNL     1      -1.665  11.560  18.213  0.00  0.00    +0.000 C 
BRANCH  21  22
ATOM     22  N   UNL     1      -1.068  12.756  17.575  0.00  0.00    +0.000 NA
ATOM     23  H   UNL     1      -0.493  12.445  16.789  0.00  0.00    +0.000 HD
ATOM     24  H   UNL     1      -0.428  13.211  18.225  0.00  0.00    +0.000 HD
ENDBRANCH  21  22
BRANCH  21  25
ATOM     25  C   UNL     1      -3.176  11.570  17.910  0.00  0.00    +0.000 C 
BRANCH  25  26
ATOM     26  C   UNL     1      -4.039  11.918  19.105  0.00  0.00    +0.000 A 
ATOM     27  C   UNL     1      -3.496  12.544  20.236  0.00  0.00    +0.000 A 
ATOM     28  C   UNL     1      -4.310  12.861  21.326  0.00  0.00    +0.000 A 
ATOM     29  C   UNL     1      -5.671  12.565  21.285  0.00  0.00    +0.000 A 
ATOM     30 CL   UNL     1      -6.673  12.966  22.625  0.00  0.00    +0.000 Cl
ATOM     31  C   UNL     1      -6.225  11.949  20.167  0.00  0.00    +0.000 A 
ATOM     32  C   UNL     1      -5.410  11.625  19.081  0.00  0.00    +0.000 A 
ENDBRANCH  25  26
ENDBRANCH  21  25
ENDBRANCH   2  21
TORSDOF 10
ENDMDL
MODEL 9
REMARK VINA RESULT:      -6.2      4.172      7.325
REMARK  Name = 
REMARK  11 active torsions:
REMARK  status: ('A' for Active; 'I' for Inactive)
REMARK    1  A    between atoms: C_1  and  N_2
REMARK    2  A    between atoms: N_5  and  C_6
REMARK    3  A    between atoms: C_6  and  C_7
REMARK    4  A    between atoms: C_7  and  C_8
REMARK    5  A    between atoms: C_8  and  N_9
REMARK    6  A    between atoms: N_9  and  C_10
REMARK    7  A    between atoms: C_10  and  C_11
REMARK    8  A    between atoms: C_17  and  C_19
REMARK    9  A    between atoms: C_19  and  N_20
REMARK   10  A    between atoms: C_19  and  C_21
REMARK   11  A    between atoms: C_21  and  C_22
REMARK                            x       y       z     vdW  Elec       q    Type
REMARK                         _______ _______ _______ _____ _____    ______ ____
ROOT
ATOM      1  N   UNL     1       2.310   7.094  19.125  0.00  0.00    +0.000 N 
ATOM      2  C   UNL     1       1.907   8.298  18.548  0.00  0.00    +0.000 C 
ATOM      3  O   UNL     1       2.499   8.757  17.565  0.00  0.00    +0.000 OA
ENDROOT
BRANCH   1   4
ATOM      4  C   UNL     1       3.375   6.319  18.456  0.00  0.00    +0.000 C 
BRANCH   4   5
ATOM      5  C   UNL     1       4.639   6.220  19.320  0.00  0.00    +0.000 C 
BRANCH   5   6
ATOM      6  C   UNL     1       5.611   5.106  18.880  0.00  0.00    +0.000 C 
BRANCH   6  11
ATOM      7  C   UNL     1       6.691   4.962  14.152  0.00  0.00    +0.000 C 
ATOM      8  N   UNL     1       7.204   5.325  15.470  0.00  0.00    +0.000 NA
ATOM      9  C   UNL     1       7.265   4.150  16.356  0.00  0.00    +0.000 C 
ATOM     10  C   UNL     1       7.746   4.524  17.777  0.00  0.00    +0.000 C 
ATOM     11  N   UNL     1       6.943   5.565  18.453  0.00  0.00    +0.000 NA
ATOM     12  C   UNL     1       6.848   6.726  17.532  0.00  0.00    +0.000 C 
ATOM     13  C   UNL     1       6.391   6.389  16.086  0.00  0.00    +0.000 C 
ENDBRANCH   6  11
ENDBRANCH   5   6
ENDBRANCH   4   5
ENDBRANCH   1   4
BRANCH   1  14
ATOM     14  C   UNL     1       1.744   6.509  20.344  0.00  0.00    +0.000 C 
BRANCH  14  15
ATOM     15  C   UNL     1       1.700   4.994  20.382  0.00  0.00    +0.000 A 
ATOM     16  C   UNL     1       2.183   4.234  21.456  0.00  0.00    +0.000 A 
ATOM     17  C   UNL     1       2.132   2.837  21.430  0.00  0.00    +0.000 A 
ATOM     18  C   UNL     1       1.619   2.178  20.315  0.00  0.00    +0.000 A 
ATOM     19  C   UNL     1       1.131   2.914  19.239  0.00  0.00    +0.000 A 
ATOM     20  C   UNL     1       1.161   4.311  19.277  0.00  0.00    +0.000 A 
ENDBRANCH  14  15
ENDBRANCH   1  14
BRANCH   2  21
ATOM     21  C   UNL     1       0.756   9.114  19.212  0.00  0.00    +0.000 C 
BRANCH  21  22
ATOM     22  N   UNL     1       1.175   9.570  20.558  0.00  0.00    +0.000 NA
ATOM     23  H   UNL     1       2.182   9.746  20.536  0.00  0.00    +0.000 HD
ATOM     24  H   UNL     1       1.038   8.820  21.234  0.00  0.00    +0.000 HD
ENDBRANCH  21  22
BRANCH  21  25
ATOM     25  C   UNL     1       0.412  10.364  18.379  0.00  0.00    +0.000 C 
BRANCH  25  26
ATOM     26  C   UNL     1      -1.074  10.583  18.185  0.00  0.00    +0.000 A 
ATOM     27  C   UNL     1      -1.798   9.850  17.234  0.00  0.00    +0.000 A 
ATOM     28  C   UNL     1      -3.169  10.063  17.073  0.00  0.00    +0.000 A 
ATOM     29  C   UNL     1      -3.824  11.001  17.869  0.00  0.00    +0.000 A 
ATOM     30 CL   UNL     1      -5.515  11.254  17.676  0.00  0.00    +0.000 Cl
ATOM     31  C   UNL     1      -3.119  11.732  18.821  0.00  0.00    +0.000 A 
ATOM     32  C   UNL     1      -1.747  11.524  18.976  0.00  0.00    +0.000 A 
ENDBRANCH  25  26
ENDBRANCH  21  25
ENDBRANCH   2  21
TORSDOF 10
ENDMDL
