MODEL 1
REMARK VINA RESULT:      -5.9      0.000      0.000
REMARK  Name = 
REMARK  1 active torsions:
REMARK  status: ('A' for Active; 'I' for Inactive)
REMARK    1  A    between atoms: C_1  and  C_2
REMARK                            x       y       z     vdW  Elec       q    Type
REMARK                         _______ _______ _______ _____ _____    ______ ____
ROOT
ATOM      1  C   UNL     1       5.654   3.998  16.226  0.00  0.00    +0.000 C 
ATOM      2  C   UNL     1       4.492   4.183  17.149  0.00  0.00    +0.000 C 
ATOM      3  O   UNL     1       3.810   5.192  17.218  0.00  0.00    +0.000 OA
ATOM      4  N   UNL     1       4.248   3.087  18.017  0.00  0.00    +0.000 N 
ATOM      5  C   UNL     1       3.294   3.127  18.999  0.00  0.00    +0.000 A 
ATOM      6  C   UNL     1       2.003   3.638  18.833  0.00  0.00    +0.000 A 
ATOM      7  C   UNL     1       1.114   3.647  19.911  0.00  0.00    +0.000 A 
ATOM      8  C   UNL     1       1.516   3.161  21.152  0.00  0.00    +0.000 A 
ATOM      9  C   UNL     1       2.796   2.630  21.302  0.00  0.00    +0.000 A 
ATOM     10  N   UNL     1       3.671   2.582  20.235  0.00  0.00    +0.000 N 
ATOM     11  O   UNL     1       4.842   2.074  20.350  0.00  0.00    +0.000 OA
ATOM     12  H   UNL     1       4.977   2.398  18.210  0.00  0.00    +0.000 HD
ENDROOT
TORSDOF 0
ENDMDL
MODEL 2
REMARK VINA RESULT:      -5.9      1.840      2.327
REMARK  Name = 
REMARK  1 active torsions:
REMARK  status: ('A' for Active; 'I' for Inactive)
REMARK    1  A    between atoms: C_1  and  C_2
REMARK                            x       y       z     vdW  Elec       q    Type
REMARK                         _______ _______ _______ _____ _____    ______ ____
ROOT
ATOM      1  C   UNL     1       7.741   5.591  18.788  0.00  0.00    +0.000 C 
ATOM      2  C   UNL     1       6.319   5.299  18.428  0.00  0.00    +0.000 C 
ATOM      3  O   UNL     1       5.504   6.135  18.074  0.00  0.00    +0.000 OA
ATOM      4  N   UNL     1       5.939   3.940  18.578  0.00  0.00    +0.000 N 
ATOM      5  C   UNL     1       4.650   3.514  18.397  0.00  0.00    +0.000 A 
ATOM      6  C   UNL     1       3.820   3.916  17.346  0.00  0.00    +0.000 A 
ATOM      7  C   UNL     1       2.511   3.433  17.267  0.00  0.00    +0.000 A 
ATOM      8  C   UNL     1       2.029   2.562  18.241  0.00  0.00    +0.000 A 
ATOM      9  C   UNL     1       2.871   2.146  19.271  0.00  0.00    +0.000 A 
ATOM     10  N   UNL     1       4.178   2.589  19.339  0.00  0.00    +0.000 N 
ATOM     11  O   UNL     1       4.973   2.196  20.264  0.00  0.00    +0.000 OA
ATOM     12  H   UNL     1       6.479   3.307  19.169  0.00  0.00    +0.000 HD
ENDROOT
TORSDOF 0
ENDMDL
MODEL 3
REMARK VINA RESULT:      -5.8      1.420      1.533
REMARK  Name = 
REMARK  1 active torsions:
REMARK  status: ('A' for Active; 'I' for Inactive)
REMARK    1  A    between atoms: C_1  and  C_2
REMARK                            x       y       z     vdW  Elec       q    Type
REMARK                         _______ _______ _______ _____ _____    ______ ____
ROOT
ATOM      1  C   UNL     1       7.649   4.663  17.809  0.00  0.00    +0.000 C 
ATOM      2  C   UNL     1       6.188   4.812  18.096  0.00  0.00    +0.000 C 
ATOM      3  O   UNL     1       5.581   5.869  18.091  0.00  0.00    +0.000 OA
ATOM      4  N   UNL     1       5.529   3.604  18.442  0.00  0.00    +0.000 N 
ATOM      5  C   UNL     1       4.218   3.570  18.839  0.00  0.00    +0.000 A 
ATOM      6  C   UNL     1       3.183   4.282  18.225  0.00  0.00    +0.000 A 
ATOM      7  C   UNL     1       1.882   4.190  18.726  0.00  0.00    +0.000 A 
ATOM      8  C   UNL     1       1.618   3.401  19.843  0.00  0.00    +0.000 A 
ATOM      9  C   UNL     1       2.651   2.675  20.433  0.00  0.00    +0.000 A 
ATOM     10  N   UNL     1       3.934   2.730  19.925  0.00  0.00    +0.000 N 
ATOM     11  O   UNL     1       4.890   2.048  20.440  0.00  0.00    +0.000 OA
ATOM     12  H   UNL     1       6.056   2.794  18.770  0.00  0.00    +0.000 HD
ENDROOT
TORSDOF 0
ENDMDL
MODEL 4
REMARK VINA RESULT:      -5.7      5.290      7.028
REMARK  Name = 
REMARK  1 active torsions:
REMARK  status: ('A' for Active; 'I' for Inactive)
REMARK    1  A    between atoms: C_1  and  C_2
REMARK                            x       y       z     vdW  Elec       q    Type
REMARK                         _______ _______ _______ _____ _____    ______ ____
ROOT
ATOM      1  C   UNL     1       7.564   6.331  17.923  0.00  0.00    +0.000 C 
ATOM      2  C   UNL     1       7.042   5.391  16.883  0.00  0.00    +0.000 C 
ATOM      3  O   UNL     1       6.593   4.281  17.109  0.00  0.00    +0.000 OA
ATOM      4  N   UNL     1       7.152   5.867  15.550  0.00  0.00    +0.000 N 
ATOM      5  C   UNL     1       6.823   5.096  14.466  0.00  0.00    +0.000 A 
ATOM      6  C   UNL     1       5.681   4.294  14.378  0.00  0.00    +0.000 A 
ATOM      7  C   UNL     1       5.453   3.531  13.230  0.00  0.00    +0.000 A 
ATOM      8  C   UNL     1       6.368   3.559  12.180  0.00  0.00    +0.000 A 
ATOM      9  C   UNL     1       7.490   4.380  12.266  0.00  0.00    +0.000 A 
ATOM     10  N   UNL     1       7.707   5.167  13.380  0.00  0.00    +0.000 N 
ATOM     11  O   UNL     1       8.721   5.947  13.464  0.00  0.00    +0.000 OA
ATOM     12  H   UNL     1       7.804   6.615  15.312  0.00  0.00    +0.000 HD
ENDROOT
TORSDOF 0
ENDMDL
MODEL 5
REMARK VINA RESULT:      -5.7      2.286      2.694
REMARK  Name = 
REMARK  1 active torsions:
REMARK  status: ('A' for Active; 'I' for Inactive)
REMARK    1  A    between atoms: C_1  and  C_2
REMARK                            x       y       z     vdW  Elec       q    Type
REMARK                         _______ _______ _______ _____ _____    ______ ____
ROOT
ATOM      1  C   UNL     1       4.723   6.783  17.077  0.00  0.00    +0.000 C 
ATOM      2  C   UNL     1       4.288   5.936  18.230  0.00  0.00    +0.000 C 
ATOM      3  O   UNL     1       5.029   5.504  19.097  0.00  0.00    +0.000 OA
ATOM      4  N   UNL     1       2.908   5.604  18.232  0.00  0.00    +0.000 N 
ATOM      5  C   UNL     1       2.359   4.750  19.151  0.00  0.00    +0.000 A 
ATOM      6  C   UNL     1       2.637   4.771  20.522  0.00  0.00    +0.000 A 
ATOM      7  C   UNL     1       2.034   3.839  21.369  0.00  0.00    +0.000 A 
ATOM      8  C   UNL     1       1.167   2.881  20.849  0.00  0.00    +0.000 A 
ATOM      9  C   UNL     1       0.876   2.882  19.486  0.00  0.00    +0.000 A 
ATOM     10  N   UNL     1       1.438   3.822  18.644  0.00  0.00    +0.000 N 
ATOM     11  O   UNL     1       1.161   3.854  17.393  0.00  0.00    +0.000 OA
ATOM     12  H   UNL     1       2.353   5.665  17.376  0.00  0.00    +0.000 HD
ENDROOT
TORSDOF 0
ENDMDL
MODEL 6
REMARK VINA RESULT:      -5.6      1.842      2.325
REMARK  Name = 
REMARK  1 active torsions:
REMARK  status: ('A' for Active; 'I' for Inactive)
REMARK    1  A    between atoms: C_1  and  C_2
REMARK                            x       y       z     vdW  Elec       q    Type
REMARK                         _______ _______ _______ _____ _____    ______ ____
ROOT
ATOM      1  C   UNL     1       6.512   4.604  16.994  0.00  0.00    +0.000 C 
ATOM      2  C   UNL     1       5.558   4.514  18.143  0.00  0.00    +0.000 C 
ATOM      3  O   UNL     1       5.883   4.378  19.310  0.00  0.00    +0.000 OA
ATOM      4  N   UNL     1       4.188   4.545  17.775  0.00  0.00    +0.000 N 
ATOM      5  C   UNL     1       3.179   4.366  18.684  0.00  0.00    +0.000 A 
ATOM      6  C   UNL     1       3.137   4.957  19.951  0.00  0.00    +0.000 A 
ATOM      7  C   UNL     1       2.067   4.690  20.809  0.00  0.00    +0.000 A 
ATOM      8  C   UNL     1       1.051   3.826  20.408  0.00  0.00    +0.000 A 
ATOM      9  C   UNL     1       1.088   3.261  19.135  0.00  0.00    +0.000 A 
ATOM     10  N   UNL     1       2.122   3.547  18.265  0.00  0.00    +0.000 N 
ATOM     11  O   UNL     1       2.158   3.056  17.081  0.00  0.00    +0.000 OA
ATOM     12  H   UNL     1       3.896   4.327  16.821  0.00  0.00    +0.000 HD
ENDROOT
TORSDOF 0
ENDMDL
MODEL 7
REMARK VINA RESULT:      -5.5      1.828      4.578
REMARK  Name = 
REMARK  1 active torsions:
REMARK  status: ('A' for Active; 'I' for Inactive)
REMARK    1  A    between atoms: C_1  and  C_2
REMARK                            x       y       z     vdW  Elec       q    Type
REMARK                         _______ _______ _______ _____ _____    ______ ____
ROOT
ATOM      1  C   UNL     1       2.745   2.898  20.916  0.00  0.00    +0.000 C 
ATOM      2  C   UNL     1       3.480   2.900  19.614  0.00  0.00    +0.000 C 
ATOM      3  O   UNL     1       3.479   1.982  18.810  0.00  0.00    +0.000 OA
ATOM      4  N   UNL     1       4.258   4.064  19.376  0.00  0.00    +0.000 N 
ATOM      5  C   UNL     1       5.079   4.189  18.287  0.00  0.00    +0.000 A 
ATOM      6  C   UNL     1       4.731   3.821  16.983  0.00  0.00    +0.000 A 
ATOM      7  C   UNL     1       5.655   3.974  15.946  0.00  0.00    +0.000 A 
ATOM      8  C   UNL     1       6.925   4.480  16.212  0.00  0.00    +0.000 A 
ATOM      9  C   UNL     1       7.254   4.867  17.509  0.00  0.00    +0.000 A 
ATOM     10  N   UNL     1       6.337   4.755  18.536  0.00  0.00    +0.000 N 
ATOM     11  O   UNL     1       6.615   5.130  19.729  0.00  0.00    +0.000 OA
ATOM     12  H   UNL     1       4.537   4.674  20.146  0.00  0.00    +0.000 HD
ENDROOT
TORSDOF 0
ENDMDL
MODEL 8
REMARK VINA RESULT:      -5.5      2.085      4.019
REMARK  Name = 
REMARK  1 active torsions:
REMARK  status: ('A' for Active; 'I' for Inactive)
REMARK    1  A    between atoms: C_1  and  C_2
REMARK                            x       y       z     vdW  Elec       q    Type
REMARK                         _______ _______ _______ _____ _____    ______ ____
ROOT
ATOM      1  C   UNL     1       0.742   2.628  19.204  0.00  0.00    +0.000 C 
ATOM      2  C   UNL     1       1.541   3.662  18.477  0.00  0.00    +0.000 C 
ATOM      3  O   UNL     1       1.255   4.124  17.386  0.00  0.00    +0.000 OA
ATOM      4  N   UNL     1       2.734   4.058  19.137  0.00  0.00    +0.000 N 
ATOM      5  C   UNL     1       3.639   4.914  18.568  0.00  0.00    +0.000 A 
ATOM      6  C   UNL     1       3.302   6.086  17.884  0.00  0.00    +0.000 A 
ATOM      7  C   UNL     1       4.308   6.879  17.324  0.00  0.00    +0.000 A 
ATOM      8  C   UNL     1       5.642   6.495  17.435  0.00  0.00    +0.000 A 
ATOM      9  C   UNL     1       5.970   5.339  18.140  0.00  0.00    +0.000 A 
ATOM     10  N   UNL     1       4.988   4.567  18.729  0.00  0.00    +0.000 N 
ATOM     11  O   UNL     1       5.274   3.515  19.403  0.00  0.00    +0.000 OA
ATOM     12  H   UNL     1       3.155   3.469  19.858  0.00  0.00    +0.000 HD
ENDROOT
TORSDOF 0
ENDMDL
MODEL 9
REMARK VINA RESULT:      -5.4      2.022      2.078
REMARK  Name = 
REMARK  1 active torsions:
REMARK  status: ('A' for Active; 'I' for Inactive)
REMARK    1  A    between atoms: C_1  and  C_2
REMARK                            x       y       z     vdW  Elec       q    Type
REMARK                         _______ _______ _______ _____ _____    ______ ____
ROOT
ATOM      1  C   UNL     1       7.295   4.683  17.593  0.00  0.00    +0.000 C 
ATOM      2  C   UNL     1       6.175   4.768  18.580  0.00  0.00    +0.000 C 
ATOM      3  O   UNL     1       6.273   5.220  19.708  0.00  0.00    +0.000 OA
ATOM      4  N   UNL     1       4.946   4.220  18.127  0.00  0.00    +0.000 N 
ATOM      5  C   UNL     1       3.846   4.117  18.937  0.00  0.00    +0.000 A 
ATOM      6  C   UNL     1       3.397   5.120  19.800  0.00  0.00    +0.000 A 
ATOM      7  C   UNL     1       2.271   4.901  20.598  0.00  0.00    +0.000 A 
ATOM      8  C   UNL     1       1.604   3.679  20.543  0.00  0.00    +0.000 A 
ATOM      9  C   UNL     1       2.043   2.694  19.661  0.00  0.00    +0.000 A 
ATOM     10  N   UNL     1       3.133   2.913  18.841  0.00  0.00    +0.000 N 
ATOM     11  O   UNL     1       3.534   2.027  18.006  0.00  0.00    +0.000 OA
ATOM     12  H   UNL     1       4.922   3.559  17.350  0.00  0.00    +0.000 HD
ENDROOT
TORSDOF 0
ENDMDL
