MODEL 1
REMARK VINA RESULT:      -7.7      0.000      0.000
REMARK  Name = 
REMARK  7 active torsions:
REMARK  status: ('A' for Active; 'I' for Inactive)
REMARK    1  A    between atoms: C_1  and  O_2
REMARK    2  A    between atoms: O_2  and  C_3
REMARK    3  A    between atoms: N_10  and  C_11
REMARK    4  A    between atoms: C_15  and  O_16
REMARK    5  A    between atoms: C_17  and  C_18
REMARK    6  A    between atoms: C_21  and  O_22
REMARK    7  A    between atoms: O_22  and  C_23
REMARK                            x       y       z     vdW  Elec       q    Type
REMARK                         _______ _______ _______ _____ _____    ______ ____
ROOT
ATOM      1  C   UNL     1       6.029   4.404  16.643  0.00  0.00    +0.000 A 
ATOM      2  C   UNL     1       4.767   3.785  16.629  0.00  0.00    +0.000 A 
ATOM      3  C   UNL     1       3.723   4.201  17.441  0.00  0.00    +0.000 A 
ATOM      4  N   UNL     1       2.523   3.630  17.291  0.00  0.00    +0.000 NA
ATOM      5  C   UNL     1       1.523   4.141  18.011  0.00  0.00    +0.000 A 
ATOM      6  N   UNL     1       1.612   5.172  18.851  0.00  0.00    +0.000 NA
ATOM      7  C   UNL     1       2.829   5.735  19.003  0.00  0.00    +0.000 A 
ATOM      8  N   UNL     1       2.926   6.930  19.765  0.00  0.00    +0.000 N 
ATOM      9  C   UNL     1       3.960   5.241  18.341  0.00  0.00    +0.000 A 
ATOM     10  C   UNL     1       5.261   5.775  18.457  0.00  0.00    +0.000 A 
ATOM     11  C   UNL     1       6.299   5.372  17.614  0.00  0.00    +0.000 A 
ATOM     12  H   UNL     1       3.607   6.852  20.506  0.00  0.00    +0.000 HD
ENDROOT
BRANCH   8  13
ATOM     13  C   UNL     1       1.857   7.822  20.013  0.00  0.00    +0.000 A 
ATOM     14  C   UNL     1       1.151   7.717  21.229  0.00  0.00    +0.000 A 
ATOM     15  C   UNL     1       0.165   8.631  21.585  0.00  0.00    +0.000 A 
ATOM     16  C   UNL     1      -0.135   9.678  20.726  0.00  0.00    +0.000 A 
ATOM     17  C   UNL     1       0.524   9.770  19.497  0.00  0.00    +0.000 A 
ATOM     18  C   UNL     1       1.498   8.836  19.104  0.00  0.00    +0.000 A 
ATOM     19  C   UNL     1       2.147   8.934  17.751  0.00  0.00    +0.000 C 
BRANCH  17  20
ATOM     20  O   UNL     1       0.227  10.814  18.664  0.00  0.00    +0.000 OA
ATOM     21  H   UNL     1      -0.739  10.883  18.594  0.00  0.00    +0.000 HD
ENDBRANCH  17  20
ENDBRANCH   8  13
BRANCH   1  23
ATOM     22  C   UNL     1       6.792   4.600  14.412  0.00  0.00    +0.000 C 
ATOM     23  O   UNL     1       6.989   4.065  15.726  0.00  0.00    +0.000 OA
ENDBRANCH   1  23
BRANCH  11  24
ATOM     24  O   UNL     1       7.446   6.060  17.881  0.00  0.00    +0.000 OA
ATOM     25  C   UNL     1       7.544   7.434  17.556  0.00  0.00    +0.000 C 
ENDBRANCH  11  24
TORSDOF 4
ENDMDL
MODEL 2
REMARK VINA RESULT:      -7.3      2.783      7.191
REMARK  Name = 
REMARK  7 active torsions:
REMARK  status: ('A' for Active; 'I' for Inactive)
REMARK    1  A    between atoms: C_1  and  O_2
REMARK    2  A    between atoms: O_2  and  C_3
REMARK    3  A    between atoms: N_10  and  C_11
REMARK    4  A    between atoms: C_15  and  O_16
REMARK    5  A    between atoms: C_17  and  C_18
REMARK    6  A    between atoms: C_21  and  O_22
REMARK    7  A    between atoms: O_22  and  C_23
REMARK                            x       y       z     vdW  Elec       q    Type
REMARK                         _______ _______ _______ _____ _____    ______ ____
ROOT
ATOM      1  C   UNL     1       0.427  10.903  20.491  0.00  0.00    +0.000 A 
ATOM      2  C   UNL     1       0.927  10.609  19.210  0.00  0.00    +0.000 A 
ATOM      3  C   UNL     1       1.572   9.417  18.918  0.00  0.00    +0.000 A 
ATOM      4  N   UNL     1       1.922   9.168  17.652  0.00  0.00    +0.000 NA
ATOM      5  C   UNL     1       2.434   7.963  17.398  0.00  0.00    +0.000 A 
ATOM      6  N   UNL     1       2.614   6.987  18.289  0.00  0.00    +0.000 NA
ATOM      7  C   UNL     1       2.267   7.251  19.565  0.00  0.00    +0.000 A 
ATOM      8  N   UNL     1       2.297   6.185  20.504  0.00  0.00    +0.000 N 
ATOM      9  C   UNL     1       1.775   8.504  19.954  0.00  0.00    +0.000 A 
ATOM     10  C   UNL     1       1.399   8.851  21.269  0.00  0.00    +0.000 A 
ATOM     11  C   UNL     1       0.722  10.039  21.550  0.00  0.00    +0.000 A 
ATOM     12  H   UNL     1       2.858   6.409  21.313  0.00  0.00    +0.000 HD
ENDROOT
BRANCH   8  13
ATOM     13  C   UNL     1       2.228   4.812  20.173  0.00  0.00    +0.000 A 
ATOM     14  C   UNL     1       0.989   4.149  20.272  0.00  0.00    +0.000 A 
ATOM     15  C   UNL     1       0.828   2.832  19.856  0.00  0.00    +0.000 A 
ATOM     16  C   UNL     1       1.911   2.148  19.326  0.00  0.00    +0.000 A 
ATOM     17  C   UNL     1       3.158   2.776  19.263  0.00  0.00    +0.000 A 
ATOM     18  C   UNL     1       3.349   4.094  19.711  0.00  0.00    +0.000 A 
ATOM     19  C   UNL     1       4.716   4.720  19.681  0.00  0.00    +0.000 C 
BRANCH  17  20
ATOM     20  O   UNL     1       4.217   2.093  18.728  0.00  0.00    +0.000 OA
ATOM     21  H   UNL     1       3.872   1.446  18.092  0.00  0.00    +0.000 HD
ENDBRANCH  17  20
ENDBRANCH   8  13
BRANCH   1  23
ATOM     22  C   UNL     1      -1.425  12.203  19.800  0.00  0.00    +0.000 C 
ATOM     23  O   UNL     1      -0.333  12.023  20.709  0.00  0.00    +0.000 OA
ENDBRANCH   1  23
BRANCH  11  24
ATOM     24  O   UNL     1       0.420  10.134  22.876  0.00  0.00    +0.000 OA
ATOM     25  C   UNL     1      -0.930  10.146  23.301  0.00  0.00    +0.000 C 
ENDBRANCH  11  24
TORSDOF 4
ENDMDL
MODEL 3
REMARK VINA RESULT:      -7.1      1.075      1.749
REMARK  Name = 
REMARK  7 active torsions:
REMARK  status: ('A' for Active; 'I' for Inactive)
REMARK    1  A    between atoms: C_1  and  O_2
REMARK    2  A    between atoms: O_2  and  C_3
REMARK    3  A    between atoms: N_10  and  C_11
REMARK    4  A    between atoms: C_15  and  O_16
REMARK    5  A    between atoms: C_17  and  C_18
REMARK    6  A    between atoms: C_21  and  O_22
REMARK    7  A    between atoms: O_22  and  C_23
REMARK                            x       y       z     vdW  Elec       q    Type
REMARK                         _______ _______ _______ _____ _____    ______ ____
ROOT
ATOM      1  C   UNL     1       5.936   4.548  16.015  0.00  0.00    +0.000 A 
ATOM      2  C   UNL     1       4.750   3.874  16.356  0.00  0.00    +0.000 A 
ATOM      3  C   UNL     1       3.780   4.438  17.170  0.00  0.00    +0.000 A 
ATOM      4  N   UNL     1       2.633   3.776  17.359  0.00  0.00    +0.000 NA
ATOM      5  C   UNL     1       1.686   4.408  18.054  0.00  0.00    +0.000 A 
ATOM      6  N   UNL     1       1.776   5.637  18.562  0.00  0.00    +0.000 NA
ATOM      7  C   UNL     1       2.941   6.292  18.376  0.00  0.00    +0.000 A 
ATOM      8  N   UNL     1       3.014   7.656  18.764  0.00  0.00    +0.000 N 
ATOM      9  C   UNL     1       4.024   5.701  17.712  0.00  0.00    +0.000 A 
ATOM     10  C   UNL     1       5.270   6.324  17.486  0.00  0.00    +0.000 A 
ATOM     11  C   UNL     1       6.228   5.764  16.639  0.00  0.00    +0.000 A 
ATOM     12  H   UNL     1       3.787   7.831  19.390  0.00  0.00    +0.000 HD
ENDROOT
BRANCH   8  13
ATOM     13  C   UNL     1       1.901   8.515  18.918  0.00  0.00    +0.000 A 
ATOM     14  C   UNL     1       1.402   9.193  17.788  0.00  0.00    +0.000 A 
ATOM     15  C   UNL     1       0.245   9.963  17.847  0.00  0.00    +0.000 A 
ATOM     16  C   UNL     1      -0.442  10.069  19.047  0.00  0.00    +0.000 A 
ATOM     17  C   UNL     1       0.064   9.440  20.187  0.00  0.00    +0.000 A 
ATOM     18  C   UNL     1       1.250   8.687  20.156  0.00  0.00    +0.000 A 
ATOM     19  C   UNL     1       1.797   8.070  21.414  0.00  0.00    +0.000 C 
BRANCH  17  20
ATOM     20  O   UNL     1      -0.629   9.543  21.363  0.00  0.00    +0.000 OA
ATOM     21  H   UNL     1      -1.055  10.415  21.390  0.00  0.00    +0.000 HD
ENDBRANCH  17  20
ENDBRANCH   8  13
BRANCH   1  23
ATOM     22  C   UNL     1       6.318   4.006  13.745  0.00  0.00    +0.000 C 
ATOM     23  O   UNL     1       6.803   4.023  15.093  0.00  0.00    +0.000 OA
ENDBRANCH   1  23
BRANCH  11  24
ATOM     24  O   UNL     1       7.326   6.567  16.538  0.00  0.00    +0.000 OA
ATOM     25  C   UNL     1       7.611   7.515  17.550  0.00  0.00    +0.000 C 
ENDBRANCH  11  24
TORSDOF 4
ENDMDL
MODEL 4
REMARK VINA RESULT:      -7.0      3.084      7.259
REMARK  Name = 
REMARK  7 active torsions:
REMARK  status: ('A' for Active; 'I' for Inactive)
REMARK    1  A    between atoms: C_1  and  O_2
REMARK    2  A    between atoms: O_2  and  C_3
REMARK    3  A    between atoms: N_10  and  C_11
REMARK    4  A    between atoms: C_15  and  O_16
REMARK    5  A    between atoms: C_17  and  C_18
REMARK    6  A    between atoms: C_21  and  O_22
REMARK    7  A    between atoms: O_22  and  C_23
REMARK                            x       y       z     vdW  Elec       q    Type
REMARK                         _______ _______ _______ _____ _____    ______ ____
ROOT
ATOM      1  C   UNL     1      -0.330  10.135  20.165  0.00  0.00    +0.000 A 
ATOM      2  C   UNL     1       0.476  10.153  19.013  0.00  0.00    +0.000 A 
ATOM      3  C   UNL     1       1.457   9.204  18.775  0.00  0.00    +0.000 A 
ATOM      4  N   UNL     1       2.106   9.228  17.606  0.00  0.00    +0.000 NA
ATOM      5  C   UNL     1       2.959   8.228  17.374  0.00  0.00    +0.000 A 
ATOM      6  N   UNL     1       3.208   7.207  18.194  0.00  0.00    +0.000 NA
ATOM      7  C   UNL     1       2.556   7.197  19.375  0.00  0.00    +0.000 A 
ATOM      8  N   UNL     1       2.678   6.048  20.200  0.00  0.00    +0.000 N 
ATOM      9  C   UNL     1       1.683   8.228  19.747  0.00  0.00    +0.000 A 
ATOM     10  C   UNL     1       0.974   8.285  20.965  0.00  0.00    +0.000 A 
ATOM     11  C   UNL     1      -0.035   9.225  21.185  0.00  0.00    +0.000 A 
ATOM     12  H   UNL     1       2.987   6.282  21.133  0.00  0.00    +0.000 HD
ENDROOT
BRANCH   8  13
ATOM     13  C   UNL     1       3.042   4.759  19.746  0.00  0.00    +0.000 A 
ATOM     14  C   UNL     1       4.389   4.509  19.415  0.00  0.00    +0.000 A 
ATOM     15  C   UNL     1       4.834   3.237  19.069  0.00  0.00    +0.000 A 
ATOM     16  C   UNL     1       3.934   2.182  19.052  0.00  0.00    +0.000 A 
ATOM     17  C   UNL     1       2.587   2.422  19.333  0.00  0.00    +0.000 A 
ATOM     18  C   UNL     1       2.111   3.706  19.649  0.00  0.00    +0.000 A 
ATOM     19  C   UNL     1       0.645   3.939  19.891  0.00  0.00    +0.000 C 
BRANCH  17  20
ATOM     20  O   UNL     1       1.711   1.370  19.322  0.00  0.00    +0.000 OA
ATOM     21  H   UNL     1       2.213   0.558  19.148  0.00  0.00    +0.000 HD
ENDBRANCH  17  20
ENDBRANCH   8  13
BRANCH   1  23
ATOM     22  C   UNL     1      -1.608  11.865  19.180  0.00  0.00    +0.000 C 
ATOM     23  O   UNL     1      -1.386  10.998  20.299  0.00  0.00    +0.000 OA
ENDBRANCH   1  23
BRANCH  11  24
ATOM     24  O   UNL     1      -0.609   9.056  22.409  0.00  0.00    +0.000 OA
ATOM     25  C   UNL     1       0.011   9.585  23.567  0.00  0.00    +0.000 C 
ENDBRANCH  11  24
TORSDOF 4
ENDMDL
MODEL 5
REMARK VINA RESULT:      -6.9      1.319      1.483
REMARK  Name = 
REMARK  7 active torsions:
REMARK  status: ('A' for Active; 'I' for Inactive)
REMARK    1  A    between atoms: C_1  and  O_2
REMARK    2  A    between atoms: O_2  and  C_3
REMARK    3  A    between atoms: N_10  and  C_11
REMARK    4  A    between atoms: C_15  and  O_16
REMARK    5  A    between atoms: C_17  and  C_18
REMARK    6  A    between atoms: C_21  and  O_22
REMARK    7  A    between atoms: O_22  and  C_23
REMARK                            x       y       z     vdW  Elec       q    Type
REMARK                         _______ _______ _______ _____ _____    ______ ____
ROOT
ATOM      1  C   UNL     1       4.449   4.709  16.575  0.00  0.00    +0.000 A 
ATOM      2  C   UNL     1       3.524   3.973  17.337  0.00  0.00    +0.000 A 
ATOM      3  C   UNL     1       2.855   4.515  18.423  0.00  0.00    +0.000 A 
ATOM      4  N   UNL     1       1.912   3.784  19.028  0.00  0.00    +0.000 NA
ATOM      5  C   UNL     1       1.215   4.387  19.992  0.00  0.00    +0.000 A 
ATOM      6  N   UNL     1       1.366   5.649  20.394  0.00  0.00    +0.000 NA
ATOM      7  C   UNL     1       2.326   6.375  19.785  0.00  0.00    +0.000 A 
ATOM      8  N   UNL     1       2.405   7.763  20.076  0.00  0.00    +0.000 N 
ATOM      9  C   UNL     1       3.156   5.824  18.800  0.00  0.00    +0.000 A 
ATOM     10  C   UNL     1       4.182   6.521  18.127  0.00  0.00    +0.000 A 
ATOM     11  C   UNL     1       4.829   5.981  17.014  0.00  0.00    +0.000 A 
ATOM     12  H   UNL     1       3.329   8.033  20.381  0.00  0.00    +0.000 HD
ENDROOT
BRANCH   8  13
ATOM     13  C   UNL     1       1.344   8.546  20.587  0.00  0.00    +0.000 A 
ATOM     14  C   UNL     1       1.014   8.438  21.952  0.00  0.00    +0.000 A 
ATOM     15  C   UNL     1       0.058   9.259  22.542  0.00  0.00    +0.000 A 
ATOM     16  C   UNL     1      -0.588  10.214  21.771  0.00  0.00    +0.000 A 
ATOM     17  C   UNL     1      -0.305  10.303  20.406  0.00  0.00    +0.000 A 
ATOM     18  C   UNL     1       0.631   9.458  19.784  0.00  0.00    +0.000 A 
ATOM     19  C   UNL     1       0.871   9.544  18.302  0.00  0.00    +0.000 C 
BRANCH  17  20
ATOM     20  O   UNL     1      -0.942  11.256  19.658  0.00  0.00    +0.000 OA
ATOM     21  H   UNL     1      -1.152  10.873  18.791  0.00  0.00    +0.000 HD
ENDBRANCH  17  20
ENDBRANCH   8  13
BRANCH   1  23
ATOM     22  C   UNL     1       6.342   3.758  15.524  0.00  0.00    +0.000 C 
ATOM     23  O   UNL     1       4.981   4.193  15.423  0.00  0.00    +0.000 OA
ENDBRANCH   1  23
BRANCH  11  24
ATOM     24  O   UNL     1       5.744   6.854  16.504  0.00  0.00    +0.000 OA
ATOM     25  C   UNL     1       6.956   7.099  17.191  0.00  0.00    +0.000 C 
ENDBRANCH  11  24
TORSDOF 4
ENDMDL
MODEL 6
REMARK VINA RESULT:      -6.8      3.308      5.487
REMARK  Name = 
REMARK  7 active torsions:
REMARK  status: ('A' for Active; 'I' for Inactive)
REMARK    1  A    between atoms: C_1  and  O_2
REMARK    2  A    between atoms: O_2  and  C_3
REMARK    3  A    between atoms: N_10  and  C_11
REMARK    4  A    between atoms: C_15  and  O_16
REMARK    5  A    between atoms: C_17  and  C_18
REMARK    6  A    between atoms: C_21  and  O_22
REMARK    7  A    between atoms: O_22  and  C_23
REMARK                            x       y       z     vdW  Elec       q    Type
REMARK                         _______ _______ _______ _____ _____    ______ ____
ROOT
ATOM      1  C   UNL     1       6.738   3.806  12.397  0.00  0.00    +0.000 A 
ATOM      2  C   UNL     1       7.411   4.581  13.357  0.00  0.00    +0.000 A 
ATOM      3  C   UNL     1       6.837   4.928  14.570  0.00  0.00    +0.000 A 
ATOM      4  N   UNL     1       7.582   5.574  15.474  0.00  0.00    +0.000 NA
ATOM      5  C   UNL     1       7.025   5.784  16.668  0.00  0.00    +0.000 A 
ATOM      6  N   UNL     1       5.805   5.399  17.041  0.00  0.00    +0.000 NA
ATOM      7  C   UNL     1       5.057   4.757  16.119  0.00  0.00    +0.000 A 
ATOM      8  N   UNL     1       3.820   4.194  16.531  0.00  0.00    +0.000 N 
ATOM      9  C   UNL     1       5.520   4.535  14.815  0.00  0.00    +0.000 A 
ATOM     10  C   UNL     1       4.792   3.877  13.801  0.00  0.00    +0.000 A 
ATOM     11  C   UNL     1       5.387   3.503  12.594  0.00  0.00    +0.000 A 
ATOM     12  H   UNL     1       3.051   4.513  15.959  0.00  0.00    +0.000 HD
ENDROOT
BRANCH   8  13
ATOM     13  C   UNL     1       3.487   3.855  17.863  0.00  0.00    +0.000 A 
ATOM     14  C   UNL     1       3.800   2.565  18.336  0.00  0.00    +0.000 A 
ATOM     15  C   UNL     1       3.604   2.204  19.664  0.00  0.00    +0.000 A 
ATOM     16  C   UNL     1       3.088   3.135  20.554  0.00  0.00    +0.000 A 
ATOM     17  C   UNL     1       2.730   4.404  20.091  0.00  0.00    +0.000 A 
ATOM     18  C   UNL     1       2.888   4.776  18.745  0.00  0.00    +0.000 A 
ATOM     19  C   UNL     1       2.440   6.131  18.270  0.00  0.00    +0.000 C 
BRANCH  17  20
ATOM     20  O   UNL     1       2.233   5.317  20.981  0.00  0.00    +0.000 OA
ATOM     21  H   UNL     1       2.754   6.132  20.904  0.00  0.00    +0.000 HD
ENDBRANCH  17  20
ENDBRANCH   8  13
BRANCH   1  23
ATOM     22  C   UNL     1       7.459   1.934  11.144  0.00  0.00    +0.000 C 
ATOM     23  O   UNL     1       7.384   3.358  11.275  0.00  0.00    +0.000 OA
ENDBRANCH   1  23
BRANCH  11  24
ATOM     24  O   UNL     1       4.505   2.840  11.795  0.00  0.00    +0.000 OA
ATOM     25  C   UNL     1       3.776   3.541  10.804  0.00  0.00    +0.000 C 
ENDBRANCH  11  24
TORSDOF 4
ENDMDL
MODEL 7
REMARK VINA RESULT:      -6.5      2.286      7.403
REMARK  Name = 
REMARK  7 active torsions:
REMARK  status: ('A' for Active; 'I' for Inactive)
REMARK    1  A    between atoms: C_1  and  O_2
REMARK    2  A    between atoms: O_2  and  C_3
REMARK    3  A    between atoms: N_10  and  C_11
REMARK    4  A    between atoms: C_15  and  O_16
REMARK    5  A    between atoms: C_17  and  C_18
REMARK    6  A    between atoms: C_21  and  O_22
REMARK    7  A    between atoms: O_22  and  C_23
REMARK                            x       y       z     vdW  Elec       q    Type
REMARK                         _______ _______ _______ _____ _____    ______ ____
ROOT
ATOM      1  C   UNL     1      -0.363  10.513  20.848  0.00  0.00    +0.000 A 
ATOM      2  C   UNL     1       0.329  10.610  19.628  0.00  0.00    +0.000 A 
ATOM      3  C   UNL     1       1.182   9.616  19.174  0.00  0.00    +0.000 A 
ATOM      4  N   UNL     1       1.719   9.736  17.955  0.00  0.00    +0.000 NA
ATOM      5  C   UNL     1       2.440   8.703  17.515  0.00  0.00    +0.000 A 
ATOM      6  N   UNL     1       2.659   7.565  18.175  0.00  0.00    +0.000 NA
ATOM      7  C   UNL     1       2.122   7.458  19.408  0.00  0.00    +0.000 A 
ATOM      8  N   UNL     1       2.203   6.204  20.069  0.00  0.00    +0.000 N 
ATOM      9  C   UNL     1       1.398   8.505  19.992  0.00  0.00    +0.000 A 
ATOM     10  C   UNL     1       0.814   8.465  21.276  0.00  0.00    +0.000 A 
ATOM     11  C   UNL     1      -0.069   9.455  21.713  0.00  0.00    +0.000 A 
ATOM     12  H   UNL     1       2.619   6.286  20.986  0.00  0.00    +0.000 HD
ENDROOT
BRANCH   8  13
ATOM     13  C   UNL     1       2.389   4.959  19.426  0.00  0.00    +0.000 A 
ATOM     14  C   UNL     1       1.268   4.138  19.191  0.00  0.00    +0.000 A 
ATOM     15  C   UNL     1       1.364   2.956  18.465  0.00  0.00    +0.000 A 
ATOM     16  C   UNL     1       2.594   2.570  17.952  0.00  0.00    +0.000 A 
ATOM     17  C   UNL     1       3.723   3.349  18.214  0.00  0.00    +0.000 A 
ATOM     18  C   UNL     1       3.653   4.528  18.976  0.00  0.00    +0.000 A 
ATOM     19  C   UNL     1       4.898   5.312  19.286  0.00  0.00    +0.000 C 
BRANCH  17  20
ATOM     20  O   UNL     1       4.929   2.962  17.694  0.00  0.00    +0.000 OA
ATOM     21  H   UNL     1       4.908   3.112  16.735  0.00  0.00    +0.000 HD
ENDBRANCH  17  20
ENDBRANCH   8  13
BRANCH   1  23
ATOM     22  C   UNL     1      -0.821  12.544  21.970  0.00  0.00    +0.000 C 
ATOM     23  O   UNL     1      -1.309  11.442  21.196  0.00  0.00    +0.000 OA
ENDBRANCH   1  23
BRANCH  11  24
ATOM     24  O   UNL     1      -0.541   9.178  22.961  0.00  0.00    +0.000 OA
ATOM     25  C   UNL     1       0.261   9.435  24.099  0.00  0.00    +0.000 C 
ENDBRANCH  11  24
TORSDOF 4
ENDMDL
MODEL 8
REMARK VINA RESULT:      -6.4      1.589      6.921
REMARK  Name = 
REMARK  7 active torsions:
REMARK  status: ('A' for Active; 'I' for Inactive)
REMARK    1  A    between atoms: C_1  and  O_2
REMARK    2  A    between atoms: O_2  and  C_3
REMARK    3  A    between atoms: N_10  and  C_11
REMARK    4  A    between atoms: C_15  and  O_16
REMARK    5  A    between atoms: C_17  and  C_18
REMARK    6  A    between atoms: C_21  and  O_22
REMARK    7  A    between atoms: O_22  and  C_23
REMARK                            x       y       z     vdW  Elec       q    Type
REMARK                         _______ _______ _______ _____ _____    ______ ____
ROOT
ATOM      1  C   UNL     1       1.263   8.351  20.996  0.00  0.00    +0.000 A 
ATOM      2  C   UNL     1       1.284   6.981  21.309  0.00  0.00    +0.000 A 
ATOM      3  C   UNL     1       1.820   6.029  20.456  0.00  0.00    +0.000 A 
ATOM      4  N   UNL     1       1.899   4.761  20.874  0.00  0.00    +0.000 NA
ATOM      5  C   UNL     1       2.527   3.903  20.068  0.00  0.00    +0.000 A 
ATOM      6  N   UNL     1       3.089   4.200  18.896  0.00  0.00    +0.000 NA
ATOM      7  C   UNL     1       2.994   5.479  18.478  0.00  0.00    +0.000 A 
ATOM      8  N   UNL     1       3.716   5.862  17.316  0.00  0.00    +0.000 N 
ATOM      9  C   UNL     1       2.306   6.450  19.218  0.00  0.00    +0.000 A 
ATOM     10  C   UNL     1       2.164   7.802  18.840  0.00  0.00    +0.000 A 
ATOM     11  C   UNL     1       1.652   8.760  19.717  0.00  0.00    +0.000 A 
ATOM     12  H   UNL     1       3.120   6.294  16.625  0.00  0.00    +0.000 HD
ENDROOT
BRANCH   8  13
ATOM     13  C   UNL     1       4.846   5.183  16.804  0.00  0.00    +0.000 A 
ATOM     14  C   UNL     1       4.797   4.670  15.493  0.00  0.00    +0.000 A 
ATOM     15  C   UNL     1       5.909   4.092  14.889  0.00  0.00    +0.000 A 
ATOM     16  C   UNL     1       7.103   4.018  15.591  0.00  0.00    +0.000 A 
ATOM     17  C   UNL     1       7.156   4.480  16.908  0.00  0.00    +0.000 A 
ATOM     18  C   UNL     1       6.034   5.035  17.548  0.00  0.00    +0.000 A 
ATOM     19  C   UNL     1       6.112   5.471  18.985  0.00  0.00    +0.000 C 
BRANCH  17  20
ATOM     20  O   UNL     1       8.343   4.411  17.587  0.00  0.00    +0.000 OA
ATOM     21  H   UNL     1       8.582   5.307  17.874  0.00  0.00    +0.000 HD
ENDBRANCH  17  20
ENDBRANCH   8  13
BRANCH   1  23
ATOM     22  C   UNL     1      -0.499   9.157  22.353  0.00  0.00    +0.000 C 
ATOM     23  O   UNL     1       0.861   9.279  21.921  0.00  0.00    +0.000 OA
ENDBRANCH   1  23
BRANCH  11  24
ATOM     24  O   UNL     1       1.655  10.000  19.150  0.00  0.00    +0.000 OA
ATOM     25  C   UNL     1       0.445  10.584  18.704  0.00  0.00    +0.000 C 
ENDBRANCH  11  24
TORSDOF 4
ENDMDL
MODEL 9
REMARK VINA RESULT:      -6.3      1.710      6.925
REMARK  Name = 
REMARK  7 active torsions:
REMARK  status: ('A' for Active; 'I' for Inactive)
REMARK    1  A    between atoms: C_1  and  O_2
REMARK    2  A    between atoms: O_2  and  C_3
REMARK    3  A    between atoms: N_10  and  C_11
REMARK    4  A    between atoms: C_15  and  O_16
REMARK    5  A    between atoms: C_17  and  C_18
REMARK    6  A    between atoms: C_21  and  O_22
REMARK    7  A    between atoms: O_22  and  C_23
REMARK                            x       y       z     vdW  Elec       q    Type
REMARK                         _______ _______ _______ _____ _____    ______ ____
ROOT
ATOM      1  C   UNL     1       0.628   8.944  20.871  0.00  0.00    +0.000 A 
ATOM      2  C   UNL     1       0.705   7.595  21.259  0.00  0.00    +0.000 A 
ATOM      3  C   UNL     1       1.508   6.675  20.604  0.00  0.00    +0.000 A 
ATOM      4  N   UNL     1       1.608   5.438  21.102  0.00  0.00    +0.000 NA
ATOM      5  C   UNL     1       2.481   4.623  20.507  0.00  0.00    +0.000 A 
ATOM      6  N   UNL     1       3.266   4.935  19.475  0.00  0.00    +0.000 NA
ATOM      7  C   UNL     1       3.150   6.182  18.974  0.00  0.00    +0.000 A 
ATOM      8  N   UNL     1       4.079   6.597  17.983  0.00  0.00    +0.000 N 
ATOM      9  C   UNL     1       2.223   7.101  19.484  0.00  0.00    +0.000 A 
ATOM     10  C   UNL     1       2.045   8.417  19.006  0.00  0.00    +0.000 A 
ATOM     11  C   UNL     1       1.258   9.347  19.689  0.00  0.00    +0.000 A 
ATOM     12  H   UNL     1       3.619   6.940  17.153  0.00  0.00    +0.000 HD
ENDROOT
BRANCH   8  13
ATOM     13  C   UNL     1       5.355   6.023  17.777  0.00  0.00    +0.000 A 
ATOM     14  C   UNL     1       6.147   5.704  18.898  0.00  0.00    +0.000 A 
ATOM     15  C   UNL     1       7.360   5.036  18.772  0.00  0.00    +0.000 A 
ATOM     16  C   UNL     1       7.806   4.667  17.511  0.00  0.00    +0.000 A 
ATOM     17  C   UNL     1       7.055   5.015  16.386  0.00  0.00    +0.000 A 
ATOM     18  C   UNL     1       5.844   5.722  16.491  0.00  0.00    +0.000 A 
ATOM     19  C   UNL     1       5.089   6.129  15.256  0.00  0.00    +0.000 C 
BRANCH  17  20
ATOM     20  O   UNL     1       7.501   4.636  15.149  0.00  0.00    +0.000 OA
ATOM     21  H   UNL     1       7.284   5.341  14.518  0.00  0.00    +0.000 HD
ENDBRANCH  17  20
ENDBRANCH   8  13
BRANCH   1  23
ATOM     22  C   UNL     1      -0.021   9.627  23.041  0.00  0.00    +0.000 C 
ATOM     23  O   UNL     1      -0.060   9.856  21.627  0.00  0.00    +0.000 OA
ENDBRANCH   1  23
BRANCH  11  24
ATOM     24  O   UNL     1       1.276  10.559  19.068  0.00  0.00    +0.000 OA
ATOM     25  C   UNL     1       0.079  11.114  18.553  0.00  0.00    +0.000 C 
ENDBRANCH  11  24
TORSDOF 4
ENDMDL
