MODEL 1
REMARK VINA RESULT:      -7.5      0.000      0.000
REMARK  Name = 
REMARK  9 active torsions:
REMARK  status: ('A' for Active; 'I' for Inactive)
REMARK    1  A    between atoms: C_1  and  C_2
REMARK    2  A    between atoms: C_2  and  C_3
REMARK    3  A    between atoms: C_3  and  C_28
REMARK    4  A    between atoms: C_4  and  C_5
REMARK    5  A    between atoms: C_4  and  C_16
REMARK    6  A    between atoms: C_8  and  C_9
REMARK    7  A    between atoms: C_10  and  C_11
REMARK    8  A    between atoms: C_11  and  O_13
REMARK    9  A    between atoms: C_19  and  N_20
REMARK                            x       y       z     vdW  Elec       q    Type
REMARK                         _______ _______ _______ _____ _____    ______ ____
ROOT
ATOM      1  C   UNL     1       0.984  12.794  19.527  0.00  0.00    +0.000 C 
ATOM      2  C   UNL     1       0.301  11.788  20.152  0.00  0.00    +0.000 C 
ENDROOT
BRANCH   2   3
ATOM      3  C   UNL     1      -0.936  12.074  20.956  0.00  0.00    +0.000 A 
ATOM      4  C   UNL     1      -0.882  12.044  22.358  0.00  0.00    +0.000 A 
ATOM      5  C   UNL     1      -2.024  12.289  23.133  0.00  0.00    +0.000 A 
ATOM      6  C   UNL     1      -3.247  12.609  22.524  0.00  0.00    +0.000 A 
ATOM      7  C   UNL     1      -3.297  12.643  21.127  0.00  0.00    +0.000 A 
ATOM      8  C   UNL     1      -2.151  12.380  20.349  0.00  0.00    +0.000 A 
BRANCH   6   9
ATOM      9  C   UNL     1      -4.424  12.851  23.380  0.00  0.00    +0.000 C 
ATOM     10  C   UNL     1      -5.667  13.058  22.909  0.00  0.00    +0.000 C 
BRANCH  10  11
ATOM     11  C   UNL     1      -6.780  13.312  23.847  0.00  0.00    +0.000 C 
ATOM     12  O   UNL     1      -7.639  12.501  24.140  0.00  0.00    +0.000 OA
BRANCH  11  13
ATOM     13  O   UNL     1      -6.742  14.563  24.345  0.00  0.00    +0.000 OA
ATOM     14  H   UNL     1      -7.602  14.986  24.495  0.00  0.00    +0.000 HD
ENDBRANCH  11  13
ENDBRANCH  10  11
ENDBRANCH   6   9
ENDBRANCH   2   3
BRANCH   2  15
ATOM     15  C   UNL     1       0.768  10.378  20.029  0.00  0.00    +0.000 A 
ATOM     16  C   UNL     1       1.184   9.895  18.787  0.00  0.00    +0.000 A 
ATOM     17  C   UNL     1       1.720   8.604  18.663  0.00  0.00    +0.000 A 
ATOM     18  C   UNL     1       1.878   7.756  19.766  0.00  0.00    +0.000 A 
ATOM     19  C   UNL     1       1.426   8.246  21.001  0.00  0.00    +0.000 A 
ATOM     20  C   UNL     1       0.878   9.536  21.136  0.00  0.00    +0.000 A 
BRANCH  18  21
ATOM     21  N   UNL     1       2.462   6.513  19.647  0.00  0.00    +0.000 N 
ATOM     22  C   UNL     1       3.324   6.136  18.515  0.00  0.00    +0.000 C 
ATOM     23  C   UNL     1       2.748   4.906  17.802  0.00  0.00    +0.000 C 
ATOM     24  O   UNL     1       2.550   3.815  18.719  0.00  0.00    +0.000 OA
ATOM     25  C   UNL     1       1.635   4.201  19.759  0.00  0.00    +0.000 C 
ATOM     26  C   UNL     1       2.153   5.406  20.565  0.00  0.00    +0.000 C 
ENDBRANCH  18  21
ENDBRANCH   2  15
BRANCH   1  27
ATOM     27  C   UNL     1       0.592  14.216  19.733  0.00  0.00    +0.000 A 
ATOM     28  C   UNL     1      -0.131  14.892  18.739  0.00  0.00    +0.000 A 
ATOM     29  C   UNL     1      -0.373  16.266  18.844  0.00  0.00    +0.000 A 
ATOM     30  C   UNL     1       0.080  16.973  19.956  0.00  0.00    +0.000 A 
ATOM     31  C   UNL     1       0.755  16.303  20.974  0.00  0.00    +0.000 A 
ATOM     32  C   UNL     1       1.013  14.932  20.863  0.00  0.00    +0.000 A 
ENDBRANCH   1  27
BRANCH   1  34
ATOM     33  C   UNL     1       3.190  13.625  18.369  0.00  0.00    +0.000 C 
ATOM     34  C   UNL     1       2.072  12.593  18.472  0.00  0.00    +0.000 C 
ENDBRANCH   1  34
TORSDOF 8
ENDMDL
MODEL 2
REMARK VINA RESULT:      -7.5      0.399      1.255
REMARK  Name = 
REMARK  9 active torsions:
REMARK  status: ('A' for Active; 'I' for Inactive)
REMARK    1  A    between atoms: C_1  and  C_2
REMARK    2  A    between atoms: C_2  and  C_3
REMARK    3  A    between atoms: C_3  and  C_28
REMARK    4  A    between atoms: C_4  and  C_5
REMARK    5  A    between atoms: C_4  and  C_16
REMARK    6  A    between atoms: C_8  and  C_9
REMARK    7  A    between atoms: C_10  and  C_11
REMARK    8  A    between atoms: C_11  and  O_13
REMARK    9  A    between atoms: C_19  and  N_20
REMARK                            x       y       z     vdW  Elec       q    Type
REMARK                         _______ _______ _______ _____ _____    ______ ____
ROOT
ATOM      1  C   UNL     1       1.051  12.947  19.501  0.00  0.00    +0.000 C 
ATOM      2  C   UNL     1       0.265  11.944  19.994  0.00  0.00    +0.000 C 
ENDROOT
BRANCH   2   3
ATOM      3  C   UNL     1      -1.070  12.241  20.617  0.00  0.00    +0.000 A 
ATOM      4  C   UNL     1      -2.216  12.323  19.811  0.00  0.00    +0.000 A 
ATOM      5  C   UNL     1      -3.471  12.617  20.363  0.00  0.00    +0.000 A 
ATOM      6  C   UNL     1      -3.619  12.801  21.746  0.00  0.00    +0.000 A 
ATOM      7  C   UNL     1      -2.477  12.716  22.547  0.00  0.00    +0.000 A 
ATOM      8  C   UNL     1      -1.212  12.436  21.988  0.00  0.00    +0.000 A 
BRANCH   6   9
ATOM      9  C   UNL     1      -4.958  13.117  22.280  0.00  0.00    +0.000 C 
ATOM     10  C   UNL     1      -5.345  12.858  23.542  0.00  0.00    +0.000 C 
BRANCH  10  11
ATOM     11  C   UNL     1      -6.715  13.195  23.979  0.00  0.00    +0.000 C 
ATOM     12  O   UNL     1      -7.642  12.408  24.023  0.00  0.00    +0.000 OA
BRANCH  11  13
ATOM     13  O   UNL     1      -6.829  14.492  24.324  0.00  0.00    +0.000 OA
ATOM     14  H   UNL     1      -6.020  14.915  24.653  0.00  0.00    +0.000 HD
ENDBRANCH  11  13
ENDBRANCH  10  11
ENDBRANCH   6   9
ENDBRANCH   2   3
BRANCH   2  15
ATOM     15  C   UNL     1       0.716  10.526  19.904  0.00  0.00    +0.000 A 
ATOM     16  C   UNL     1       1.175  10.025  18.684  0.00  0.00    +0.000 A 
ATOM     17  C   UNL     1       1.697   8.726  18.595  0.00  0.00    +0.000 A 
ATOM     18  C   UNL     1       1.799   7.887  19.711  0.00  0.00    +0.000 A 
ATOM     19  C   UNL     1       1.306   8.396  20.923  0.00  0.00    +0.000 A 
ATOM     20  C   UNL     1       0.770   9.695  21.023  0.00  0.00    +0.000 A 
BRANCH  18  21
ATOM     21  N   UNL     1       2.370   6.635  19.628  0.00  0.00    +0.000 N 
ATOM     22  C   UNL     1       3.196   6.204  18.489  0.00  0.00    +0.000 C 
ATOM     23  C   UNL     1       2.591   4.950  17.845  0.00  0.00    +0.000 C 
ATOM     24  O   UNL     1       2.410   3.900  18.812  0.00  0.00    +0.000 OA
ATOM     25  C   UNL     1       1.529   4.337  19.861  0.00  0.00    +0.000 C 
ATOM     26  C   UNL     1       2.079   5.571  20.600  0.00  0.00    +0.000 C 
ENDBRANCH  18  21
ENDBRANCH   2  15
BRANCH   1  27
ATOM     27  C   UNL     1       0.662  14.373  19.684  0.00  0.00    +0.000 A 
ATOM     28  C   UNL     1       0.997  15.042  20.871  0.00  0.00    +0.000 A 
ATOM     29  C   UNL     1       0.508  16.327  21.127  0.00  0.00    +0.000 A 
ATOM     30  C   UNL     1      -0.298  16.969  20.189  0.00  0.00    +0.000 A 
ATOM     31  C   UNL     1      -0.596  16.335  18.985  0.00  0.00    +0.000 A 
ATOM     32  C   UNL     1      -0.122  15.043  18.733  0.00  0.00    +0.000 A 
ENDBRANCH   1  27
BRANCH   1  34
ATOM     33  C   UNL     1       3.288  13.880  18.488  0.00  0.00    +0.000 C 
ATOM     34  C   UNL     1       2.276  12.745  18.609  0.00  0.00    +0.000 C 
ENDBRANCH   1  34
TORSDOF 8
ENDMDL
MODEL 3
REMARK VINA RESULT:      -7.4      0.364      1.233
REMARK  Name = 
REMARK  9 active torsions:
REMARK  status: ('A' for Active; 'I' for Inactive)
REMARK    1  A    between atoms: C_1  and  C_2
REMARK    2  A    between atoms: C_2  and  C_3
REMARK    3  A    between atoms: C_3  and  C_28
REMARK    4  A    between atoms: C_4  and  C_5
REMARK    5  A    between atoms: C_4  and  C_16
REMARK    6  A    between atoms: C_8  and  C_9
REMARK    7  A    between atoms: C_10  and  C_11
REMARK    8  A    between atoms: C_11  and  O_13
REMARK    9  A    between atoms: C_19  and  N_20
REMARK                            x       y       z     vdW  Elec       q    Type
REMARK                         _______ _______ _______ _____ _____    ______ ____
ROOT
ATOM      1  C   UNL     1       1.019  12.877  19.508  0.00  0.00    +0.000 C 
ATOM      2  C   UNL     1       0.440  11.832  20.172  0.00  0.00    +0.000 C 
ENDROOT
BRANCH   2   3
ATOM      3  C   UNL     1      -0.759  12.043  21.053  0.00  0.00    +0.000 A 
ATOM      4  C   UNL     1      -2.026  12.229  20.478  0.00  0.00    +0.000 A 
ATOM      5  C   UNL     1      -3.158  12.446  21.274  0.00  0.00    +0.000 A 
ATOM      6  C   UNL     1      -3.060  12.446  22.674  0.00  0.00    +0.000 A 
ATOM      7  C   UNL     1      -1.798  12.257  23.245  0.00  0.00    +0.000 A 
ATOM      8  C   UNL     1      -0.656  12.055  22.441  0.00  0.00    +0.000 A 
BRANCH   6   9
ATOM      9  C   UNL     1      -4.278  12.687  23.472  0.00  0.00    +0.000 C 
ATOM     10  C   UNL     1      -5.467  13.030  22.945  0.00  0.00    +0.000 C 
BRANCH  10  11
ATOM     11  C   UNL     1      -6.625  13.270  23.830  0.00  0.00    +0.000 C 
ATOM     12  O   UNL     1      -7.472  12.441  24.104  0.00  0.00    +0.000 OA
BRANCH  11  13
ATOM     13  O   UNL     1      -6.643  14.532  24.303  0.00  0.00    +0.000 OA
ATOM     14  H   UNL     1      -5.823  14.840  24.718  0.00  0.00    +0.000 HD
ENDBRANCH  11  13
ENDBRANCH  10  11
ENDBRANCH   6   9
ENDBRANCH   2   3
BRANCH   2  15
ATOM     15  C   UNL     1       0.983  10.453  20.016  0.00  0.00    +0.000 A 
ATOM     16  C   UNL     1       1.020   9.597  21.119  0.00  0.00    +0.000 A 
ATOM     17  C   UNL     1       1.434   8.264  20.978  0.00  0.00    +0.000 A 
ATOM     18  C   UNL     1       1.808   7.729  19.740  0.00  0.00    +0.000 A 
ATOM     19  C   UNL     1       1.796   8.611  18.648  0.00  0.00    +0.000 A 
ATOM     20  C   UNL     1       1.391   9.954  18.778  0.00  0.00    +0.000 A 
BRANCH  18  21
ATOM     21  N   UNL     1       2.155   6.403  19.597  0.00  0.00    +0.000 N 
ATOM     22  C   UNL     1       2.603   5.822  18.321  0.00  0.00    +0.000 C 
ATOM     23  C   UNL     1       1.684   4.662  17.919  0.00  0.00    +0.000 C 
ATOM     24  O   UNL     1       1.599   3.676  18.962  0.00  0.00    +0.000 OA
ATOM     25  C   UNL     1       1.076   4.267  20.164  0.00  0.00    +0.000 C 
ATOM     26  C   UNL     1       1.963   5.418  20.674  0.00  0.00    +0.000 C 
ENDBRANCH  18  21
ENDBRANCH   2  15
BRANCH   1  27
ATOM     27  C   UNL     1       0.555  14.272  19.743  0.00  0.00    +0.000 A 
ATOM     28  C   UNL     1      -0.242  14.914  18.783  0.00  0.00    +0.000 A 
ATOM     29  C   UNL     1      -0.557  16.271  18.910  0.00  0.00    +0.000 A 
ATOM     30  C   UNL     1      -0.105  16.994  20.012  0.00  0.00    +0.000 A 
ATOM     31  C   UNL     1       0.644  16.355  20.998  0.00  0.00    +0.000 A 
ATOM     32  C   UNL     1       0.976  15.002  20.864  0.00  0.00    +0.000 A 
ENDBRANCH   1  27
BRANCH   1  34
ATOM     33  C   UNL     1       3.199  13.741  18.325  0.00  0.00    +0.000 C 
ATOM     34  C   UNL     1       2.049  12.742  18.386  0.00  0.00    +0.000 C 
ENDBRANCH   1  34
TORSDOF 8
ENDMDL
MODEL 4
REMARK VINA RESULT:      -7.4      0.655      1.085
REMARK  Name = 
REMARK  9 active torsions:
REMARK  status: ('A' for Active; 'I' for Inactive)
REMARK    1  A    between atoms: C_1  and  C_2
REMARK    2  A    between atoms: C_2  and  C_3
REMARK    3  A    between atoms: C_3  and  C_28
REMARK    4  A    between atoms: C_4  and  C_5
REMARK    5  A    between atoms: C_4  and  C_16
REMARK    6  A    between atoms: C_8  and  C_9
REMARK    7  A    between atoms: C_10  and  C_11
REMARK    8  A    between atoms: C_11  and  O_13
REMARK    9  A    between atoms: C_19  and  N_20
REMARK                            x       y       z     vdW  Elec       q    Type
REMARK                         _______ _______ _______ _____ _____    ______ ____
ROOT
ATOM      1  C   UNL     1       1.217  12.776  19.391  0.00  0.00    +0.000 C 
ATOM      2  C   UNL     1       0.508  11.737  19.927  0.00  0.00    +0.000 C 
ENDROOT
BRANCH   2   3
ATOM      3  C   UNL     1      -0.716  11.986  20.764  0.00  0.00    +0.000 A 
ATOM      4  C   UNL     1      -0.608  12.031  22.163  0.00  0.00    +0.000 A 
ATOM      5  C   UNL     1      -1.735  12.242  22.969  0.00  0.00    +0.000 A 
ATOM      6  C   UNL     1      -2.998  12.452  22.395  0.00  0.00    +0.000 A 
ATOM      7  C   UNL     1      -3.102  12.410  21.001  0.00  0.00    +0.000 A 
ATOM      8  C   UNL     1      -1.969  12.181  20.192  0.00  0.00    +0.000 A 
BRANCH   6   9
ATOM      9  C   UNL     1      -4.157  12.662  23.283  0.00  0.00    +0.000 C 
ATOM     10  C   UNL     1      -5.398  12.945  22.848  0.00  0.00    +0.000 C 
BRANCH  10  11
ATOM     11  C   UNL     1      -6.491  13.158  23.819  0.00  0.00    +0.000 C 
ATOM     12  O   UNL     1      -7.323  12.323  24.121  0.00  0.00    +0.000 OA
BRANCH  11  13
ATOM     13  O   UNL     1      -6.467  14.402  24.337  0.00  0.00    +0.000 OA
ATOM     14  H   UNL     1      -5.811  15.006  23.957  0.00  0.00    +0.000 HD
ENDBRANCH  11  13
ENDBRANCH  10  11
ENDBRANCH   6   9
ENDBRANCH   2   3
BRANCH   2  15
ATOM     15  C   UNL     1       0.931  10.331  19.672  0.00  0.00    +0.000 A 
ATOM     16  C   UNL     1       1.243   9.930  18.371  0.00  0.00    +0.000 A 
ATOM     17  C   UNL     1       1.738   8.642  18.118  0.00  0.00    +0.000 A 
ATOM     18  C   UNL     1       1.957   7.715  19.144  0.00  0.00    +0.000 A 
ATOM     19  C   UNL     1       1.609   8.124  20.441  0.00  0.00    +0.000 A 
ATOM     20  C   UNL     1       1.102   9.411  20.706  0.00  0.00    +0.000 A 
BRANCH  18  21
ATOM     21  N   UNL     1       2.501   6.473  18.896  0.00  0.00    +0.000 N 
ATOM     22  C   UNL     1       1.932   5.226  19.431  0.00  0.00    +0.000 C 
ATOM     23  C   UNL     1       2.981   4.488  20.274  0.00  0.00    +0.000 C 
ATOM     24  O   UNL     1       4.185   4.256  19.523  0.00  0.00    +0.000 OA
ATOM     25  C   UNL     1       4.752   5.506  19.094  0.00  0.00    +0.000 C 
ATOM     26  C   UNL     1       3.784   6.301  18.198  0.00  0.00    +0.000 C 
ENDBRANCH  18  21
ENDBRANCH   2  15
BRANCH   1  27
ATOM     27  C   UNL     1       0.869  14.184  19.729  0.00  0.00    +0.000 A 
ATOM     28  C   UNL     1       0.055  14.929  18.864  0.00  0.00    +0.000 A 
ATOM     29  C   UNL     1      -0.155  16.295  19.082  0.00  0.00    +0.000 A 
ATOM     30  C   UNL     1       0.423  16.924  20.184  0.00  0.00    +0.000 A 
ATOM     31  C   UNL     1       1.191  16.183  21.079  0.00  0.00    +0.000 A 
ATOM     32  C   UNL     1       1.417  14.820  20.852  0.00  0.00    +0.000 A 
ENDBRANCH   1  27
BRANCH   1  34
ATOM     33  C   UNL     1       3.340  13.741  18.182  0.00  0.00    +0.000 C 
ATOM     34  C   UNL     1       2.292  12.640  18.312  0.00  0.00    +0.000 C 
ENDBRANCH   1  34
TORSDOF 8
ENDMDL
MODEL 5
REMARK VINA RESULT:      -7.3      0.865      1.720
REMARK  Name = 
REMARK  9 active torsions:
REMARK  status: ('A' for Active; 'I' for Inactive)
REMARK    1  A    between atoms: C_1  and  C_2
REMARK    2  A    between atoms: C_2  and  C_3
REMARK    3  A    between atoms: C_3  and  C_28
REMARK    4  A    between atoms: C_4  and  C_5
REMARK    5  A    between atoms: C_4  and  C_16
REMARK    6  A    between atoms: C_8  and  C_9
REMARK    7  A    between atoms: C_10  and  C_11
REMARK    8  A    between atoms: C_11  and  O_13
REMARK    9  A    between atoms: C_19  and  N_20
REMARK                            x       y       z     vdW  Elec       q    Type
REMARK                         _______ _______ _______ _____ _____    ______ ____
ROOT
ATOM      1  C   UNL     1       1.337  12.805  19.184  0.00  0.00    +0.000 C 
ATOM      2  C   UNL     1       0.564  11.754  19.592  0.00  0.00    +0.000 C 
ENDROOT
BRANCH   2   3
ATOM      3  C   UNL     1      -0.756  11.982  20.273  0.00  0.00    +0.000 A 
ATOM      4  C   UNL     1      -1.911  12.195  19.504  0.00  0.00    +0.000 A 
ATOM      5  C   UNL     1      -3.153  12.428  20.112  0.00  0.00    +0.000 A 
ATOM      6  C   UNL     1      -3.279  12.417  21.510  0.00  0.00    +0.000 A 
ATOM      7  C   UNL     1      -2.128  12.202  22.273  0.00  0.00    +0.000 A 
ATOM      8  C   UNL     1      -0.876  11.983  21.659  0.00  0.00    +0.000 A 
BRANCH   6   9
ATOM      9  C   UNL     1      -4.604  12.676  22.105  0.00  0.00    +0.000 C 
ATOM     10  C   UNL     1      -4.812  12.887  23.417  0.00  0.00    +0.000 C 
BRANCH  10  11
ATOM     11  C   UNL     1      -6.181  13.118  23.921  0.00  0.00    +0.000 C 
ATOM     12  O   UNL     1      -7.073  12.290  23.912  0.00  0.00    +0.000 OA
BRANCH  11  13
ATOM     13  O   UNL     1      -6.338  14.370  24.394  0.00  0.00    +0.000 OA
ATOM     14  H   UNL     1      -6.252  15.083  23.743  0.00  0.00    +0.000 HD
ENDBRANCH  11  13
ENDBRANCH  10  11
ENDBRANCH   6   9
ENDBRANCH   2   3
BRANCH   2  15
ATOM     15  C   UNL     1       1.017  10.355  19.351  0.00  0.00    +0.000 A 
ATOM     16  C   UNL     1       1.390   9.963  18.064  0.00  0.00    +0.000 A 
ATOM     17  C   UNL     1       1.913   8.683  17.828  0.00  0.00    +0.000 A 
ATOM     18  C   UNL     1       2.099   7.754  18.859  0.00  0.00    +0.000 A 
ATOM     19  C   UNL     1       1.689   8.153  20.141  0.00  0.00    +0.000 A 
ATOM     20  C   UNL     1       1.155   9.433  20.389  0.00  0.00    +0.000 A 
BRANCH  18  21
ATOM     21  N   UNL     1       2.669   6.521  18.631  0.00  0.00    +0.000 N 
ATOM     22  C   UNL     1       2.096   5.264  19.138  0.00  0.00    +0.000 C 
ATOM     23  C   UNL     1       3.118   4.538  20.021  0.00  0.00    +0.000 C 
ATOM     24  O   UNL     1       4.356   4.324  19.322  0.00  0.00    +0.000 OA
ATOM     25  C   UNL     1       4.923   5.582  18.920  0.00  0.00    +0.000 C 
ATOM     26  C   UNL     1       3.983   6.368  17.986  0.00  0.00    +0.000 C 
ENDBRANCH  18  21
ENDBRANCH   2  15
BRANCH   1  27
ATOM     27  C   UNL     1       0.949  14.204  19.517  0.00  0.00    +0.000 A 
ATOM     28  C   UNL     1       1.332  14.761  20.746  0.00  0.00    +0.000 A 
ATOM     29  C   UNL     1       0.847  16.012  21.144  0.00  0.00    +0.000 A 
ATOM     30  C   UNL     1      -0.001  16.732  20.306  0.00  0.00    +0.000 A 
ATOM     31  C   UNL     1      -0.348  16.212  19.060  0.00  0.00    +0.000 A 
ATOM     32  C   UNL     1       0.121  14.953  18.668  0.00  0.00    +0.000 A 
ENDBRANCH   1  27
BRANCH   1  34
ATOM     33  C   UNL     1       3.546  13.845  18.216  0.00  0.00    +0.000 C 
ATOM     34  C   UNL     1       2.541  12.698  18.248  0.00  0.00    +0.000 C 
ENDBRANCH   1  34
TORSDOF 8
ENDMDL
MODEL 6
REMARK VINA RESULT:      -7.2      0.336      1.055
REMARK  Name = 
REMARK  9 active torsions:
REMARK  status: ('A' for Active; 'I' for Inactive)
REMARK    1  A    between atoms: C_1  and  C_2
REMARK    2  A    between atoms: C_2  and  C_3
REMARK    3  A    between atoms: C_3  and  C_28
REMARK    4  A    between atoms: C_4  and  C_5
REMARK    5  A    between atoms: C_4  and  C_16
REMARK    6  A    between atoms: C_8  and  C_9
REMARK    7  A    between atoms: C_10  and  C_11
REMARK    8  A    between atoms: C_11  and  O_13
REMARK    9  A    between atoms: C_19  and  N_20
REMARK                            x       y       z     vdW  Elec       q    Type
REMARK                         _______ _______ _______ _____ _____    ______ ____
ROOT
ATOM      1  C   UNL     1       0.930  12.956  19.574  0.00  0.00    +0.000 C 
ATOM      2  C   UNL     1       0.218  11.977  20.210  0.00  0.00    +0.000 C 
ENDROOT
BRANCH   2   3
ATOM      3  C   UNL     1      -1.028  12.305  20.983  0.00  0.00    +0.000 A 
ATOM      4  C   UNL     1      -2.249  12.461  20.309  0.00  0.00    +0.000 A 
ATOM      5  C   UNL     1      -3.424  12.785  21.002  0.00  0.00    +0.000 A 
ATOM      6  C   UNL     1      -3.416  12.924  22.398  0.00  0.00    +0.000 A 
ATOM      7  C   UNL     1      -2.199  12.764  23.068  0.00  0.00    +0.000 A 
ATOM      8  C   UNL     1      -1.015  12.455  22.367  0.00  0.00    +0.000 A 
BRANCH   6   9
ATOM      9  C   UNL     1      -4.675  13.274  23.084  0.00  0.00    +0.000 C 
ATOM     10  C   UNL     1      -5.808  12.556  22.988  0.00  0.00    +0.000 C 
BRANCH  10  11
ATOM     11  C   UNL     1      -7.025  12.999  23.699  0.00  0.00    +0.000 C 
ATOM     12  O   UNL     1      -7.214  14.127  24.116  0.00  0.00    +0.000 OA
BRANCH  11  13
ATOM     13  O   UNL     1      -7.917  11.999  23.841  0.00  0.00    +0.000 OA
ATOM     14  H   UNL     1      -8.255  11.857  24.738  0.00  0.00    +0.000 HD
ENDBRANCH  11  13
ENDBRANCH  10  11
ENDBRANCH   6   9
ENDBRANCH   2   3
BRANCH   2  15
ATOM     15  C   UNL     1       0.662  10.557  20.131  0.00  0.00    +0.000 A 
ATOM     16  C   UNL     1       0.993  10.006  18.891  0.00  0.00    +0.000 A 
ATOM     17  C   UNL     1       1.508   8.704  18.799  0.00  0.00    +0.000 A 
ATOM     18  C   UNL     1       1.727   7.911  19.932  0.00  0.00    +0.000 A 
ATOM     19  C   UNL     1       1.360   8.468  21.166  0.00  0.00    +0.000 A 
ATOM     20  C   UNL     1       0.834   9.770  21.270  0.00  0.00    +0.000 A 
BRANCH  18  21
ATOM     21  N   UNL     1       2.290   6.656  19.840  0.00  0.00    +0.000 N 
ATOM     22  C   UNL     1       3.272   6.290  18.807  0.00  0.00    +0.000 C 
ATOM     23  C   UNL     1       2.756   5.100  17.987  0.00  0.00    +0.000 C 
ATOM     24  O   UNL     1       2.422   3.987  18.835  0.00  0.00    +0.000 OA
ATOM     25  C   UNL     1       1.398   4.366  19.771  0.00  0.00    +0.000 C 
ATOM     26  C   UNL     1       1.845   5.530  20.675  0.00  0.00    +0.000 C 
ENDBRANCH  18  21
ENDBRANCH   2  15
BRANCH   1  27
ATOM     27  C   UNL     1       0.560  14.389  19.738  0.00  0.00    +0.000 A 
ATOM     28  C   UNL     1      -0.214  15.026  18.758  0.00  0.00    +0.000 A 
ATOM     29  C   UNL     1      -0.441  16.406  18.814  0.00  0.00    +0.000 A 
ATOM     30  C   UNL     1       0.079  17.157  19.866  0.00  0.00    +0.000 A 
ATOM     31  C   UNL     1       0.806  16.527  20.874  0.00  0.00    +0.000 A 
ATOM     32  C   UNL     1       1.049  15.150  20.810  0.00  0.00    +0.000 A 
ENDBRANCH   1  27
BRANCH   1  34
ATOM     33  C   UNL     1       3.092  13.788  18.337  0.00  0.00    +0.000 C 
ATOM     34  C   UNL     1       2.034  12.710  18.545  0.00  0.00    +0.000 C 
ENDBRANCH   1  34
TORSDOF 8
ENDMDL
MODEL 7
REMARK VINA RESULT:      -7.2      4.738      9.116
REMARK  Name = 
REMARK  9 active torsions:
REMARK  status: ('A' for Active; 'I' for Inactive)
REMARK    1  A    between atoms: C_1  and  C_2
REMARK    2  A    between atoms: C_2  and  C_3
REMARK    3  A    between atoms: C_3  and  C_28
REMARK    4  A    between atoms: C_4  and  C_5
REMARK    5  A    between atoms: C_4  and  C_16
REMARK    6  A    between atoms: C_8  and  C_9
REMARK    7  A    between atoms: C_10  and  C_11
REMARK    8  A    between atoms: C_11  and  O_13
REMARK    9  A    between atoms: C_19  and  N_20
REMARK                            x       y       z     vdW  Elec       q    Type
REMARK                         _______ _______ _______ _____ _____    ______ ____
ROOT
ATOM      1  C   UNL     1      -0.331  11.033  20.518  0.00  0.00    +0.000 C 
ATOM      2  C   UNL     1      -1.460  11.594  19.991  0.00  0.00    +0.000 C 
ENDROOT
BRANCH   2   3
ATOM      3  C   UNL     1      -2.008  11.136  18.668  0.00  0.00    +0.000 A 
ATOM      4  C   UNL     1      -2.681   9.908  18.577  0.00  0.00    +0.000 A 
ATOM      5  C   UNL     1      -3.185   9.447  17.353  0.00  0.00    +0.000 A 
ATOM      6  C   UNL     1      -3.063  10.223  16.191  0.00  0.00    +0.000 A 
ATOM      7  C   UNL     1      -2.395  11.448  16.285  0.00  0.00    +0.000 A 
ATOM      8  C   UNL     1      -1.874  11.903  17.514  0.00  0.00    +0.000 A 
BRANCH   6   9
ATOM      9  C   UNL     1      -3.602   9.694  14.923  0.00  0.00    +0.000 C 
ATOM     10  C   UNL     1      -3.509  10.329  13.742  0.00  0.00    +0.000 C 
BRANCH  10  11
ATOM     11  C   UNL     1      -4.099   9.726  12.529  0.00  0.00    +0.000 C 
ATOM     12  O   UNL     1      -5.239   9.309  12.446  0.00  0.00    +0.000 OA
BRANCH  11  13
ATOM     13  O   UNL     1      -3.218   9.683  11.510  0.00  0.00    +0.000 OA
ATOM     14  H   UNL     1      -2.477   9.067  11.616  0.00  0.00    +0.000 HD
ENDBRANCH  11  13
ENDBRANCH  10  11
ENDBRANCH   6   9
ENDBRANCH   2   3
BRANCH   2  15
ATOM     15  C   UNL     1      -2.182  12.666  20.735  0.00  0.00    +0.000 A 
ATOM     16  C   UNL     1      -1.702  13.976  20.694  0.00  0.00    +0.000 A 
ATOM     17  C   UNL     1      -2.415  15.020  21.303  0.00  0.00    +0.000 A 
ATOM     18  C   UNL     1      -3.634  14.804  21.957  0.00  0.00    +0.000 A 
ATOM     19  C   UNL     1      -4.086  13.477  22.016  0.00  0.00    +0.000 A 
ATOM     20  C   UNL     1      -3.374  12.419  21.416  0.00  0.00    +0.000 A 
BRANCH  18  21
ATOM     21  N   UNL     1      -4.359  15.843  22.500  0.00  0.00    +0.000 N 
ATOM     22  C   UNL     1      -4.271  17.227  22.007  0.00  0.00    +0.000 C 
ATOM     23  C   UNL     1      -3.842  18.163  23.144  0.00  0.00    +0.000 C 
ATOM     24  O   UNL     1      -4.719  18.047  24.278  0.00  0.00    +0.000 OA
ATOM     25  C   UNL     1      -4.708  16.699  24.778  0.00  0.00    +0.000 C 
ATOM     26  C   UNL     1      -5.173  15.685  23.715  0.00  0.00    +0.000 C 
ENDBRANCH  18  21
ENDBRANCH   2  15
BRANCH   1  27
ATOM     27  C   UNL     1       0.458  10.042  19.735  0.00  0.00    +0.000 A 
ATOM     28  C   UNL     1       0.811   8.815  20.315  0.00  0.00    +0.000 A 
ATOM     29  C   UNL     1       1.680   7.939  19.656  0.00  0.00    +0.000 A 
ATOM     30  C   UNL     1       2.183   8.267  18.398  0.00  0.00    +0.000 A 
ATOM     31  C   UNL     1       1.799   9.460  17.789  0.00  0.00    +0.000 A 
ATOM     32  C   UNL     1       0.943  10.346  18.454  0.00  0.00    +0.000 A 
ENDBRANCH   1  27
BRANCH   1  34
ATOM     33  C   UNL     1      -0.642  10.562  23.083  0.00  0.00    +0.000 C 
ATOM     34  C   UNL     1       0.151  11.217  21.957  0.00  0.00    +0.000 C 
ENDBRANCH   1  34
TORSDOF 8
ENDMDL
MODEL 8
REMARK VINA RESULT:      -7.1      0.541      1.098
REMARK  Name = 
REMARK  9 active torsions:
REMARK  status: ('A' for Active; 'I' for Inactive)
REMARK    1  A    between atoms: C_1  and  C_2
REMARK    2  A    between atoms: C_2  and  C_3
REMARK    3  A    between atoms: C_3  and  C_28
REMARK    4  A    between atoms: C_4  and  C_5
REMARK    5  A    between atoms: C_4  and  C_16
REMARK    6  A    between atoms: C_8  and  C_9
REMARK    7  A    between atoms: C_10  and  C_11
REMARK    8  A    between atoms: C_11  and  O_13
REMARK    9  A    between atoms: C_19  and  N_20
REMARK                            x       y       z     vdW  Elec       q    Type
REMARK                         _______ _______ _______ _____ _____    ______ ____
ROOT
ATOM      1  C   UNL     1       1.184  12.932  19.345  0.00  0.00    +0.000 C 
ATOM      2  C   UNL     1       0.515  11.902  19.945  0.00  0.00    +0.000 C 
ENDROOT
BRANCH   2   3
ATOM      3  C   UNL     1      -0.764  12.142  20.697  0.00  0.00    +0.000 A 
ATOM      4  C   UNL     1      -0.743  12.253  22.096  0.00  0.00    +0.000 A 
ATOM      5  C   UNL     1      -1.923  12.458  22.824  0.00  0.00    +0.000 A 
ATOM      6  C   UNL     1      -3.155  12.597  22.167  0.00  0.00    +0.000 A 
ATOM      7  C   UNL     1      -3.173  12.490  20.773  0.00  0.00    +0.000 A 
ATOM      8  C   UNL     1      -1.987  12.267  20.043  0.00  0.00    +0.000 A 
BRANCH   6   9
ATOM      9  C   UNL     1      -4.372  12.804  22.976  0.00  0.00    +0.000 C 
ATOM     10  C   UNL     1      -5.129  13.914  22.926  0.00  0.00    +0.000 C 
BRANCH  10  11
ATOM     11  C   UNL     1      -6.321  14.035  23.791  0.00  0.00    +0.000 C 
ATOM     12  O   UNL     1      -7.050  15.009  23.835  0.00  0.00    +0.000 OA
BRANCH  11  13
ATOM     13  O   UNL     1      -6.511  12.933  24.541  0.00  0.00    +0.000 OA
ATOM     14  H   UNL     1      -7.316  12.923  25.083  0.00  0.00    +0.000 HD
ENDBRANCH  11  13
ENDBRANCH  10  11
ENDBRANCH   6   9
ENDBRANCH   2   3
BRANCH   2  15
ATOM     15  C   UNL     1       1.040  10.511  19.847  0.00  0.00    +0.000 A 
ATOM     16  C   UNL     1       1.063   9.700  20.984  0.00  0.00    +0.000 A 
ATOM     17  C   UNL     1       1.459   8.357  20.898  0.00  0.00    +0.000 A 
ATOM     18  C   UNL     1       1.829   7.768  19.684  0.00  0.00    +0.000 A 
ATOM     19  C   UNL     1       1.830   8.604  18.557  0.00  0.00    +0.000 A 
ATOM     20  C   UNL     1       1.443   9.956  18.632  0.00  0.00    +0.000 A 
BRANCH  18  21
ATOM     21  N   UNL     1       2.159   6.432  19.596  0.00  0.00    +0.000 N 
ATOM     22  C   UNL     1       2.644   5.804  18.357  0.00  0.00    +0.000 C 
ATOM     23  C   UNL     1       1.721   4.646  17.957  0.00  0.00    +0.000 C 
ATOM     24  O   UNL     1       1.581   3.695  19.027  0.00  0.00    +0.000 OA
ATOM     25  C   UNL     1       1.023   4.333  20.189  0.00  0.00    +0.000 C 
ATOM     26  C   UNL     1       1.910   5.486  20.695  0.00  0.00    +0.000 C 
ENDBRANCH  18  21
ENDBRANCH   2  15
BRANCH   1  27
ATOM     27  C   UNL     1       0.729  14.338  19.530  0.00  0.00    +0.000 A 
ATOM     28  C   UNL     1      -0.037  14.961  18.533  0.00  0.00    +0.000 A 
ATOM     29  C   UNL     1      -0.341  16.325  18.615  0.00  0.00    +0.000 A 
ATOM     30  C   UNL     1       0.093  17.073  19.708  0.00  0.00    +0.000 A 
ATOM     31  C   UNL     1       0.811  16.454  20.730  0.00  0.00    +0.000 A 
ATOM     32  C   UNL     1       1.131  15.095  20.641  0.00  0.00    +0.000 A 
ENDBRANCH   1  27
BRANCH   1  34
ATOM     33  C   UNL     1       3.405  13.842  18.279  0.00  0.00    +0.000 C 
ATOM     34  C   UNL     1       2.320  12.771  18.336  0.00  0.00    +0.000 C 
ENDBRANCH   1  34
TORSDOF 8
ENDMDL
MODEL 9
REMARK VINA RESULT:      -7.0      3.718     11.849
REMARK  Name = 
REMARK  9 active torsions:
REMARK  status: ('A' for Active; 'I' for Inactive)
REMARK    1  A    between atoms: C_1  and  C_2
REMARK    2  A    between atoms: C_2  and  C_3
REMARK    3  A    between atoms: C_3  and  C_28
REMARK    4  A    between atoms: C_4  and  C_5
REMARK    5  A    between atoms: C_4  and  C_16
REMARK    6  A    between atoms: C_8  and  C_9
REMARK    7  A    between atoms: C_10  and  C_11
REMARK    8  A    between atoms: C_11  and  O_13
REMARK    9  A    between atoms: C_19  and  N_20
REMARK                            x       y       z     vdW  Elec       q    Type
REMARK                         _______ _______ _______ _____ _____    ______ ____
ROOT
ATOM      1  C   UNL     1       2.549   4.517  19.749  0.00  0.00    +0.000 C 
ATOM      2  C   UNL     1       2.896   5.564  18.942  0.00  0.00    +0.000 C 
ENDROOT
BRANCH   2   3
ATOM      3  C   UNL     1       3.807   5.365  17.764  0.00  0.00    +0.000 A 
ATOM      4  C   UNL     1       3.506   4.385  16.805  0.00  0.00    +0.000 A 
ATOM      5  C   UNL     1       4.347   4.164  15.706  0.00  0.00    +0.000 A 
ATOM      6  C   UNL     1       5.496   4.947  15.515  0.00  0.00    +0.000 A 
ATOM      7  C   UNL     1       5.792   5.925  16.470  0.00  0.00    +0.000 A 
ATOM      8  C   UNL     1       4.953   6.134  17.584  0.00  0.00    +0.000 A 
BRANCH   6   9
ATOM      9  C   UNL     1       6.356   4.673  14.348  0.00  0.00    +0.000 C 
ATOM     10  C   UNL     1       5.988   3.909  13.304  0.00  0.00    +0.000 C 
BRANCH  10  11
ATOM     11  C   UNL     1       6.929   3.677  12.189  0.00  0.00    +0.000 C 
ATOM     12  O   UNL     1       7.606   4.540  11.661  0.00  0.00    +0.000 OA
BRANCH  11  13
ATOM     13  O   UNL     1       6.953   2.384  11.812  0.00  0.00    +0.000 OA
ATOM     14  H   UNL     1       6.104   1.916  11.848  0.00  0.00    +0.000 HD
ENDBRANCH  11  13
ENDBRANCH  10  11
ENDBRANCH   6   9
ENDBRANCH   2   3
BRANCH   2  15
ATOM     15  C   UNL     1       2.358   6.928  19.212  0.00  0.00    +0.000 A 
ATOM     16  C   UNL     1       2.150   7.809  18.149  0.00  0.00    +0.000 A 
ATOM     17  C   UNL     1       1.553   9.061  18.363  0.00  0.00    +0.000 A 
ATOM     18  C   UNL     1       1.126   9.474  19.631  0.00  0.00    +0.000 A 
ATOM     19  C   UNL     1       1.370   8.588  20.692  0.00  0.00    +0.000 A 
ATOM     20  C   UNL     1       1.977   7.333  20.491  0.00  0.00    +0.000 A 
BRANCH  18  21
ATOM     21  N   UNL     1       0.484  10.678  19.823  0.00  0.00    +0.000 N 
ATOM     22  C   UNL     1       1.008  11.957  19.316  0.00  0.00    +0.000 C 
ATOM     23  C   UNL     1       1.210  12.940  20.477  0.00  0.00    +0.000 C 
ATOM     24  O   UNL     1      -0.000  13.113  21.233  0.00  0.00    +0.000 OA
ATOM     25  C   UNL     1      -0.428  11.853  21.780  0.00  0.00    +0.000 C 
ATOM     26  C   UNL     1      -0.703  10.810  20.681  0.00  0.00    +0.000 C 
ENDBRANCH  18  21
ENDBRANCH   2  15
BRANCH   1  27
ATOM     27  C   UNL     1       3.167   3.176  19.556  0.00  0.00    +0.000 A 
ATOM     28  C   UNL     1       4.327   2.833  20.266  0.00  0.00    +0.000 A 
ATOM     29  C   UNL     1       5.010   1.644  19.985  0.00  0.00    +0.000 A 
ATOM     30  C   UNL     1       4.524   0.773  19.012  0.00  0.00    +0.000 A 
ATOM     31  C   UNL     1       3.344   1.077  18.337  0.00  0.00    +0.000 A 
ATOM     32  C   UNL     1       2.669   2.274  18.604  0.00  0.00    +0.000 A 
ENDBRANCH   1  27
BRANCH   1  34
ATOM     33  C   UNL     1       1.193   3.302  21.643  0.00  0.00    +0.000 C 
ATOM     34  C   UNL     1       1.429   4.544  20.789  0.00  0.00    +0.000 C 
ENDBRANCH   1  34
TORSDOF 8
ENDMDL
