MODEL 1
REMARK VINA RESULT:      -8.1      0.000      0.000
REMARK  Name = 
REMARK  2 active torsions:
REMARK  status: ('A' for Active; 'I' for Inactive)
REMARK    1  A    between atoms: C_5  and  N_6
REMARK    2  A    between atoms: N_6  and  C_7
REMARK                            x       y       z     vdW  Elec       q    Type
REMARK                         _______ _______ _______ _____ _____    ______ ____
ROOT
ATOM      1  C   UNL     1       6.230   4.591  18.095  0.00  0.00    +0.000 A 
ATOM      2  N   UNL     1       6.817   5.640  18.733  0.00  0.00    +0.000 NA
ATOM      3  C   UNL     1       7.443   6.590  18.017  0.00  0.00    +0.000 A 
ATOM      4  N   UNL     1       7.577   6.660  16.686  0.00  0.00    +0.000 NA
ATOM      5  C   UNL     1       7.000   5.612  16.084  0.00  0.00    +0.000 A 
ATOM      6  N   UNL     1       6.977   5.420  14.731  0.00  0.00    +0.000 N 
ATOM      7  C   UNL     1       6.330   4.248  14.440  0.00  0.00    +0.000 A 
ATOM      8  C   UNL     1       5.922   3.686  15.634  0.00  0.00    +0.000 A 
ATOM      9  C   UNL     1       6.331   4.556  16.689  0.00  0.00    +0.000 A 
ATOM     10  H   UNL     1       7.387   6.065  14.070  0.00  0.00    +0.000 HD
ENDROOT
BRANCH   1  11
ATOM     11  N   UNL     1       5.514   3.624  18.823  0.00  0.00    +0.000 N 
ATOM     12  H   UNL     1       6.098   2.892  19.201  0.00  0.00    +0.000 HD
BRANCH  11  17
ATOM     13  F   UNL     1       0.086   2.533  19.214  0.00  0.00    +0.000 F 
ATOM     14  C   UNL     1       1.388   2.817  19.085  0.00  0.00    +0.000 A 
ATOM     15  C   UNL     1       1.947   3.839  19.842  0.00  0.00    +0.000 A 
ATOM     16  C   UNL     1       3.313   4.121  19.722  0.00  0.00    +0.000 A 
ATOM     17  C   UNL     1       4.129   3.381  18.852  0.00  0.00    +0.000 A 
ATOM     18  C   UNL     1       3.526   2.372  18.085  0.00  0.00    +0.000 A 
ATOM     19  C   UNL     1       2.164   2.084  18.201  0.00  0.00    +0.000 A 
ENDBRANCH  11  17
ENDBRANCH   1  11
TORSDOF 2
ENDMDL
MODEL 2
REMARK VINA RESULT:      -8.0      0.284      1.156
REMARK  Name = 
REMARK  2 active torsions:
REMARK  status: ('A' for Active; 'I' for Inactive)
REMARK    1  A    between atoms: C_5  and  N_6
REMARK    2  A    between atoms: N_6  and  C_7
REMARK                            x       y       z     vdW  Elec       q    Type
REMARK                         _______ _______ _______ _____ _____    ______ ____
ROOT
ATOM      1  C   UNL     1       6.250   4.605  18.202  0.00  0.00    +0.000 A 
ATOM      2  N   UNL     1       6.864   5.660  18.801  0.00  0.00    +0.000 NA
ATOM      3  C   UNL     1       7.450   6.607  18.047  0.00  0.00    +0.000 A 
ATOM      4  N   UNL     1       7.519   6.666  16.712  0.00  0.00    +0.000 NA
ATOM      5  C   UNL     1       6.918   5.610  16.147  0.00  0.00    +0.000 A 
ATOM      6  N   UNL     1       6.830   5.407  14.798  0.00  0.00    +0.000 N 
ATOM      7  C   UNL     1       6.174   4.230  14.549  0.00  0.00    +0.000 A 
ATOM      8  C   UNL     1       5.826   3.678  15.766  0.00  0.00    +0.000 A 
ATOM      9  C   UNL     1       6.283   4.558  16.793  0.00  0.00    +0.000 A 
ATOM     10  H   UNL     1       7.205   6.048  14.112  0.00  0.00    +0.000 HD
ENDROOT
BRANCH   1  11
ATOM     11  N   UNL     1       5.574   3.642  18.972  0.00  0.00    +0.000 N 
ATOM     12  H   UNL     1       6.186   2.947  19.376  0.00  0.00    +0.000 HD
BRANCH  11  17
ATOM     13  F   UNL     1       0.143   2.500  18.840  0.00  0.00    +0.000 F 
ATOM     14  C   UNL     1       1.453   2.768  18.912  0.00  0.00    +0.000 A 
ATOM     15  C   UNL     1       2.375   1.803  18.528  0.00  0.00    +0.000 A 
ATOM     16  C   UNL     1       3.743   2.092  18.584  0.00  0.00    +0.000 A 
ATOM     17  C   UNL     1       4.198   3.348  19.017  0.00  0.00    +0.000 A 
ATOM     18  C   UNL     1       3.240   4.291  19.421  0.00  0.00    +0.000 A 
ATOM     19  C   UNL     1       1.873   4.008  19.366  0.00  0.00    +0.000 A 
ENDBRANCH  11  17
ENDBRANCH   1  11
TORSDOF 2
ENDMDL
MODEL 3
REMARK VINA RESULT:      -7.5      1.430      1.705
REMARK  Name = 
REMARK  2 active torsions:
REMARK  status: ('A' for Active; 'I' for Inactive)
REMARK    1  A    between atoms: C_5  and  N_6
REMARK    2  A    between atoms: N_6  and  C_7
REMARK                            x       y       z     vdW  Elec       q    Type
REMARK                         _______ _______ _______ _____ _____    ______ ____
ROOT
ATOM      1  C   UNL     1       4.938   4.959  17.118  0.00  0.00    +0.000 A 
ATOM      2  N   UNL     1       5.461   5.792  18.058  0.00  0.00    +0.000 NA
ATOM      3  C   UNL     1       6.625   6.421  17.818  0.00  0.00    +0.000 A 
ATOM      4  N   UNL     1       7.388   6.345  16.721  0.00  0.00    +0.000 NA
ATOM      5  C   UNL     1       6.858   5.510  15.817  0.00  0.00    +0.000 A 
ATOM      6  N   UNL     1       7.418   5.240  14.600  0.00  0.00    +0.000 N 
ATOM      7  C   UNL     1       6.641   4.336  13.924  0.00  0.00    +0.000 A 
ATOM      8  C   UNL     1       5.556   4.034  14.723  0.00  0.00    +0.000 A 
ATOM      9  C   UNL     1       5.677   4.789  15.928  0.00  0.00    +0.000 A 
ATOM     10  H   UNL     1       8.279   5.659  14.278  0.00  0.00    +0.000 HD
ENDROOT
BRANCH   1  11
ATOM     11  N   UNL     1       3.690   4.345  17.323  0.00  0.00    +0.000 N 
ATOM     12  H   UNL     1       3.094   4.362  16.508  0.00  0.00    +0.000 HD
BRANCH  11  17
ATOM     13  F   UNL     1       1.171   2.660  21.973  0.00  0.00    +0.000 F 
ATOM     14  C   UNL     1       1.789   3.101  20.871  0.00  0.00    +0.000 A 
ATOM     15  C   UNL     1       3.062   2.639  20.564  0.00  0.00    +0.000 A 
ATOM     16  C   UNL     1       3.699   3.085  19.400  0.00  0.00    +0.000 A 
ATOM     17  C   UNL     1       3.065   3.989  18.533  0.00  0.00    +0.000 A 
ATOM     18  C   UNL     1       1.789   4.453  18.886  0.00  0.00    +0.000 A 
ATOM     19  C   UNL     1       1.148   4.011  20.046  0.00  0.00    +0.000 A 
ENDBRANCH  11  17
ENDBRANCH   1  11
TORSDOF 2
ENDMDL
MODEL 4
REMARK VINA RESULT:      -7.5      1.169      2.567
REMARK  Name = 
REMARK  2 active torsions:
REMARK  status: ('A' for Active; 'I' for Inactive)
REMARK    1  A    between atoms: C_5  and  N_6
REMARK    2  A    between atoms: N_6  and  C_7
REMARK                            x       y       z     vdW  Elec       q    Type
REMARK                         _______ _______ _______ _____ _____    ______ ____
ROOT
ATOM      1  C   UNL     1       5.636   3.851  16.404  0.00  0.00    +0.000 A 
ATOM      2  N   UNL     1       5.782   3.641  15.068  0.00  0.00    +0.000 NA
ATOM      3  C   UNL     1       6.566   4.460  14.346  0.00  0.00    +0.000 A 
ATOM      4  N   UNL     1       7.269   5.515  14.778  0.00  0.00    +0.000 NA
ATOM      5  C   UNL     1       7.099   5.707  16.092  0.00  0.00    +0.000 A 
ATOM      6  N   UNL     1       7.697   6.708  16.806  0.00  0.00    +0.000 N 
ATOM      7  C   UNL     1       7.303   6.640  18.116  0.00  0.00    +0.000 A 
ATOM      8  C   UNL     1       6.444   5.566  18.242  0.00  0.00    +0.000 A 
ATOM      9  C   UNL     1       6.319   4.954  16.959  0.00  0.00    +0.000 A 
ATOM     10  H   UNL     1       8.329   7.382  16.397  0.00  0.00    +0.000 HD
ENDROOT
BRANCH   1  11
ATOM     11  N   UNL     1       4.874   2.965  17.187  0.00  0.00    +0.000 N 
ATOM     12  H   UNL     1       5.037   1.993  16.968  0.00  0.00    +0.000 HD
BRANCH  11  17
ATOM     13  F   UNL     1       0.483   4.324  20.298  0.00  0.00    +0.000 F 
ATOM     14  C   UNL     1       1.532   3.957  19.553  0.00  0.00    +0.000 A 
ATOM     15  C   UNL     1       1.450   4.023  18.168  0.00  0.00    +0.000 A 
ATOM     16  C   UNL     1       2.555   3.659  17.390  0.00  0.00    +0.000 A 
ATOM     17  C   UNL     1       3.751   3.233  17.990  0.00  0.00    +0.000 A 
ATOM     18  C   UNL     1       3.791   3.156  19.391  0.00  0.00    +0.000 A 
ATOM     19  C   UNL     1       2.691   3.519  20.173  0.00  0.00    +0.000 A 
ENDBRANCH  11  17
ENDBRANCH   1  11
TORSDOF 2
ENDMDL
MODEL 5
REMARK VINA RESULT:      -7.5      1.099      1.357
REMARK  Name = 
REMARK  2 active torsions:
REMARK  status: ('A' for Active; 'I' for Inactive)
REMARK    1  A    between atoms: C_5  and  N_6
REMARK    2  A    between atoms: N_6  and  C_7
REMARK                            x       y       z     vdW  Elec       q    Type
REMARK                         _______ _______ _______ _____ _____    ______ ____
ROOT
ATOM      1  C   UNL     1       5.761   4.094  16.975  0.00  0.00    +0.000 A 
ATOM      2  N   UNL     1       6.194   4.928  17.958  0.00  0.00    +0.000 NA
ATOM      3  C   UNL     1       7.043   5.927  17.659  0.00  0.00    +0.000 A 
ATOM      4  N   UNL     1       7.551   6.241  16.461  0.00  0.00    +0.000 NA
ATOM      5  C   UNL     1       7.118   5.399  15.514  0.00  0.00    +0.000 A 
ATOM      6  N   UNL     1       7.470   5.479  14.195  0.00  0.00    +0.000 N 
ATOM      7  C   UNL     1       6.875   4.463  13.495  0.00  0.00    +0.000 A 
ATOM      8  C   UNL     1       6.118   3.726  14.385  0.00  0.00    +0.000 A 
ATOM      9  C   UNL     1       6.255   4.324  15.674  0.00  0.00    +0.000 A 
ATOM     10  H   UNL     1       8.082   6.193  13.824  0.00  0.00    +0.000 HD
ENDROOT
BRANCH   1  11
ATOM     11  N   UNL     1       4.821   3.087  17.257  0.00  0.00    +0.000 N 
ATOM     12  H   UNL     1       4.887   2.290  16.639  0.00  0.00    +0.000 HD
BRANCH  11  17
ATOM     13  F   UNL     1       0.296   3.650  20.421  0.00  0.00    +0.000 F 
ATOM     14  C   UNL     1       1.377   3.475  19.652  0.00  0.00    +0.000 A 
ATOM     15  C   UNL     1       1.361   3.910  18.333  0.00  0.00    +0.000 A 
ATOM     16  C   UNL     1       2.500   3.746  17.536  0.00  0.00    +0.000 A 
ATOM     17  C   UNL     1       3.663   3.152  18.053  0.00  0.00    +0.000 A 
ATOM     18  C   UNL     1       3.636   2.702  19.382  0.00  0.00    +0.000 A 
ATOM     19  C   UNL     1       2.502   2.865  20.183  0.00  0.00    +0.000 A 
ENDBRANCH  11  17
ENDBRANCH   1  11
TORSDOF 2
ENDMDL
MODEL 6
REMARK VINA RESULT:      -7.5      1.173      2.438
REMARK  Name = 
REMARK  2 active torsions:
REMARK  status: ('A' for Active; 'I' for Inactive)
REMARK    1  A    between atoms: C_5  and  N_6
REMARK    2  A    between atoms: N_6  and  C_7
REMARK                            x       y       z     vdW  Elec       q    Type
REMARK                         _______ _______ _______ _____ _____    ______ ____
ROOT
ATOM      1  C   UNL     1       5.668   3.905  16.418  0.00  0.00    +0.000 A 
ATOM      2  N   UNL     1       5.852   3.583  15.109  0.00  0.00    +0.000 NA
ATOM      3  C   UNL     1       6.653   4.344  14.342  0.00  0.00    +0.000 A 
ATOM      4  N   UNL     1       7.338   5.436  14.702  0.00  0.00    +0.000 NA
ATOM      5  C   UNL     1       7.130   5.737  15.991  0.00  0.00    +0.000 A 
ATOM      6  N   UNL     1       7.703   6.799  16.634  0.00  0.00    +0.000 N 
ATOM      7  C   UNL     1       7.272   6.840  17.934  0.00  0.00    +0.000 A 
ATOM      8  C   UNL     1       6.416   5.774  18.126  0.00  0.00    +0.000 A 
ATOM      9  C   UNL     1       6.329   5.055  16.896  0.00  0.00    +0.000 A 
ATOM     10  H   UNL     1       8.344   7.441  16.187  0.00  0.00    +0.000 HD
ENDROOT
BRANCH   1  11
ATOM     11  N   UNL     1       4.888   3.083  17.251  0.00  0.00    +0.000 N 
ATOM     12  H   UNL     1       5.057   2.096  17.116  0.00  0.00    +0.000 HD
BRANCH  11  17
ATOM     13  F   UNL     1       0.367   4.083  20.312  0.00  0.00    +0.000 F 
ATOM     14  C   UNL     1       1.460   3.882  19.566  0.00  0.00    +0.000 A 
ATOM     15  C   UNL     1       2.690   3.698  20.183  0.00  0.00    +0.000 A 
ATOM     16  C   UNL     1       3.829   3.466  19.403  0.00  0.00    +0.000 A 
ATOM     17  C   UNL     1       3.745   3.411  18.003  0.00  0.00    +0.000 A 
ATOM     18  C   UNL     1       2.490   3.626  17.411  0.00  0.00    +0.000 A 
ATOM     19  C   UNL     1       1.350   3.856  18.185  0.00  0.00    +0.000 A 
ENDBRANCH  11  17
ENDBRANCH   1  11
TORSDOF 2
ENDMDL
MODEL 7
REMARK VINA RESULT:      -7.5      1.390      1.584
REMARK  Name = 
REMARK  2 active torsions:
REMARK  status: ('A' for Active; 'I' for Inactive)
REMARK    1  A    between atoms: C_5  and  N_6
REMARK    2  A    between atoms: N_6  and  C_7
REMARK                            x       y       z     vdW  Elec       q    Type
REMARK                         _______ _______ _______ _____ _____    ______ ____
ROOT
ATOM      1  C   UNL     1       5.054   4.461  17.435  0.00  0.00    +0.000 A 
ATOM      2  N   UNL     1       5.596   5.073  18.522  0.00  0.00    +0.000 NA
ATOM      3  C   UNL     1       6.754   5.746  18.400  0.00  0.00    +0.000 A 
ATOM      4  N   UNL     1       7.493   5.914  17.297  0.00  0.00    +0.000 NA
ATOM      5  C   UNL     1       6.944   5.293  16.245  0.00  0.00    +0.000 A 
ATOM      6  N   UNL     1       7.479   5.296  14.987  0.00  0.00    +0.000 N 
ATOM      7  C   UNL     1       6.689   4.555  14.147  0.00  0.00    +0.000 A 
ATOM      8  C   UNL     1       5.621   4.081  14.884  0.00  0.00    +0.000 A 
ATOM      9  C   UNL     1       5.767   4.558  16.221  0.00  0.00    +0.000 A 
ATOM     10  H   UNL     1       8.332   5.780  14.745  0.00  0.00    +0.000 HD
ENDROOT
BRANCH   1  11
ATOM     11  N   UNL     1       3.811   3.811  17.528  0.00  0.00    +0.000 N 
ATOM     12  H   UNL     1       3.299   3.793  16.658  0.00  0.00    +0.000 HD
BRANCH  11  17
ATOM     13  F   UNL     1       0.935   2.707  22.145  0.00  0.00    +0.000 F 
ATOM     14  C   UNL     1       1.623   2.934  21.020  0.00  0.00    +0.000 A 
ATOM     15  C   UNL     1       1.008   3.581  19.956  0.00  0.00    +0.000 A 
ATOM     16  C   UNL     1       1.734   3.838  18.788  0.00  0.00    +0.000 A 
ATOM     17  C   UNL     1       3.080   3.455  18.677  0.00  0.00    +0.000 A 
ATOM     18  C   UNL     1       3.663   2.782  19.762  0.00  0.00    +0.000 A 
ATOM     19  C   UNL     1       2.943   2.524  20.931  0.00  0.00    +0.000 A 
ENDBRANCH  11  17
ENDBRANCH   1  11
TORSDOF 2
ENDMDL
MODEL 8
REMARK VINA RESULT:      -7.4      1.630      2.752
REMARK  Name = 
REMARK  2 active torsions:
REMARK  status: ('A' for Active; 'I' for Inactive)
REMARK    1  A    between atoms: C_5  and  N_6
REMARK    2  A    between atoms: N_6  and  C_7
REMARK                            x       y       z     vdW  Elec       q    Type
REMARK                         _______ _______ _______ _____ _____    ______ ____
ROOT
ATOM      1  C   UNL     1       4.777   4.683  16.973  0.00  0.00    +0.000 A 
ATOM      2  N   UNL     1       5.160   4.261  15.737  0.00  0.00    +0.000 NA
ATOM      3  C   UNL     1       6.466   4.102  15.461  0.00  0.00    +0.000 A 
ATOM      4  N   UNL     1       7.508   4.308  16.277  0.00  0.00    +0.000 NA
ATOM      5  C   UNL     1       7.105   4.733  17.481  0.00  0.00    +0.000 A 
ATOM      6  N   UNL     1       7.951   5.020  18.516  0.00  0.00    +0.000 N 
ATOM      7  C   UNL     1       7.228   5.447  19.599  0.00  0.00    +0.000 A 
ATOM      8  C   UNL     1       5.892   5.419  19.251  0.00  0.00    +0.000 A 
ATOM      9  C   UNL     1       5.802   4.951  17.905  0.00  0.00    +0.000 A 
ATOM     10  H   UNL     1       8.955   4.924  18.458  0.00  0.00    +0.000 HD
ENDROOT
BRANCH   1  11
ATOM     11  N   UNL     1       3.414   4.790  17.300  0.00  0.00    +0.000 N 
ATOM     12  H   UNL     1       2.942   5.540  16.816  0.00  0.00    +0.000 HD
BRANCH  11  17
ATOM     13  F   UNL     1       0.884   2.603  21.731  0.00  0.00    +0.000 F 
ATOM     14  C   UNL     1       1.460   3.124  20.641  0.00  0.00    +0.000 A 
ATOM     15  C   UNL     1       1.550   4.503  20.502  0.00  0.00    +0.000 A 
ATOM     16  C   UNL     1       2.172   5.047  19.372  0.00  0.00    +0.000 A 
ATOM     17  C   UNL     1       2.712   4.217  18.377  0.00  0.00    +0.000 A 
ATOM     18  C   UNL     1       2.583   2.829  18.537  0.00  0.00    +0.000 A 
ATOM     19  C   UNL     1       1.965   2.280  19.664  0.00  0.00    +0.000 A 
ENDBRANCH  11  17
ENDBRANCH   1  11
TORSDOF 2
ENDMDL
MODEL 9
REMARK VINA RESULT:      -7.4      1.142      1.403
REMARK  Name = 
REMARK  2 active torsions:
REMARK  status: ('A' for Active; 'I' for Inactive)
REMARK    1  A    between atoms: C_5  and  N_6
REMARK    2  A    between atoms: N_6  and  C_7
REMARK                            x       y       z     vdW  Elec       q    Type
REMARK                         _______ _______ _______ _____ _____    ______ ____
ROOT
ATOM      1  C   UNL     1       5.768   4.056  16.765  0.00  0.00    +0.000 A 
ATOM      2  N   UNL     1       6.185   4.874  17.768  0.00  0.00    +0.000 NA
ATOM      3  C   UNL     1       7.041   5.876  17.500  0.00  0.00    +0.000 A 
ATOM      4  N   UNL     1       7.571   6.207  16.316  0.00  0.00    +0.000 NA
ATOM      5  C   UNL     1       7.154   5.380  15.348  0.00  0.00    +0.000 A 
ATOM      6  N   UNL     1       7.529   5.480  14.038  0.00  0.00    +0.000 N 
ATOM      7  C   UNL     1       6.945   4.476  13.311  0.00  0.00    +0.000 A 
ATOM      8  C   UNL     1       6.171   3.727  14.176  0.00  0.00    +0.000 A 
ATOM      9  C   UNL     1       6.286   4.305  15.476  0.00  0.00    +0.000 A 
ATOM     10  H   UNL     1       8.149   6.198  13.689  0.00  0.00    +0.000 HD
ENDROOT
BRANCH   1  11
ATOM     11  N   UNL     1       4.823   3.046  17.015  0.00  0.00    +0.000 N 
ATOM     12  H   UNL     1       4.897   2.259  16.385  0.00  0.00    +0.000 HD
BRANCH  11  17
ATOM     13  F   UNL     1       0.117   2.986  19.959  0.00  0.00    +0.000 F 
ATOM     14  C   UNL     1       1.263   3.034  19.269  0.00  0.00    +0.000 A 
ATOM     15  C   UNL     1       2.319   2.207  19.629  0.00  0.00    +0.000 A 
ATOM     16  C   UNL     1       3.510   2.242  18.894  0.00  0.00    +0.000 A 
ATOM     17  C   UNL     1       3.650   3.100  17.791  0.00  0.00    +0.000 A 
ATOM     18  C   UNL     1       2.573   3.940  17.470  0.00  0.00    +0.000 A 
ATOM     19  C   UNL     1       1.381   3.907  18.199  0.00  0.00    +0.000 A 
ENDBRANCH  11  17
ENDBRANCH   1  11
TORSDOF 2
ENDMDL
