MODEL 1
REMARK VINA RESULT:      -7.6      0.000      0.000
REMARK  Name = 
REMARK  5 active torsions:
REMARK  status: ('A' for Active; 'I' for Inactive)
REMARK    1  A    between atoms: C_2  and  C_4
REMARK    2  A    between atoms: C_4  and  N_5
REMARK    3  A    between atoms: N_11  and  C_12
REMARK    4  A    between atoms: C_15  and  C_16
REMARK    5  A    between atoms: C_25  and  N_26
REMARK                            x       y       z     vdW  Elec       q    Type
REMARK                         _______ _______ _______ _____ _____    ______ ____
ROOT
ATOM      1  C   UNL     1       1.825   9.260  19.410  0.00  0.00    +0.000 C 
ATOM      2  C   UNL     1       1.651  10.408  18.386  0.00  0.00    +0.000 C 
ATOM      3  S   UNL     1       1.215  12.040  19.040  0.00  0.00    +0.000 S 
ATOM      4  C   UNL     1      -0.210  11.597  20.093  0.00  0.00    +0.000 C 
ATOM      5  C   UNL     1       0.262  10.540  21.137  0.00  0.00    +0.000 C 
ATOM      6  C   UNL     1       0.812   9.206  20.591  0.00  0.00    +0.000 C 
ENDROOT
BRANCH   4   7
ATOM      7  C   UNL     1      -1.479  11.343  19.290  0.00  0.00    +0.000 A 
ATOM      8  C   UNL     1      -1.568  10.393  18.266  0.00  0.00    +0.000 A 
ATOM      9  C   UNL     1      -2.721  10.231  17.493  0.00  0.00    +0.000 A 
ATOM     10  F   UNL     1      -2.706   9.343  16.492  0.00  0.00    +0.000 F 
ATOM     11  C   UNL     1      -3.860  10.965  17.759  0.00  0.00    +0.000 A 
ATOM     12  C   UNL     1      -3.816  11.869  18.806  0.00  0.00    +0.000 A 
ATOM     13  F   UNL     1      -4.928  12.555  19.109  0.00  0.00    +0.000 F 
ATOM     14  C   UNL     1      -2.647  12.072  19.552  0.00  0.00    +0.000 A 
ATOM     15  F   UNL     1      -2.667  12.960  20.559  0.00  0.00    +0.000 F 
ENDBRANCH   4   7
BRANCH   1  22
ATOM     16  N   UNL     1       5.290   5.473  18.013  0.00  0.00    +0.000 N 
ATOM     17  C   UNL     1       4.830   6.408  17.116  0.00  0.00    +0.000 A 
ATOM     18  C   UNL     1       3.689   6.888  17.687  0.00  0.00    +0.000 A 
ATOM     19  C   UNL     1       3.570   6.279  18.915  0.00  0.00    +0.000 A 
ATOM     20  N   UNL     1       4.542   5.404  19.163  0.00  0.00    +0.000 NA
ATOM     21  C   UNL     1       2.427   6.814  19.681  0.00  0.00    +0.000 C 
ATOM     22  N   UNL     1       1.896   7.909  18.777  0.00  0.00    +0.000 NA
ATOM     23  C   UNL     1       2.657   7.891  17.479  0.00  0.00    +0.000 C 
BRANCH  16  24
ATOM     24  C   UNL     1       6.450   4.618  17.827  0.00  0.00    +0.000 C 
BRANCH  24  26
ATOM     25  N   UNL     1       6.088   3.328  15.771  0.00  0.00    +0.000 N 
ATOM     26  C   UNL     1       6.752   4.357  16.366  0.00  0.00    +0.000 C 
ATOM     27  O   UNL     1       7.610   4.985  15.751  0.00  0.00    +0.000 OA
ATOM     28  H   UNL     1       6.224   3.164  14.782  0.00  0.00    +0.000 HD
ATOM     29  H   UNL     1       5.290   2.896  16.237  0.00  0.00    +0.000 HD
ENDBRANCH  24  26
ENDBRANCH  16  24
ENDBRANCH   1  22
BRANCH   5  30
ATOM     30  N   UNL     1      -0.789  10.249  22.136  0.00  0.00    +0.000 NA
ATOM     31  H   UNL     1      -0.393   9.766  22.942  0.00  0.00    +0.000 HD
ATOM     32  H   UNL     1      -1.471   9.601  21.736  0.00  0.00    +0.000 HD
ENDBRANCH   5  30
TORSDOF 5
ENDMDL
MODEL 2
REMARK VINA RESULT:      -7.6      6.594      9.176
REMARK  Name = 
REMARK  5 active torsions:
REMARK  status: ('A' for Active; 'I' for Inactive)
REMARK    1  A    between atoms: C_2  and  C_4
REMARK    2  A    between atoms: C_4  and  N_5
REMARK    3  A    between atoms: N_11  and  C_12
REMARK    4  A    between atoms: C_15  and  C_16
REMARK    5  A    between atoms: C_25  and  N_26
REMARK                            x       y       z     vdW  Elec       q    Type
REMARK                         _______ _______ _______ _____ _____    ______ ____
ROOT
ATOM      1  C   UNL     1      -0.093  12.090  21.624  0.00  0.00    +0.000 C 
ATOM      2  C   UNL     1      -0.441  10.705  21.026  0.00  0.00    +0.000 C 
ATOM      3  S   UNL     1       0.022  10.411  19.300  0.00  0.00    +0.000 S 
ATOM      4  C   UNL     1      -0.694  11.897  18.514  0.00  0.00    +0.000 C 
ATOM      5  C   UNL     1      -0.071  13.156  19.190  0.00  0.00    +0.000 C 
ATOM      6  C   UNL     1      -0.299  13.330  20.706  0.00  0.00    +0.000 C 
ENDROOT
BRANCH   4   7
ATOM      7  C   UNL     1      -2.205  11.806  18.350  0.00  0.00    +0.000 A 
ATOM      8  C   UNL     1      -3.115  12.184  19.343  0.00  0.00    +0.000 A 
ATOM      9  C   UNL     1      -4.495  12.020  19.196  0.00  0.00    +0.000 A 
ATOM     10  F   UNL     1      -5.295  12.351  20.217  0.00  0.00    +0.000 F 
ATOM     11  C   UNL     1      -5.029  11.535  18.018  0.00  0.00    +0.000 A 
ATOM     12  C   UNL     1      -4.152  11.210  16.998  0.00  0.00    +0.000 A 
ATOM     13  F   UNL     1      -4.656  10.784  15.830  0.00  0.00    +0.000 F 
ATOM     14  C   UNL     1      -2.765  11.325  17.158  0.00  0.00    +0.000 A 
ATOM     15  F   UNL     1      -1.965  10.998  16.130  0.00  0.00    +0.000 F 
ENDBRANCH   4   7
BRANCH   1  22
ATOM     16  N   UNL     1      -4.774  13.460  23.748  0.00  0.00    +0.000 N 
ATOM     17  C   UNL     1      -3.783  14.383  23.510  0.00  0.00    +0.000 A 
ATOM     18  C   UNL     1      -2.648  13.635  23.399  0.00  0.00    +0.000 A 
ATOM     19  C   UNL     1      -3.028  12.316  23.500  0.00  0.00    +0.000 A 
ATOM     20  N   UNL     1      -4.333  12.161  23.705  0.00  0.00    +0.000 NA
ATOM     21  C   UNL     1      -1.890  11.403  23.273  0.00  0.00    +0.000 C 
ATOM     22  N   UNL     1      -0.756  12.351  22.937  0.00  0.00    +0.000 NA
ATOM     23  C   UNL     1      -1.232  13.769  23.101  0.00  0.00    +0.000 C 
BRANCH  16  24
ATOM     24  C   UNL     1      -6.170  13.765  24.015  0.00  0.00    +0.000 C 
BRANCH  24  26
ATOM     25  N   UNL     1      -7.352  11.680  23.491  0.00  0.00    +0.000 N 
ATOM     26  C   UNL     1      -7.116  12.974  23.139  0.00  0.00    +0.000 C 
ATOM     27  O   UNL     1      -7.598  13.438  22.108  0.00  0.00    +0.000 OA
ATOM     28  H   UNL     1      -8.024  11.142  22.959  0.00  0.00    +0.000 HD
ATOM     29  H   UNL     1      -7.061  11.338  24.407  0.00  0.00    +0.000 HD
ENDBRANCH  24  26
ENDBRANCH  16  24
ENDBRANCH   1  22
BRANCH   5  30
ATOM     30  N   UNL     1      -0.471  14.402  18.501  0.00  0.00    +0.000 NA
ATOM     31  H   UNL     1      -0.178  15.218  19.039  0.00  0.00    +0.000 HD
ATOM     32  H   UNL     1      -1.490  14.455  18.457  0.00  0.00    +0.000 HD
ENDBRANCH   5  30
TORSDOF 5
ENDMDL
MODEL 3
REMARK VINA RESULT:      -7.4      1.743      1.975
REMARK  Name = 
REMARK  5 active torsions:
REMARK  status: ('A' for Active; 'I' for Inactive)
REMARK    1  A    between atoms: C_2  and  C_4
REMARK    2  A    between atoms: C_4  and  N_5
REMARK    3  A    between atoms: N_11  and  C_12
REMARK    4  A    between atoms: C_15  and  C_16
REMARK    5  A    between atoms: C_25  and  N_26
REMARK                            x       y       z     vdW  Elec       q    Type
REMARK                         _______ _______ _______ _____ _____    ______ ____
ROOT
ATOM      1  C   UNL     1       1.131  10.088  20.227  0.00  0.00    +0.000 C 
ATOM      2  C   UNL     1       0.947  11.366  19.375  0.00  0.00    +0.000 C 
ATOM      3  S   UNL     1       0.673  12.921  20.265  0.00  0.00    +0.000 S 
ATOM      4  C   UNL     1      -0.685  12.421  21.380  0.00  0.00    +0.000 C 
ATOM      5  C   UNL     1      -0.195  11.213  22.236  0.00  0.00    +0.000 C 
ATOM      6  C   UNL     1       0.220   9.934  21.480  0.00  0.00    +0.000 C 
ENDROOT
BRANCH   4   7
ATOM      7  C   UNL     1      -2.030  12.341  20.671  0.00  0.00    +0.000 A 
ATOM      8  C   UNL     1      -2.197  11.805  19.389  0.00  0.00    +0.000 A 
ATOM      9  C   UNL     1      -3.429  11.812  18.730  0.00  0.00    +0.000 A 
ATOM     10  F   UNL     1      -3.494  11.336  17.481  0.00  0.00    +0.000 F 
ATOM     11  C   UNL     1      -4.564  12.290  19.355  0.00  0.00    +0.000 A 
ATOM     12  C   UNL     1      -4.436  12.770  20.647  0.00  0.00    +0.000 A 
ATOM     13  F   UNL     1      -5.536  13.194  21.287  0.00  0.00    +0.000 F 
ATOM     14  C   UNL     1      -3.193  12.813  21.294  0.00  0.00    +0.000 A 
ATOM     15  F   UNL     1      -3.133  13.285  22.549  0.00  0.00    +0.000 F 
ENDBRANCH   4   7
BRANCH   1  22
ATOM     16  N   UNL     1       4.207   6.267  18.166  0.00  0.00    +0.000 N 
ATOM     17  C   UNL     1       3.781   7.342  17.422  0.00  0.00    +0.000 A 
ATOM     18  C   UNL     1       2.712   7.828  18.114  0.00  0.00    +0.000 A 
ATOM     19  C   UNL     1       2.604   7.075  19.261  0.00  0.00    +0.000 A 
ATOM     20  N   UNL     1       3.513   6.106  19.340  0.00  0.00    +0.000 NA
ATOM     21  C   UNL     1       1.546   7.590  20.154  0.00  0.00    +0.000 C 
ATOM     22  N   UNL     1       1.062   8.828  19.427  0.00  0.00    +0.000 NA
ATOM     23  C   UNL     1       1.755   8.922  18.094  0.00  0.00    +0.000 C 
BRANCH  16  24
ATOM     24  C   UNL     1       5.284   5.361  17.806  0.00  0.00    +0.000 C 
BRANCH  24  26
ATOM     25  N   UNL     1       5.422   3.440  19.327  0.00  0.00    +0.000 N 
ATOM     26  C   UNL     1       5.895   4.677  19.010  0.00  0.00    +0.000 C 
ATOM     27  O   UNL     1       6.726   5.229  19.727  0.00  0.00    +0.000 OA
ATOM     28  H   UNL     1       5.849   2.933  20.090  0.00  0.00    +0.000 HD
ATOM     29  H   UNL     1       4.835   2.932  18.665  0.00  0.00    +0.000 HD
ENDBRANCH  24  26
ENDBRANCH  16  24
ENDBRANCH   1  22
BRANCH   5  30
ATOM     30  N   UNL     1      -1.175  10.851  23.283  0.00  0.00    +0.000 NA
ATOM     31  H   UNL     1      -0.701  10.662  24.167  0.00  0.00    +0.000 HD
ATOM     32  H   UNL     1      -1.639   9.977  23.029  0.00  0.00    +0.000 HD
ENDBRANCH   5  30
TORSDOF 5
ENDMDL
MODEL 4
REMARK VINA RESULT:      -7.3      2.035      2.358
REMARK  Name = 
REMARK  5 active torsions:
REMARK  status: ('A' for Active; 'I' for Inactive)
REMARK    1  A    between atoms: C_2  and  C_4
REMARK    2  A    between atoms: C_4  and  N_5
REMARK    3  A    between atoms: N_11  and  C_12
REMARK    4  A    between atoms: C_15  and  C_16
REMARK    5  A    between atoms: C_25  and  N_26
REMARK                            x       y       z     vdW  Elec       q    Type
REMARK                         _______ _______ _______ _____ _____    ______ ____
ROOT
ATOM      1  C   UNL     1       2.274   9.001  18.598  0.00  0.00    +0.000 C 
ATOM      2  C   UNL     1       2.057  10.332  17.838  0.00  0.00    +0.000 C 
ATOM      3  S   UNL     1       1.552  11.770  18.817  0.00  0.00    +0.000 S 
ATOM      4  C   UNL     1       0.142  11.059  19.735  0.00  0.00    +0.000 C 
ATOM      5  C   UNL     1       0.655   9.824  20.538  0.00  0.00    +0.000 C 
ATOM      6  C   UNL     1       1.261   8.658  19.729  0.00  0.00    +0.000 C 
ENDROOT
BRANCH   4   7
ATOM      7  C   UNL     1      -1.112  10.929  18.882  0.00  0.00    +0.000 A 
ATOM      8  C   UNL     1      -1.198  10.105  17.754  0.00  0.00    +0.000 A 
ATOM      9  C   UNL     1      -2.336  10.062  16.945  0.00  0.00    +0.000 A 
ATOM     10  F   UNL     1      -2.317   9.293  15.849  0.00  0.00    +0.000 F 
ATOM     11  C   UNL     1      -3.465  10.789  17.269  0.00  0.00    +0.000 A 
ATOM     12  C   UNL     1      -3.425  11.566  18.413  0.00  0.00    +0.000 A 
ATOM     13  F   UNL     1      -4.528  12.241  18.771  0.00  0.00    +0.000 F 
ATOM     14  C   UNL     1      -2.269  11.653  19.202  0.00  0.00    +0.000 A 
ATOM     15  F   UNL     1      -2.293  12.420  20.303  0.00  0.00    +0.000 F 
ENDBRANCH   4   7
BRANCH   1  22
ATOM     16  N   UNL     1       3.738   3.887  18.589  0.00  0.00    +0.000 N 
ATOM     17  C   UNL     1       4.593   4.891  18.202  0.00  0.00    +0.000 A 
ATOM     18  C   UNL     1       3.771   5.941  17.918  0.00  0.00    +0.000 A 
ATOM     19  C   UNL     1       2.491   5.538  18.220  0.00  0.00    +0.000 A 
ATOM     20  N   UNL     1       2.424   4.280  18.648  0.00  0.00    +0.000 NA
ATOM     21  C   UNL     1       1.522   6.642  18.064  0.00  0.00    +0.000 C 
ATOM     22  N   UNL     1       2.403   7.818  17.695  0.00  0.00    +0.000 NA
ATOM     23  C   UNL     1       3.820   7.341  17.526  0.00  0.00    +0.000 C 
BRANCH  16  24
ATOM     24  C   UNL     1       4.125   2.527  18.925  0.00  0.00    +0.000 C 
BRANCH  24  26
ATOM     25  N   UNL     1       3.038   2.694  21.119  0.00  0.00    +0.000 N 
ATOM     26  C   UNL     1       4.128   2.276  20.418  0.00  0.00    +0.000 C 
ATOM     27  O   UNL     1       5.095   1.788  21.000  0.00  0.00    +0.000 OA
ATOM     28  H   UNL     1       2.984   2.489  22.109  0.00  0.00    +0.000 HD
ATOM     29  H   UNL     1       2.190   2.976  20.627  0.00  0.00    +0.000 HD
ENDBRANCH  24  26
ENDBRANCH  16  24
ENDBRANCH   1  22
BRANCH   5  30
ATOM     30  N   UNL     1      -0.386   9.287  21.441  0.00  0.00    +0.000 NA
ATOM     31  H   UNL     1       0.040   8.792  22.224  0.00  0.00    +0.000 HD
ATOM     32  H   UNL     1      -0.941   8.587  20.945  0.00  0.00    +0.000 HD
ENDBRANCH   5  30
TORSDOF 5
ENDMDL
MODEL 5
REMARK VINA RESULT:      -7.2      1.360      1.416
REMARK  Name = 
REMARK  5 active torsions:
REMARK  status: ('A' for Active; 'I' for Inactive)
REMARK    1  A    between atoms: C_2  and  C_4
REMARK    2  A    between atoms: C_4  and  N_5
REMARK    3  A    between atoms: N_11  and  C_12
REMARK    4  A    between atoms: C_15  and  C_16
REMARK    5  A    between atoms: C_25  and  N_26
REMARK                            x       y       z     vdW  Elec       q    Type
REMARK                         _______ _______ _______ _____ _____    ______ ____
ROOT
ATOM      1  C   UNL     1       1.473   9.621  19.771  0.00  0.00    +0.000 C 
ATOM      2  C   UNL     1       1.297  10.748  18.726  0.00  0.00    +0.000 C 
ATOM      3  S   UNL     1       1.064  12.431  19.357  0.00  0.00    +0.000 S 
ATOM      4  C   UNL     1      -0.283  12.144  20.556  0.00  0.00    +0.000 C 
ATOM      5  C   UNL     1       0.199  11.081  21.590  0.00  0.00    +0.000 C 
ATOM      6  C   UNL     1       0.580   9.689  21.045  0.00  0.00    +0.000 C 
ENDROOT
BRANCH   4   7
ATOM      7  C   UNL     1      -1.641  11.977  19.888  0.00  0.00    +0.000 A 
ATOM      8  C   UNL     1      -1.858  11.160  18.772  0.00  0.00    +0.000 A 
ATOM      9  C   UNL     1      -3.097  11.083  18.132  0.00  0.00    +0.000 A 
ATOM     10  F   UNL     1      -3.207  10.325  17.034  0.00  0.00    +0.000 F 
ATOM     11  C   UNL     1      -4.193  11.764  18.623  0.00  0.00    +0.000 A 
ATOM     12  C   UNL     1      -4.018  12.532  19.761  0.00  0.00    +0.000 A 
ATOM     13  F   UNL     1      -5.082  13.163  20.281  0.00  0.00    +0.000 F 
ATOM     14  C   UNL     1      -2.765  12.654  20.379  0.00  0.00    +0.000 A 
ATOM     15  F   UNL     1      -2.659  13.410  21.483  0.00  0.00    +0.000 F 
ENDBRANCH   4   7
BRANCH   1  22
ATOM     16  N   UNL     1       4.394   5.315  18.658  0.00  0.00    +0.000 N 
ATOM     17  C   UNL     1       4.115   6.273  17.711  0.00  0.00    +0.000 A 
ATOM     18  C   UNL     1       3.035   6.937  18.214  0.00  0.00    +0.000 A 
ATOM     19  C   UNL     1       2.777   6.399  19.454  0.00  0.00    +0.000 A 
ATOM     20  N   UNL     1       3.598   5.402  19.773  0.00  0.00    +0.000 NA
ATOM     21  C   UNL     1       1.695   7.125  20.148  0.00  0.00    +0.000 C 
ATOM     22  N   UNL     1       1.370   8.250  19.186  0.00  0.00    +0.000 NA
ATOM     23  C   UNL     1       2.172   8.071  17.926  0.00  0.00    +0.000 C 
BRANCH  16  24
ATOM     24  C   UNL     1       5.422   4.294  18.553  0.00  0.00    +0.000 C 
BRANCH  24  26
ATOM     25  N   UNL     1       7.813   4.443  18.022  0.00  0.00    +0.000 N 
ATOM     26  C   UNL     1       6.806   4.829  18.853  0.00  0.00    +0.000 C 
ATOM     27  O   UNL     1       7.043   5.518  19.843  0.00  0.00    +0.000 OA
ATOM     28  H   UNL     1       8.738   4.828  18.161  0.00  0.00    +0.000 HD
ATOM     29  H   UNL     1       7.598   3.984  17.136  0.00  0.00    +0.000 HD
ENDBRANCH  24  26
ENDBRANCH  16  24
ENDBRANCH   1  22
BRANCH   5  30
ATOM     30  N   UNL     1      -0.769  10.912  22.695  0.00  0.00    +0.000 NA
ATOM     31  H   UNL     1      -1.461  10.201  22.459  0.00  0.00    +0.000 HD
ATOM     32  H   UNL     1      -1.298  11.778  22.821  0.00  0.00    +0.000 HD
ENDBRANCH   5  30
TORSDOF 5
ENDMDL
MODEL 6
REMARK VINA RESULT:      -7.2      4.839      9.012
REMARK  Name = 
REMARK  5 active torsions:
REMARK  status: ('A' for Active; 'I' for Inactive)
REMARK    1  A    between atoms: C_2  and  C_4
REMARK    2  A    between atoms: C_4  and  N_5
REMARK    3  A    between atoms: N_11  and  C_12
REMARK    4  A    between atoms: C_15  and  C_16
REMARK    5  A    between atoms: C_25  and  N_26
REMARK                            x       y       z     vdW  Elec       q    Type
REMARK                         _______ _______ _______ _____ _____    ______ ____
ROOT
ATOM      1  C   UNL     1       2.413   5.662  19.350  0.00  0.00    +0.000 C 
ATOM      2  C   UNL     1       2.030   5.457  17.865  0.00  0.00    +0.000 C 
ATOM      3  S   UNL     1       2.128   3.770  17.211  0.00  0.00    +0.000 S 
ATOM      4  C   UNL     1       3.817   3.315  17.739  0.00  0.00    +0.000 C 
ATOM      5  C   UNL     1       3.900   3.460  19.290  0.00  0.00    +0.000 C 
ATOM      6  C   UNL     1       3.636   4.859  19.884  0.00  0.00    +0.000 C 
ENDROOT
BRANCH   4   7
ATOM      7  C   UNL     1       4.896   3.945  16.869  0.00  0.00    +0.000 A 
ATOM      8  C   UNL     1       5.222   3.486  15.588  0.00  0.00    +0.000 A 
ATOM      9  C   UNL     1       6.268   4.034  14.841  0.00  0.00    +0.000 A 
ATOM     10  F   UNL     1       6.557   3.498  13.649  0.00  0.00    +0.000 F 
ATOM     11  C   UNL     1       6.987   5.114  15.314  0.00  0.00    +0.000 A 
ATOM     12  C   UNL     1       6.644   5.624  16.553  0.00  0.00    +0.000 A 
ATOM     13  F   UNL     1       7.299   6.704  17.007  0.00  0.00    +0.000 F 
ATOM     14  C   UNL     1       5.629   5.047  17.329  0.00  0.00    +0.000 A 
ATOM     15  F   UNL     1       5.338   5.591  18.522  0.00  0.00    +0.000 F 
ENDBRANCH   4   7
BRANCH   1  22
ATOM     16  N   UNL     1      -0.188  10.302  19.422  0.00  0.00    +0.000 N 
ATOM     17  C   UNL     1       0.666   9.960  18.400  0.00  0.00    +0.000 A 
ATOM     18  C   UNL     1       1.441   8.970  18.927  0.00  0.00    +0.000 A 
ATOM     19  C   UNL     1       0.964   8.723  20.195  0.00  0.00    +0.000 A 
ATOM     20  N   UNL     1      -0.048   9.515  20.538  0.00  0.00    +0.000 NA
ATOM     21  C   UNL     1       1.656   7.579  20.823  0.00  0.00    +0.000 C 
ATOM     22  N   UNL     1       2.583   7.098  19.725  0.00  0.00    +0.000 NA
ATOM     23  C   UNL     1       2.495   8.040  18.554  0.00  0.00    +0.000 C 
BRANCH  16  24
ATOM     24  C   UNL     1      -1.171  11.372  19.382  0.00  0.00    +0.000 C 
BRANCH  24  26
ATOM     25  N   UNL     1      -1.694  12.265  17.158  0.00  0.00    +0.000 N 
ATOM     26  C   UNL     1      -2.003  11.351  18.118  0.00  0.00    +0.000 C 
ATOM     27  O   UNL     1      -2.967  10.602  17.979  0.00  0.00    +0.000 OA
ATOM     28  H   UNL     1      -2.193  12.240  16.278  0.00  0.00    +0.000 HD
ATOM     29  H   UNL     1      -0.823  12.793  17.215  0.00  0.00    +0.000 HD
ENDBRANCH  24  26
ENDBRANCH  16  24
ENDBRANCH   1  22
BRANCH   5  30
ATOM     30  N   UNL     1       5.184   2.951  19.819  0.00  0.00    +0.000 NA
ATOM     31  H   UNL     1       5.512   3.537  20.587  0.00  0.00    +0.000 HD
ATOM     32  H   UNL     1       5.903   3.022  19.096  0.00  0.00    +0.000 HD
ENDBRANCH   5  30
TORSDOF 5
ENDMDL
MODEL 7
REMARK VINA RESULT:      -7.2      3.108      3.990
REMARK  Name = 
REMARK  5 active torsions:
REMARK  status: ('A' for Active; 'I' for Inactive)
REMARK    1  A    between atoms: C_2  and  C_4
REMARK    2  A    between atoms: C_4  and  N_5
REMARK    3  A    between atoms: N_11  and  C_12
REMARK    4  A    between atoms: C_15  and  C_16
REMARK    5  A    between atoms: C_25  and  N_26
REMARK                            x       y       z     vdW  Elec       q    Type
REMARK                         _______ _______ _______ _____ _____    ______ ____
ROOT
ATOM      1  C   UNL     1       1.246   9.716  18.261  0.00  0.00    +0.000 C 
ATOM      2  C   UNL     1      -0.208   9.225  18.464  0.00  0.00    +0.000 C 
ATOM      3  S   UNL     1      -1.537  10.389  18.061  0.00  0.00    +0.000 S 
ATOM      4  C   UNL     1      -0.980  11.855  18.998  0.00  0.00    +0.000 C 
ATOM      5  C   UNL     1       0.447  12.240  18.501  0.00  0.00    +0.000 C 
ATOM      6  C   UNL     1       1.561  11.186  18.669  0.00  0.00    +0.000 C 
ENDROOT
BRANCH   4   7
ATOM      7  C   UNL     1      -1.246  11.735  20.492  0.00  0.00    +0.000 A 
ATOM      8  C   UNL     1      -0.506  10.909  21.345  0.00  0.00    +0.000 A 
ATOM      9  C   UNL     1      -0.819  10.759  22.698  0.00  0.00    +0.000 A 
ATOM     10  F   UNL     1      -0.100   9.903  23.435  0.00  0.00    +0.000 F 
ATOM     11  C   UNL     1      -1.843  11.486  23.274  0.00  0.00    +0.000 A 
ATOM     12  C   UNL     1      -2.552  12.355  22.463  0.00  0.00    +0.000 A 
ATOM     13  F   UNL     1      -3.518  13.105  23.015  0.00  0.00    +0.000 F 
ATOM     14  C   UNL     1      -2.275  12.472  21.094  0.00  0.00    +0.000 A 
ATOM     15  F   UNL     1      -2.995  13.336  20.360  0.00  0.00    +0.000 F 
ENDBRANCH   4   7
BRANCH   1  22
ATOM     16  N   UNL     1       2.049   4.653  19.684  0.00  0.00    +0.000 N 
ATOM     17  C   UNL     1       1.628   5.606  20.582  0.00  0.00    +0.000 A 
ATOM     18  C   UNL     1       1.958   6.791  19.994  0.00  0.00    +0.000 A 
ATOM     19  C   UNL     1       2.482   6.490  18.757  0.00  0.00    +0.000 A 
ATOM     20  N   UNL     1       2.548   5.183  18.519  0.00  0.00    +0.000 NA
ATOM     21  C   UNL     1       2.766   7.710  17.975  0.00  0.00    +0.000 C 
ATOM     22  N   UNL     1       2.266   8.818  18.880  0.00  0.00    +0.000 NA
ATOM     23  C   UNL     1       1.829   8.226  20.193  0.00  0.00    +0.000 C 
BRANCH  16  24
ATOM     24  C   UNL     1       1.990   3.215  19.884  0.00  0.00    +0.000 C 
BRANCH  24  26
ATOM     25  N   UNL     1       2.331   2.028  17.764  0.00  0.00    +0.000 N 
ATOM     26  C   UNL     1       1.434   2.483  18.681  0.00  0.00    +0.000 C 
ATOM     27  O   UNL     1       0.226   2.365  18.485  0.00  0.00    +0.000 OA
ATOM     28  H   UNL     1       1.996   1.485  16.978  0.00  0.00    +0.000 HD
ATOM     29  H   UNL     1       3.327   2.010  17.986  0.00  0.00    +0.000 HD
ENDBRANCH  24  26
ENDBRANCH  16  24
ENDBRANCH   1  22
BRANCH   5  30
ATOM     30  N   UNL     1       0.906  13.517  19.089  0.00  0.00    +0.000 NA
ATOM     31  H   UNL     1       1.839  13.752  18.751  0.00  0.00    +0.000 HD
ATOM     32  H   UNL     1       1.001  13.411  20.102  0.00  0.00    +0.000 HD
ENDBRANCH   5  30
TORSDOF 5
ENDMDL
MODEL 8
REMARK VINA RESULT:      -7.2      4.330      6.206
REMARK  Name = 
REMARK  5 active torsions:
REMARK  status: ('A' for Active; 'I' for Inactive)
REMARK    1  A    between atoms: C_2  and  C_4
REMARK    2  A    between atoms: C_4  and  N_5
REMARK    3  A    between atoms: N_11  and  C_12
REMARK    4  A    between atoms: C_15  and  C_16
REMARK    5  A    between atoms: C_25  and  N_26
REMARK                            x       y       z     vdW  Elec       q    Type
REMARK                         _______ _______ _______ _____ _____    ______ ____
ROOT
ATOM      1  C   UNL     1      -2.550  13.777  22.913  0.00  0.00    +0.000 C 
ATOM      2  C   UNL     1      -2.612  14.515  21.554  0.00  0.00    +0.000 C 
ATOM      3  S   UNL     1      -4.213  15.203  21.060  0.00  0.00    +0.000 S 
ATOM      4  C   UNL     1      -5.282  13.740  21.298  0.00  0.00    +0.000 C 
ATOM      5  C   UNL     1      -5.158  13.281  22.783  0.00  0.00    +0.000 C 
ATOM      6  C   UNL     1      -3.758  12.864  23.279  0.00  0.00    +0.000 C 
ENDROOT
BRANCH   4   7
ATOM      7  C   UNL     1      -5.135  12.715  20.182  0.00  0.00    +0.000 A 
ATOM      8  C   UNL     1      -3.922  12.440  19.540  0.00  0.00    +0.000 A 
ATOM      9  C   UNL     1      -3.829  11.550  18.467  0.00  0.00    +0.000 A 
ATOM     10  F   UNL     1      -2.643  11.387  17.867  0.00  0.00    +0.000 F 
ATOM     11  C   UNL     1      -4.932  10.840  18.037  0.00  0.00    +0.000 A 
ATOM     12  C   UNL     1      -6.131  11.050  18.696  0.00  0.00    +0.000 A 
ATOM     13  F   UNL     1      -7.203  10.334  18.323  0.00  0.00    +0.000 F 
ATOM     14  C   UNL     1      -6.242  11.980  19.739  0.00  0.00    +0.000 A 
ATOM     15  F   UNL     1      -7.431  12.136  20.343  0.00  0.00    +0.000 F 
ENDBRANCH   4   7
BRANCH   1  22
ATOM     16  N   UNL     1       0.529  10.132  20.560  0.00  0.00    +0.000 N 
ATOM     17  C   UNL     1      -0.404   9.794  21.512  0.00  0.00    +0.000 A 
ATOM     18  C   UNL     1      -0.653  10.964  22.167  0.00  0.00    +0.000 A 
ATOM     19  C   UNL     1       0.077  11.941  21.530  0.00  0.00    +0.000 A 
ATOM     20  N   UNL     1       0.813  11.475  20.525  0.00  0.00    +0.000 NA
ATOM     21  C   UNL     1      -0.209  13.281  22.082  0.00  0.00    +0.000 C 
ATOM     22  N   UNL     1      -1.288  13.002  23.109  0.00  0.00    +0.000 NA
ATOM     23  C   UNL     1      -1.503  11.516  23.210  0.00  0.00    +0.000 C 
BRANCH  16  24
ATOM     24  C   UNL     1       1.178   9.208  19.644  0.00  0.00    +0.000 C 
BRANCH  24  26
ATOM     25  N   UNL     1       0.187  10.541  17.837  0.00  0.00    +0.000 N 
ATOM     26  C   UNL     1       1.206   9.724  18.221  0.00  0.00    +0.000 C 
ATOM     27  O   UNL     1       2.060   9.369  17.412  0.00  0.00    +0.000 OA
ATOM     28  H   UNL     1       0.207  10.947  16.911  0.00  0.00    +0.000 HD
ATOM     29  H   UNL     1      -0.443  10.937  18.536  0.00  0.00    +0.000 HD
ENDBRANCH  24  26
ENDBRANCH  16  24
ENDBRANCH   1  22
BRANCH   5  30
ATOM     30  N   UNL     1      -6.118  12.203  23.105  0.00  0.00    +0.000 NA
ATOM     31  H   UNL     1      -5.830  11.707  23.949  0.00  0.00    +0.000 HD
ATOM     32  H   UNL     1      -6.108  11.503  22.360  0.00  0.00    +0.000 HD
ENDBRANCH   5  30
TORSDOF 5
ENDMDL
MODEL 9
REMARK VINA RESULT:      -7.2      6.311      9.573
REMARK  Name = 
REMARK  5 active torsions:
REMARK  status: ('A' for Active; 'I' for Inactive)
REMARK    1  A    between atoms: C_2  and  C_4
REMARK    2  A    between atoms: C_4  and  N_5
REMARK    3  A    between atoms: N_11  and  C_12
REMARK    4  A    between atoms: C_15  and  C_16
REMARK    5  A    between atoms: C_25  and  N_26
REMARK                            x       y       z     vdW  Elec       q    Type
REMARK                         _______ _______ _______ _____ _____    ______ ____
ROOT
ATOM      1  C   UNL     1      -0.359  12.216  21.939  0.00  0.00    +0.000 C 
ATOM      2  C   UNL     1      -0.716  10.728  21.713  0.00  0.00    +0.000 C 
ATOM      3  S   UNL     1       0.178   9.853  20.402  0.00  0.00    +0.000 S 
ATOM      4  C   UNL     1      -0.057  11.020  19.016  0.00  0.00    +0.000 C 
ATOM      5  C   UNL     1       0.520  12.405  19.438  0.00  0.00    +0.000 C 
ATOM      6  C   UNL     1      -0.108  13.086  20.672  0.00  0.00    +0.000 C 
ENDROOT
BRANCH   4   7
ATOM      7  C   UNL     1      -1.453  10.943  18.412  0.00  0.00    +0.000 A 
ATOM      8  C   UNL     1      -2.525  11.735  18.839  0.00  0.00    +0.000 A 
ATOM      9  C   UNL     1      -3.814  11.592  18.320  0.00  0.00    +0.000 A 
ATOM     10  F   UNL     1      -4.799  12.345  18.825  0.00  0.00    +0.000 F 
ATOM     11  C   UNL     1      -4.072  10.699  17.298  0.00  0.00    +0.000 A 
ATOM     12  C   UNL     1      -3.015   9.946  16.817  0.00  0.00    +0.000 A 
ATOM     13  F   UNL     1      -3.236   9.109  15.792  0.00  0.00    +0.000 F 
ATOM     14  C   UNL     1      -1.730  10.049  17.368  0.00  0.00    +0.000 A 
ATOM     15  F   UNL     1      -0.743   9.296  16.855  0.00  0.00    +0.000 F 
ENDBRANCH   4   7
BRANCH   1  22
ATOM     16  N   UNL     1      -5.538  13.324  22.439  0.00  0.00    +0.000 N 
ATOM     17  C   UNL     1      -4.654  14.210  21.870  0.00  0.00    +0.000 A 
ATOM     18  C   UNL     1      -3.432  13.793  22.308  0.00  0.00    +0.000 A 
ATOM     19  C   UNL     1      -3.641  12.649  23.044  0.00  0.00    +0.000 A 
ATOM     20  N   UNL     1      -4.925  12.317  23.143  0.00  0.00    +0.000 NA
ATOM     21  C   UNL     1      -2.367  12.037  23.473  0.00  0.00    +0.000 C 
ATOM     22  N   UNL     1      -1.327  12.929  22.826  0.00  0.00    +0.000 NA
ATOM     23  C   UNL     1      -2.016  14.088  22.156  0.00  0.00    +0.000 C 
BRANCH  16  24
ATOM     24  C   UNL     1      -6.986  13.388  22.335  0.00  0.00    +0.000 C 
BRANCH  24  26
ATOM     25  N   UNL     1      -7.802  15.379  23.514  0.00  0.00    +0.000 N 
ATOM     26  C   UNL     1      -7.629  14.029  23.546  0.00  0.00    +0.000 C 
ATOM     27  O   UNL     1      -7.916  13.387  24.554  0.00  0.00    +0.000 OA
ATOM     28  H   UNL     1      -8.281  15.830  24.283  0.00  0.00    +0.000 HD
ATOM     29  H   UNL     1      -7.687  15.889  22.638  0.00  0.00    +0.000 HD
ENDBRANCH  24  26
ENDBRANCH  16  24
ENDBRANCH   1  22
BRANCH   5  30
ATOM     30  N   UNL     1       0.522  13.365  18.313  0.00  0.00    +0.000 NA
ATOM     31  H   UNL     1       0.049  12.966  17.502  0.00  0.00    +0.000 HD
ATOM     32  H   UNL     1       1.483  13.536  18.012  0.00  0.00    +0.000 HD
ENDBRANCH   5  30
TORSDOF 5
ENDMDL
