MODEL 1
REMARK VINA RESULT:      -7.3      0.000      0.000
REMARK  Name = 
REMARK  6 active torsions:
REMARK  status: ('A' for Active; 'I' for Inactive)
REMARK    1  A    between atoms: C_1  and  C_2
REMARK    2  A    between atoms: C_2  and  C_3
REMARK    3  A    between atoms: C_3  and  O_4
REMARK    4  A    between atoms: O_4  and  C_5
REMARK    5  A    between atoms: C_10  and  C_11
REMARK    6  A    between atoms: C_17  and  C_18
REMARK                            x       y       z     vdW  Elec       q    Type
REMARK                         _______ _______ _______ _____ _____    ______ ____
ROOT
ATOM      1  C   UNL     1       2.849   4.843  17.928  0.00  0.00    +0.000 A 
ATOM      2  C   UNL     1       1.871   4.615  18.913  0.00  0.00    +0.000 A 
ATOM      3  C   UNL     1       1.573   3.332  19.364  0.00  0.00    +0.000 A 
ATOM      4  C   UNL     1       2.308   2.260  18.890  0.00  0.00    +0.000 A 
ATOM      5  C   UNL     1       3.313   2.484  17.951  0.00  0.00    +0.000 A 
ATOM      6  C   UNL     1       3.548   3.751  17.380  0.00  0.00    +0.000 A 
ENDROOT
BRANCH   6   7
ATOM      7  C   UNL     1       4.629   3.829  16.384  0.00  0.00    +0.000 C 
ATOM      8  C   UNL     1       5.806   4.474  16.477  0.00  0.00    +0.000 C 
ATOM      9  C   UNL     1       6.645   4.626  15.276  0.00  0.00    +0.000 C 
ATOM     10  O   UNL     1       6.478   4.098  14.188  0.00  0.00    +0.000 OA
ATOM     11  O   UNL     1       7.636   5.507  15.612  0.00  0.00    +0.000 OA
ATOM     12  N   UNL     1       7.561   5.847  17.004  0.00  0.00    +0.000 NA
ATOM     13  C   UNL     1       6.533   5.222  17.499  0.00  0.00    +0.000 C 
ATOM     14  C   UNL     1       6.216   5.298  18.959  0.00  0.00    +0.000 C 
ENDBRANCH   6   7
BRANCH   1  15
ATOM     15  O   UNL     1       3.069   6.180  17.733  0.00  0.00    +0.000 OA
BRANCH  15  16
ATOM     16  C   UNL     1       2.486   7.127  18.619  0.00  0.00    +0.000 C 
BRANCH  16  18
ATOM     17  C   UNL     1       1.388   9.409  18.560  0.00  0.00    +0.000 C 
ATOM     18  C   UNL     1       2.274   8.422  17.823  0.00  0.00    +0.000 C 
ENDBRANCH  16  18
ENDBRANCH  15  16
ENDBRANCH   1  15
TORSDOF 4
ENDMDL
MODEL 2
REMARK VINA RESULT:      -7.3      1.503      2.272
REMARK  Name = 
REMARK  6 active torsions:
REMARK  status: ('A' for Active; 'I' for Inactive)
REMARK    1  A    between atoms: C_1  and  C_2
REMARK    2  A    between atoms: C_2  and  C_3
REMARK    3  A    between atoms: C_3  and  O_4
REMARK    4  A    between atoms: O_4  and  C_5
REMARK    5  A    between atoms: C_10  and  C_11
REMARK    6  A    between atoms: C_17  and  C_18
REMARK                            x       y       z     vdW  Elec       q    Type
REMARK                         _______ _______ _______ _____ _____    ______ ____
ROOT
ATOM      1  C   UNL     1       2.548   4.629  18.218  0.00  0.00    +0.000 A 
ATOM      2  C   UNL     1       1.313   3.972  18.072  0.00  0.00    +0.000 A 
ATOM      3  C   UNL     1       1.088   2.710  18.615  0.00  0.00    +0.000 A 
ATOM      4  C   UNL     1       2.075   2.117  19.383  0.00  0.00    +0.000 A 
ATOM      5  C   UNL     1       3.283   2.785  19.574  0.00  0.00    +0.000 A 
ATOM      6  C   UNL     1       3.587   4.001  18.930  0.00  0.00    +0.000 A 
ENDROOT
BRANCH   6   7
ATOM      7  C   UNL     1       4.912   4.577  19.212  0.00  0.00    +0.000 C 
ATOM      8  C   UNL     1       5.957   4.718  18.376  0.00  0.00    +0.000 C 
ATOM      9  C   UNL     1       7.271   5.100  18.919  0.00  0.00    +0.000 C 
ATOM     10  O   UNL     1       7.522   5.462  20.057  0.00  0.00    +0.000 OA
ATOM     11  O   UNL     1       8.168   4.935  17.898  0.00  0.00    +0.000 OA
ATOM     12  N   UNL     1       7.492   4.583  16.682  0.00  0.00    +0.000 NA
ATOM     13  C   UNL     1       6.224   4.497  16.957  0.00  0.00    +0.000 C 
ATOM     14  C   UNL     1       5.220   4.221  15.883  0.00  0.00    +0.000 C 
ENDBRANCH   6   7
BRANCH   1  15
ATOM     15  O   UNL     1       2.504   5.905  17.721  0.00  0.00    +0.000 OA
BRANCH  15  16
ATOM     16  C   UNL     1       2.355   7.003  18.612  0.00  0.00    +0.000 C 
BRANCH  16  18
ATOM     17  C   UNL     1       1.500   9.310  18.010  0.00  0.00    +0.000 C 
ATOM     18  C   UNL     1       2.595   8.282  17.799  0.00  0.00    +0.000 C 
ENDBRANCH  16  18
ENDBRANCH  15  16
ENDBRANCH   1  15
TORSDOF 4
ENDMDL
MODEL 3
REMARK VINA RESULT:      -7.2      2.753      5.697
REMARK  Name = 
REMARK  6 active torsions:
REMARK  status: ('A' for Active; 'I' for Inactive)
REMARK    1  A    between atoms: C_1  and  C_2
REMARK    2  A    between atoms: C_2  and  C_3
REMARK    3  A    between atoms: C_3  and  O_4
REMARK    4  A    between atoms: O_4  and  C_5
REMARK    5  A    between atoms: C_10  and  C_11
REMARK    6  A    between atoms: C_17  and  C_18
REMARK                            x       y       z     vdW  Elec       q    Type
REMARK                         _______ _______ _______ _____ _____    ______ ____
ROOT
ATOM      1  C   UNL     1       6.030   4.432  16.869  0.00  0.00    +0.000 A 
ATOM      2  C   UNL     1       7.401   4.611  17.125  0.00  0.00    +0.000 A 
ATOM      3  C   UNL     1       7.854   5.208  18.300  0.00  0.00    +0.000 A 
ATOM      4  C   UNL     1       6.938   5.565  19.274  0.00  0.00    +0.000 A 
ATOM      5  C   UNL     1       5.581   5.343  19.049  0.00  0.00    +0.000 A 
ATOM      6  C   UNL     1       5.086   4.863  17.820  0.00  0.00    +0.000 A 
ENDROOT
BRANCH   6   7
ATOM      7  C   UNL     1       3.625   4.701  17.721  0.00  0.00    +0.000 C 
ATOM      8  C   UNL     1       2.854   3.736  18.254  0.00  0.00    +0.000 C 
ATOM      9  C   UNL     1       1.446   3.624  17.838  0.00  0.00    +0.000 C 
ATOM     10  O   UNL     1       0.815   4.411  17.152  0.00  0.00    +0.000 OA
ATOM     11  O   UNL     1       0.991   2.438  18.348  0.00  0.00    +0.000 OA
ATOM     12  N   UNL     1       1.990   1.828  19.177  0.00  0.00    +0.000 NA
ATOM     13  C   UNL     1       3.039   2.595  19.146  0.00  0.00    +0.000 C 
ATOM     14  C   UNL     1       4.245   2.285  19.976  0.00  0.00    +0.000 C 
ENDBRANCH   6   7
BRANCH   1  15
ATOM     15  O   UNL     1       5.819   3.711  15.724  0.00  0.00    +0.000 OA
BRANCH  15  16
ATOM     16  C   UNL     1       5.488   4.387  14.518  0.00  0.00    +0.000 C 
BRANCH  16  18
ATOM     17  C   UNL     1       5.611   3.318  12.224  0.00  0.00    +0.000 C 
ATOM     18  C   UNL     1       6.399   3.825  13.418  0.00  0.00    +0.000 C 
ENDBRANCH  16  18
ENDBRANCH  15  16
ENDBRANCH   1  15
TORSDOF 4
ENDMDL
MODEL 4
REMARK VINA RESULT:      -7.2      1.252      3.482
REMARK  Name = 
REMARK  6 active torsions:
REMARK  status: ('A' for Active; 'I' for Inactive)
REMARK    1  A    between atoms: C_1  and  C_2
REMARK    2  A    between atoms: C_2  and  C_3
REMARK    3  A    between atoms: C_3  and  O_4
REMARK    4  A    between atoms: O_4  and  C_5
REMARK    5  A    between atoms: C_10  and  C_11
REMARK    6  A    between atoms: C_17  and  C_18
REMARK                            x       y       z     vdW  Elec       q    Type
REMARK                         _______ _______ _______ _____ _____    ______ ____
ROOT
ATOM      1  C   UNL     1       2.950   5.342  19.100  0.00  0.00    +0.000 A 
ATOM      2  C   UNL     1       2.181   6.170  19.937  0.00  0.00    +0.000 A 
ATOM      3  C   UNL     1       2.010   7.526  19.666  0.00  0.00    +0.000 A 
ATOM      4  C   UNL     1       2.545   8.057  18.505  0.00  0.00    +0.000 A 
ATOM      5  C   UNL     1       3.265   7.230  17.646  0.00  0.00    +0.000 A 
ATOM      6  C   UNL     1       3.565   5.889  17.959  0.00  0.00    +0.000 A 
ENDROOT
BRANCH   6   7
ATOM      7  C   UNL     1       4.355   5.146  16.963  0.00  0.00    +0.000 C 
ATOM      8  C   UNL     1       5.664   4.836  16.997  0.00  0.00    +0.000 C 
ATOM      9  C   UNL     1       6.311   4.295  15.790  0.00  0.00    +0.000 C 
ATOM     10  O   UNL     1       5.766   3.940  14.757  0.00  0.00    +0.000 OA
ATOM     11  O   UNL     1       7.656   4.300  16.043  0.00  0.00    +0.000 OA
ATOM     12  N   UNL     1       7.914   4.702  17.396  0.00  0.00    +0.000 NA
ATOM     13  C   UNL     1       6.766   4.970  17.945  0.00  0.00    +0.000 C 
ATOM     14  C   UNL     1       6.672   5.346  19.391  0.00  0.00    +0.000 C 
ENDBRANCH   6   7
BRANCH   1  15
ATOM     15  O   UNL     1       2.875   4.029  19.481  0.00  0.00    +0.000 OA
BRANCH  15  16
ATOM     16  C   UNL     1       1.743   3.252  19.112  0.00  0.00    +0.000 C 
BRANCH  16  18
ATOM     17  C   UNL     1       3.526   1.646  18.300  0.00  0.00    +0.000 C 
ATOM     18  C   UNL     1       2.191   2.300  17.995  0.00  0.00    +0.000 C 
ENDBRANCH  16  18
ENDBRANCH  15  16
ENDBRANCH   1  15
TORSDOF 4
ENDMDL
MODEL 5
REMARK VINA RESULT:      -7.2      1.507      3.299
REMARK  Name = 
REMARK  6 active torsions:
REMARK  status: ('A' for Active; 'I' for Inactive)
REMARK    1  A    between atoms: C_1  and  C_2
REMARK    2  A    between atoms: C_2  and  C_3
REMARK    3  A    between atoms: C_3  and  O_4
REMARK    4  A    between atoms: O_4  and  C_5
REMARK    5  A    between atoms: C_10  and  C_11
REMARK    6  A    between atoms: C_17  and  C_18
REMARK                            x       y       z     vdW  Elec       q    Type
REMARK                         _______ _______ _______ _____ _____    ______ ____
ROOT
ATOM      1  C   UNL     1       3.666   4.641  19.092  0.00  0.00    +0.000 A 
ATOM      2  C   UNL     1       2.922   5.255  20.115  0.00  0.00    +0.000 A 
ATOM      3  C   UNL     1       2.382   6.530  19.961  0.00  0.00    +0.000 A 
ATOM      4  C   UNL     1       2.513   7.179  18.746  0.00  0.00    +0.000 A 
ATOM      5  C   UNL     1       3.206   6.554  17.711  0.00  0.00    +0.000 A 
ATOM      6  C   UNL     1       3.874   5.325  17.880  0.00  0.00    +0.000 A 
ENDROOT
BRANCH   6   7
ATOM      7  C   UNL     1       4.583   4.799  16.702  0.00  0.00    +0.000 C 
ATOM      8  C   UNL     1       5.816   5.109  16.261  0.00  0.00    +0.000 C 
ATOM      9  C   UNL     1       6.246   4.648  14.930  0.00  0.00    +0.000 C 
ATOM     10  O   UNL     1       5.662   3.868  14.196  0.00  0.00    +0.000 OA
ATOM     11  O   UNL     1       7.420   5.299  14.662  0.00  0.00    +0.000 OA
ATOM     12  N   UNL     1       7.843   6.067  15.797  0.00  0.00    +0.000 NA
ATOM     13  C   UNL     1       6.938   5.923  16.720  0.00  0.00    +0.000 C 
ATOM     14  C   UNL     1       7.114   6.536  18.074  0.00  0.00    +0.000 C 
ENDBRANCH   6   7
BRANCH   1  15
ATOM     15  O   UNL     1       3.987   3.347  19.407  0.00  0.00    +0.000 OA
BRANCH  15  16
ATOM     16  C   UNL     1       2.992   2.485  19.944  0.00  0.00    +0.000 C 
BRANCH  16  18
ATOM     17  C   UNL     1       0.735   2.474  18.793  0.00  0.00    +0.000 C 
ATOM     18  C   UNL     1       2.162   1.961  18.764  0.00  0.00    +0.000 C 
ENDBRANCH  16  18
ENDBRANCH  15  16
ENDBRANCH   1  15
TORSDOF 4
ENDMDL
MODEL 6
REMARK VINA RESULT:      -7.1      2.440      5.547
REMARK  Name = 
REMARK  6 active torsions:
REMARK  status: ('A' for Active; 'I' for Inactive)
REMARK    1  A    between atoms: C_1  and  C_2
REMARK    2  A    between atoms: C_2  and  C_3
REMARK    3  A    between atoms: C_3  and  O_4
REMARK    4  A    between atoms: O_4  and  C_5
REMARK    5  A    between atoms: C_10  and  C_11
REMARK    6  A    between atoms: C_17  and  C_18
REMARK                            x       y       z     vdW  Elec       q    Type
REMARK                         _______ _______ _______ _____ _____    ______ ____
ROOT
ATOM      1  C   UNL     1       6.173   5.794  16.747  0.00  0.00    +0.000 A 
ATOM      2  C   UNL     1       7.295   6.564  17.102  0.00  0.00    +0.000 A 
ATOM      3  C   UNL     1       7.799   6.565  18.400  0.00  0.00    +0.000 A 
ATOM      4  C   UNL     1       7.233   5.731  19.347  0.00  0.00    +0.000 A 
ATOM      5  C   UNL     1       6.153   4.926  18.989  0.00  0.00    +0.000 A 
ATOM      6  C   UNL     1       5.540   5.001  17.722  0.00  0.00    +0.000 A 
ENDROOT
BRANCH   6   7
ATOM      7  C   UNL     1       4.394   4.105  17.496  0.00  0.00    +0.000 C 
ATOM      8  C   UNL     1       3.176   4.146  18.067  0.00  0.00    +0.000 C 
ATOM      9  C   UNL     1       2.252   3.014  17.880  0.00  0.00    +0.000 C 
ATOM     10  O   UNL     1       2.391   2.064  17.127  0.00  0.00    +0.000 OA
ATOM     11  O   UNL     1       1.214   3.223  18.748  0.00  0.00    +0.000 OA
ATOM     12  N   UNL     1       1.351   4.491  19.405  0.00  0.00    +0.000 NA
ATOM     13  C   UNL     1       2.457   5.028  18.981  0.00  0.00    +0.000 C 
ATOM     14  C   UNL     1       2.861   6.402  19.413  0.00  0.00    +0.000 C 
ENDBRANCH   6   7
BRANCH   1  15
ATOM     15  O   UNL     1       5.933   5.842  15.399  0.00  0.00    +0.000 OA
BRANCH  15  16
ATOM     16  C   UNL     1       6.736   5.074  14.512  0.00  0.00    +0.000 C 
BRANCH  16  18
ATOM     17  C   UNL     1       6.120   3.500  12.626  0.00  0.00    +0.000 C 
ATOM     18  C   UNL     1       5.904   3.858  14.084  0.00  0.00    +0.000 C 
ENDBRANCH  16  18
ENDBRANCH  15  16
ENDBRANCH   1  15
TORSDOF 4
ENDMDL
MODEL 7
REMARK VINA RESULT:      -7.0      1.527      2.261
REMARK  Name = 
REMARK  6 active torsions:
REMARK  status: ('A' for Active; 'I' for Inactive)
REMARK    1  A    between atoms: C_1  and  C_2
REMARK    2  A    between atoms: C_2  and  C_3
REMARK    3  A    between atoms: C_3  and  O_4
REMARK    4  A    between atoms: O_4  and  C_5
REMARK    5  A    between atoms: C_10  and  C_11
REMARK    6  A    between atoms: C_17  and  C_18
REMARK                            x       y       z     vdW  Elec       q    Type
REMARK                         _______ _______ _______ _____ _____    ______ ____
ROOT
ATOM      1  C   UNL     1       2.874   5.065  19.789  0.00  0.00    +0.000 A 
ATOM      2  C   UNL     1       1.579   4.547  19.964  0.00  0.00    +0.000 A 
ATOM      3  C   UNL     1       1.296   3.199  19.757  0.00  0.00    +0.000 A 
ATOM      4  C   UNL     1       2.328   2.331  19.446  0.00  0.00    +0.000 A 
ATOM      5  C   UNL     1       3.623   2.829  19.321  0.00  0.00    +0.000 A 
ATOM      6  C   UNL     1       3.917   4.205  19.395  0.00  0.00    +0.000 A 
ENDROOT
BRANCH   6   7
ATOM      7  C   UNL     1       5.329   4.583  19.221  0.00  0.00    +0.000 C 
ATOM      8  C   UNL     1       6.059   4.591  18.091  0.00  0.00    +0.000 C 
ATOM      9  C   UNL     1       7.518   4.774  18.173  0.00  0.00    +0.000 C 
ATOM     10  O   UNL     1       8.169   5.074  19.160  0.00  0.00    +0.000 OA
ATOM     11  O   UNL     1       8.006   4.505  16.923  0.00  0.00    +0.000 OA
ATOM     12  N   UNL     1       6.933   4.275  15.999  0.00  0.00    +0.000 NA
ATOM     13  C   UNL     1       5.822   4.363  16.668  0.00  0.00    +0.000 C 
ATOM     14  C   UNL     1       4.497   4.252  15.980  0.00  0.00    +0.000 C 
ENDBRANCH   6   7
BRANCH   1  15
ATOM     15  O   UNL     1       2.951   6.378  20.171  0.00  0.00    +0.000 OA
BRANCH  15  16
ATOM     16  C   UNL     1       2.048   7.327  19.617  0.00  0.00    +0.000 C 
BRANCH  16  18
ATOM     17  C   UNL     1       1.948   9.017  17.733  0.00  0.00    +0.000 C 
ATOM     18  C   UNL     1       2.631   7.773  18.269  0.00  0.00    +0.000 C 
ENDBRANCH  16  18
ENDBRANCH  15  16
ENDBRANCH   1  15
TORSDOF 4
ENDMDL
MODEL 8
REMARK VINA RESULT:      -7.0      2.356      5.191
REMARK  Name = 
REMARK  6 active torsions:
REMARK  status: ('A' for Active; 'I' for Inactive)
REMARK    1  A    between atoms: C_1  and  C_2
REMARK    2  A    between atoms: C_2  and  C_3
REMARK    3  A    between atoms: C_3  and  O_4
REMARK    4  A    between atoms: O_4  and  C_5
REMARK    5  A    between atoms: C_10  and  C_11
REMARK    6  A    between atoms: C_17  and  C_18
REMARK                            x       y       z     vdW  Elec       q    Type
REMARK                         _______ _______ _______ _____ _____    ______ ____
ROOT
ATOM      1  C   UNL     1       6.635   4.421  17.032  0.00  0.00    +0.000 A 
ATOM      2  C   UNL     1       7.434   4.719  15.913  0.00  0.00    +0.000 A 
ATOM      3  C   UNL     1       6.921   4.683  14.619  0.00  0.00    +0.000 A 
ATOM      4  C   UNL     1       5.574   4.426  14.432  0.00  0.00    +0.000 A 
ATOM      5  C   UNL     1       4.766   4.181  15.540  0.00  0.00    +0.000 A 
ATOM      6  C   UNL     1       5.282   4.080  16.847  0.00  0.00    +0.000 A 
ENDROOT
BRANCH   6   7
ATOM      7  C   UNL     1       4.309   3.795  17.915  0.00  0.00    +0.000 C 
ATOM      8  C   UNL     1       3.577   4.665  18.632  0.00  0.00    +0.000 C 
ATOM      9  C   UNL     1       2.841   4.188  19.816  0.00  0.00    +0.000 C 
ATOM     10  O   UNL     1       2.683   3.030  20.169  0.00  0.00    +0.000 OA
ATOM     11  O   UNL     1       2.395   5.308  20.465  0.00  0.00    +0.000 OA
ATOM     12  N   UNL     1       2.696   6.487  19.705  0.00  0.00    +0.000 NA
ATOM     13  C   UNL     1       3.340   6.106  18.640  0.00  0.00    +0.000 C 
ATOM     14  C   UNL     1       3.736   7.091  17.586  0.00  0.00    +0.000 C 
ENDBRANCH   6   7
BRANCH   1  15
ATOM     15  O   UNL     1       7.305   4.644  18.206  0.00  0.00    +0.000 OA
BRANCH  15  16
ATOM     16  C   UNL     1       7.026   5.812  18.966  0.00  0.00    +0.000 C 
BRANCH  16  18
ATOM     17  C   UNL     1       7.646   7.887  17.652  0.00  0.00    +0.000 C 
ATOM     18  C   UNL     1       8.120   6.838  18.640  0.00  0.00    +0.000 C 
ENDBRANCH  16  18
ENDBRANCH  15  16
ENDBRANCH   1  15
TORSDOF 4
ENDMDL
MODEL 9
REMARK VINA RESULT:      -6.9      1.709      2.347
REMARK  Name = 
REMARK  6 active torsions:
REMARK  status: ('A' for Active; 'I' for Inactive)
REMARK    1  A    between atoms: C_1  and  C_2
REMARK    2  A    between atoms: C_2  and  C_3
REMARK    3  A    between atoms: C_3  and  O_4
REMARK    4  A    between atoms: O_4  and  C_5
REMARK    5  A    between atoms: C_10  and  C_11
REMARK    6  A    between atoms: C_17  and  C_18
REMARK                            x       y       z     vdW  Elec       q    Type
REMARK                         _______ _______ _______ _____ _____    ______ ____
ROOT
ATOM      1  C   UNL     1       2.652   4.763  18.656  0.00  0.00    +0.000 A 
ATOM      2  C   UNL     1       1.519   4.029  18.264  0.00  0.00    +0.000 A 
ATOM      3  C   UNL     1       1.597   2.675  17.947  0.00  0.00    +0.000 A 
ATOM      4  C   UNL     1       2.804   2.014  18.095  0.00  0.00    +0.000 A 
ATOM      5  C   UNL     1       3.921   2.724  18.533  0.00  0.00    +0.000 A 
ATOM      6  C   UNL     1       3.902   4.118  18.734  0.00  0.00    +0.000 A 
ENDROOT
BRANCH   6   7
ATOM      7  C   UNL     1       5.165   4.733  19.176  0.00  0.00    +0.000 C 
ATOM      8  C   UNL     1       6.065   5.411  18.442  0.00  0.00    +0.000 C 
ATOM      9  C   UNL     1       7.377   5.738  19.027  0.00  0.00    +0.000 C 
ATOM     10  O   UNL     1       7.722   5.595  20.189  0.00  0.00    +0.000 OA
ATOM     11  O   UNL     1       8.149   6.204  17.997  0.00  0.00    +0.000 OA
ATOM     12  N   UNL     1       7.374   6.314  16.795  0.00  0.00    +0.000 NA
ATOM     13  C   UNL     1       6.174   5.893  17.068  0.00  0.00    +0.000 C 
ATOM     14  C   UNL     1       5.086   5.950  16.043  0.00  0.00    +0.000 C 
ENDBRANCH   6   7
BRANCH   1  15
ATOM     15  O   UNL     1       2.323   6.034  19.044  0.00  0.00    +0.000 OA
BRANCH  15  16
ATOM     16  C   UNL     1       2.357   7.091  18.094  0.00  0.00    +0.000 C 
BRANCH  16  18
ATOM     17  C   UNL     1       1.913   9.579  17.916  0.00  0.00    +0.000 C 
ATOM     18  C   UNL     1       2.038   8.389  18.849  0.00  0.00    +0.000 C 
ENDBRANCH  16  18
ENDBRANCH  15  16
ENDBRANCH   1  15
TORSDOF 4
ENDMDL
