MODEL 1
REMARK VINA RESULT:      -7.5      0.000      0.000
REMARK  Name = 
REMARK  7 active torsions:
REMARK  status: ('A' for Active; 'I' for Inactive)
REMARK    1  A    between atoms: C_1  and  C_2
REMARK    2  A    between atoms: C_2  and  O_3
REMARK    3  A    between atoms: O_3  and  C_4
REMARK    4  A    between atoms: C_4  and  C_6
REMARK    5  A    between atoms: C_6  and  O_7
REMARK    6  A    between atoms: O_7  and  C_8
REMARK    7  A    between atoms: C_12  and  C_13
REMARK                            x       y       z     vdW  Elec       q    Type
REMARK                         _______ _______ _______ _____ _____    ______ ____
ROOT
ATOM      1  C   UNL     1       4.867   4.566  17.096  0.00  0.00    +0.000 A 
ATOM      2  C   UNL     1       4.797   5.958  16.930  0.00  0.00    +0.000 A 
ATOM      3  C   UNL     1       3.916   6.751  17.678  0.00  0.00    +0.000 A 
ATOM      4  C   UNL     1       3.093   6.122  18.629  0.00  0.00    +0.000 A 
ATOM      5  C   UNL     1       2.126   6.505  19.608  0.00  0.00    +0.000 A 
ATOM      6  N   UNL     1       1.607   5.417  20.205  0.00  0.00    +0.000 NA
ATOM      7  O   UNL     1       2.247   4.330  19.661  0.00  0.00    +0.000 OA
ATOM      8  C   UNL     1       3.148   4.746  18.729  0.00  0.00    +0.000 A 
ATOM      9  C   UNL     1       3.993   3.918  17.987  0.00  0.00    +0.000 A 
ATOM     10 CL   UNL     1       3.842   2.215  18.203  0.00  0.00    +0.000 Cl
ENDROOT
BRANCH   5  11
ATOM     11  C   UNL     1       1.675   7.836  19.997  0.00  0.00    +0.000 A 
ATOM     12  C   UNL     1       1.647   8.197  21.355  0.00  0.00    +0.000 A 
ATOM     13  C   UNL     1       1.255   9.480  21.741  0.00  0.00    +0.000 A 
ATOM     14  C   UNL     1       0.881  10.416  20.779  0.00  0.00    +0.000 A 
ATOM     15  C   UNL     1       0.903  10.071  19.430  0.00  0.00    +0.000 A 
ATOM     16  C   UNL     1       1.307   8.793  19.049  0.00  0.00    +0.000 A 
ATOM     17  F   UNL     1       1.362   8.525  17.735  0.00  0.00    +0.000 F 
ENDBRANCH   5  11
BRANCH   1  18
ATOM     18  O   UNL     1       5.814   3.997  16.284  0.00  0.00    +0.000 OA
BRANCH  18  19
ATOM     19  C   UNL     1       6.898   4.825  15.896  0.00  0.00    +0.000 C 
BRANCH  19  20
ATOM     20  C   UNL     1       7.079   4.856  14.392  0.00  0.00    +0.000 C 
ATOM     21  O   UNL     1       7.865   5.555  13.769  0.00  0.00    +0.000 OA
BRANCH  20  22
ATOM     22  O   UNL     1       6.133   4.038  13.837  0.00  0.00    +0.000 OA
BRANCH  22  24
ATOM     23  C   UNL     1       5.091   3.161  11.880  0.00  0.00    +0.000 C 
ATOM     24  C   UNL     1       6.402   3.621  12.495  0.00  0.00    +0.000 C 
ENDBRANCH  22  24
ENDBRANCH  20  22
ENDBRANCH  19  20
ENDBRANCH  18  19
ENDBRANCH   1  18
TORSDOF 6
ENDMDL
MODEL 2
REMARK VINA RESULT:      -7.4      1.189      1.558
REMARK  Name = 
REMARK  7 active torsions:
REMARK  status: ('A' for Active; 'I' for Inactive)
REMARK    1  A    between atoms: C_1  and  C_2
REMARK    2  A    between atoms: C_2  and  O_3
REMARK    3  A    between atoms: O_3  and  C_4
REMARK    4  A    between atoms: C_4  and  C_6
REMARK    5  A    between atoms: C_6  and  O_7
REMARK    6  A    between atoms: O_7  and  C_8
REMARK    7  A    between atoms: C_12  and  C_13
REMARK                            x       y       z     vdW  Elec       q    Type
REMARK                         _______ _______ _______ _____ _____    ______ ____
ROOT
ATOM      1  C   UNL     1       4.891   4.733  17.635  0.00  0.00    +0.000 A 
ATOM      2  C   UNL     1       4.664   6.009  17.094  0.00  0.00    +0.000 A 
ATOM      3  C   UNL     1       3.758   6.909  17.672  0.00  0.00    +0.000 A 
ATOM      4  C   UNL     1       3.072   6.514  18.833  0.00  0.00    +0.000 A 
ATOM      5  C   UNL     1       2.139   7.082  19.753  0.00  0.00    +0.000 A 
ATOM      6  N   UNL     1       1.778   6.173  20.677  0.00  0.00    +0.000 NA
ATOM      7  O   UNL     1       2.491   5.031  20.400  0.00  0.00    +0.000 OA
ATOM      8  C   UNL     1       3.278   5.234  19.308  0.00  0.00    +0.000 A 
ATOM      9  C   UNL     1       4.152   4.299  18.750  0.00  0.00    +0.000 A 
ATOM     10 CL   UNL     1       4.196   2.723  19.445  0.00  0.00    +0.000 Cl
ENDROOT
BRANCH   5  11
ATOM     11  C   UNL     1       1.577   8.427  19.797  0.00  0.00    +0.000 A 
ATOM     12  C   UNL     1       1.367   9.137  18.603  0.00  0.00    +0.000 A 
ATOM     13  C   UNL     1       0.794  10.410  18.625  0.00  0.00    +0.000 A 
ATOM     14  C   UNL     1       0.430  10.992  19.837  0.00  0.00    +0.000 A 
ATOM     15  C   UNL     1       0.634  10.299  21.028  0.00  0.00    +0.000 A 
ATOM     16  C   UNL     1       1.195   9.024  21.000  0.00  0.00    +0.000 A 
ATOM     17  F   UNL     1       1.322   8.376  22.167  0.00  0.00    +0.000 F 
ENDBRANCH   5  11
BRANCH   1  18
ATOM     18  O   UNL     1       5.836   4.035  16.928  0.00  0.00    +0.000 OA
BRANCH  18  19
ATOM     19  C   UNL     1       6.969   4.765  16.487  0.00  0.00    +0.000 C 
BRANCH  19  20
ATOM     20  C   UNL     1       7.125   4.716  14.981  0.00  0.00    +0.000 C 
ATOM     21  O   UNL     1       7.748   5.507  14.289  0.00  0.00    +0.000 OA
BRANCH  20  22
ATOM     22  O   UNL     1       6.357   3.685  14.512  0.00  0.00    +0.000 OA
BRANCH  22  24
ATOM     23  C   UNL     1       5.895   3.221  12.219  0.00  0.00    +0.000 C 
ATOM     24  C   UNL     1       5.475   4.025  13.437  0.00  0.00    +0.000 C 
ENDBRANCH  22  24
ENDBRANCH  20  22
ENDBRANCH  19  20
ENDBRANCH  18  19
ENDBRANCH   1  18
TORSDOF 6
ENDMDL
MODEL 3
REMARK VINA RESULT:      -7.4      1.868      2.643
REMARK  Name = 
REMARK  7 active torsions:
REMARK  status: ('A' for Active; 'I' for Inactive)
REMARK    1  A    between atoms: C_1  and  C_2
REMARK    2  A    between atoms: C_2  and  O_3
REMARK    3  A    between atoms: O_3  and  C_4
REMARK    4  A    between atoms: C_4  and  C_6
REMARK    5  A    between atoms: C_6  and  O_7
REMARK    6  A    between atoms: O_7  and  C_8
REMARK    7  A    between atoms: C_12  and  C_13
REMARK                            x       y       z     vdW  Elec       q    Type
REMARK                         _______ _______ _______ _____ _____    ______ ____
ROOT
ATOM      1  C   UNL     1       3.845   6.156  18.158  0.00  0.00    +0.000 A 
ATOM      2  C   UNL     1       3.604   7.333  17.432  0.00  0.00    +0.000 A 
ATOM      3  C   UNL     1       2.720   8.319  17.891  0.00  0.00    +0.000 A 
ATOM      4  C   UNL     1       2.071   8.116  19.121  0.00  0.00    +0.000 A 
ATOM      5  C   UNL     1       1.170   8.828  19.971  0.00  0.00    +0.000 A 
ATOM      6  N   UNL     1       0.838   8.077  21.036  0.00  0.00    +0.000 NA
ATOM      7  O   UNL     1       1.538   6.900  20.918  0.00  0.00    +0.000 OA
ATOM      8  C   UNL     1       2.289   6.924  19.783  0.00  0.00    +0.000 A 
ATOM      9  C   UNL     1       3.142   5.907  19.350  0.00  0.00    +0.000 A 
ATOM     10 CL   UNL     1       3.204   4.459  20.282  0.00  0.00    +0.000 Cl
ENDROOT
BRANCH   5  11
ATOM     11  C   UNL     1       0.614  10.168  19.821  0.00  0.00    +0.000 A 
ATOM     12  C   UNL     1       0.901  11.156  20.778  0.00  0.00    +0.000 A 
ATOM     13  C   UNL     1       0.409  12.453  20.629  0.00  0.00    +0.000 A 
ATOM     14  C   UNL     1      -0.379  12.780  19.527  0.00  0.00    +0.000 A 
ATOM     15  C   UNL     1      -0.671  11.810  18.572  0.00  0.00    +0.000 A 
ATOM     16  C   UNL     1      -0.168  10.519  18.718  0.00  0.00    +0.000 A 
ATOM     17  F   UNL     1      -0.432   9.634  17.746  0.00  0.00    +0.000 F 
ENDBRANCH   5  11
BRANCH   1  18
ATOM     18  O   UNL     1       4.764   5.348  17.539  0.00  0.00    +0.000 OA
BRANCH  18  19
ATOM     19  C   UNL     1       6.088   5.384  18.048  0.00  0.00    +0.000 C 
BRANCH  19  20
ATOM     20  C   UNL     1       7.108   4.978  17.004  0.00  0.00    +0.000 C 
ATOM     21  O   UNL     1       8.065   4.238  17.174  0.00  0.00    +0.000 OA
BRANCH  20  22
ATOM     22  O   UNL     1       6.833   5.667  15.855  0.00  0.00    +0.000 OA
BRANCH  22  24
ATOM     23  C   UNL     1       5.826   4.038  14.435  0.00  0.00    +0.000 C 
ATOM     24  C   UNL     1       7.035   4.934  14.643  0.00  0.00    +0.000 C 
ENDBRANCH  22  24
ENDBRANCH  20  22
ENDBRANCH  19  20
ENDBRANCH  18  19
ENDBRANCH   1  18
TORSDOF 6
ENDMDL
MODEL 4
REMARK VINA RESULT:      -7.3      1.641      2.719
REMARK  Name = 
REMARK  7 active torsions:
REMARK  status: ('A' for Active; 'I' for Inactive)
REMARK    1  A    between atoms: C_1  and  C_2
REMARK    2  A    between atoms: C_2  and  O_3
REMARK    3  A    between atoms: O_3  and  C_4
REMARK    4  A    between atoms: C_4  and  C_6
REMARK    5  A    between atoms: C_6  and  O_7
REMARK    6  A    between atoms: O_7  and  C_8
REMARK    7  A    between atoms: C_12  and  C_13
REMARK                            x       y       z     vdW  Elec       q    Type
REMARK                         _______ _______ _______ _____ _____    ______ ____
ROOT
ATOM      1  C   UNL     1       4.707   5.481  16.739  0.00  0.00    +0.000 A 
ATOM      2  C   UNL     1       4.503   6.870  16.735  0.00  0.00    +0.000 A 
ATOM      3  C   UNL     1       3.632   7.494  17.638  0.00  0.00    +0.000 A 
ATOM      4  C   UNL     1       2.960   6.696  18.580  0.00  0.00    +0.000 A 
ATOM      5  C   UNL     1       2.061   6.883  19.674  0.00  0.00    +0.000 A 
ATOM      6  N   UNL     1       1.695   5.695  20.189  0.00  0.00    +0.000 NA
ATOM      7  O   UNL     1       2.372   4.736  19.475  0.00  0.00    +0.000 OA
ATOM      8  C   UNL     1       3.141   5.329  18.523  0.00  0.00    +0.000 A 
ATOM      9  C   UNL     1       3.980   4.665  17.624  0.00  0.00    +0.000 A 
ATOM     10 CL   UNL     1       3.996   2.943  17.662  0.00  0.00    +0.000 Cl
ENDROOT
BRANCH   5  11
ATOM     11  C   UNL     1       1.536   8.118  20.245  0.00  0.00    +0.000 A 
ATOM     12  C   UNL     1       1.552   8.308  21.637  0.00  0.00    +0.000 A 
ATOM     13  C   UNL     1       1.090   9.500  22.196  0.00  0.00    +0.000 A 
ATOM     14  C   UNL     1       0.601  10.515  21.376  0.00  0.00    +0.000 A 
ATOM     15  C   UNL     1       0.579  10.338  19.995  0.00  0.00    +0.000 A 
ATOM     16  C   UNL     1       1.052   9.152  19.440  0.00  0.00    +0.000 A 
ATOM     17  F   UNL     1       1.059   9.050  18.102  0.00  0.00    +0.000 F 
ENDBRANCH   5  11
BRANCH   1  18
ATOM     18  O   UNL     1       5.618   5.092  15.791  0.00  0.00    +0.000 OA
BRANCH  18  19
ATOM     19  C   UNL     1       6.696   4.285  16.239  0.00  0.00    +0.000 C 
BRANCH  19  20
ATOM     20  C   UNL     1       7.363   4.862  17.470  0.00  0.00    +0.000 C 
ATOM     21  O   UNL     1       7.396   4.357  18.582  0.00  0.00    +0.000 OA
BRANCH  20  22
ATOM     22  O   UNL     1       7.837   6.105  17.148  0.00  0.00    +0.000 OA
BRANCH  22  24
ATOM     23  C   UNL     1       7.786   8.432  17.665  0.00  0.00    +0.000 C 
ATOM     24  C   UNL     1       7.905   7.030  18.238  0.00  0.00    +0.000 C 
ENDBRANCH  22  24
ENDBRANCH  20  22
ENDBRANCH  19  20
ENDBRANCH  18  19
ENDBRANCH   1  18
TORSDOF 6
ENDMDL
MODEL 5
REMARK VINA RESULT:      -7.3      2.376      3.621
REMARK  Name = 
REMARK  7 active torsions:
REMARK  status: ('A' for Active; 'I' for Inactive)
REMARK    1  A    between atoms: C_1  and  C_2
REMARK    2  A    between atoms: C_2  and  O_3
REMARK    3  A    between atoms: O_3  and  C_4
REMARK    4  A    between atoms: C_4  and  C_6
REMARK    5  A    between atoms: C_6  and  O_7
REMARK    6  A    between atoms: O_7  and  C_8
REMARK    7  A    between atoms: C_12  and  C_13
REMARK                            x       y       z     vdW  Elec       q    Type
REMARK                         _______ _______ _______ _____ _____    ______ ____
ROOT
ATOM      1  C   UNL     1       3.507   6.441  18.170  0.00  0.00    +0.000 A 
ATOM      2  C   UNL     1       3.266   7.580  17.385  0.00  0.00    +0.000 A 
ATOM      3  C   UNL     1       2.428   8.616  17.819  0.00  0.00    +0.000 A 
ATOM      4  C   UNL     1       1.829   8.506  19.086  0.00  0.00    +0.000 A 
ATOM      5  C   UNL     1       0.985   9.293  19.927  0.00  0.00    +0.000 A 
ATOM      6  N   UNL     1       0.680   8.616  21.049  0.00  0.00    +0.000 NA
ATOM      7  O   UNL     1       1.342   7.415  20.974  0.00  0.00    +0.000 OA
ATOM      8  C   UNL     1       2.044   7.350  19.809  0.00  0.00    +0.000 A 
ATOM      9  C   UNL     1       2.850   6.284  19.403  0.00  0.00    +0.000 A 
ATOM     10 CL   UNL     1       2.915   4.893  20.418  0.00  0.00    +0.000 Cl
ENDROOT
BRANCH   5  11
ATOM     11  C   UNL     1       0.459  10.637  19.720  0.00  0.00    +0.000 A 
ATOM     12  C   UNL     1       0.916  11.699  20.518  0.00  0.00    +0.000 A 
ATOM     13  C   UNL     1       0.452  12.998  20.306  0.00  0.00    +0.000 A 
ATOM     14  C   UNL     1      -0.478  13.253  19.300  0.00  0.00    +0.000 A 
ATOM     15  C   UNL     1      -0.940  12.209  18.503  0.00  0.00    +0.000 A 
ATOM     16  C   UNL     1      -0.465  10.916  18.710  0.00  0.00    +0.000 A 
ATOM     17  F   UNL     1      -0.899   9.954  17.882  0.00  0.00    +0.000 F 
ENDBRANCH   5  11
BRANCH   1  18
ATOM     18  O   UNL     1       4.376   5.571  17.563  0.00  0.00    +0.000 OA
BRANCH  18  19
ATOM     19  C   UNL     1       5.174   6.098  16.515  0.00  0.00    +0.000 C 
BRANCH  19  20
ATOM     20  C   UNL     1       6.536   5.438  16.452  0.00  0.00    +0.000 C 
ATOM     21  O   UNL     1       6.759   4.237  16.419  0.00  0.00    +0.000 OA
BRANCH  20  22
ATOM     22  O   UNL     1       7.484   6.419  16.542  0.00  0.00    +0.000 OA
BRANCH  22  24
ATOM     23  C   UNL     1       7.853   8.483  17.678  0.00  0.00    +0.000 C 
ATOM     24  C   UNL     1       7.649   6.987  17.845  0.00  0.00    +0.000 C 
ENDBRANCH  22  24
ENDBRANCH  20  22
ENDBRANCH  19  20
ENDBRANCH  18  19
ENDBRANCH   1  18
TORSDOF 6
ENDMDL
MODEL 6
REMARK VINA RESULT:      -7.3      2.044      2.960
REMARK  Name = 
REMARK  7 active torsions:
REMARK  status: ('A' for Active; 'I' for Inactive)
REMARK    1  A    between atoms: C_1  and  C_2
REMARK    2  A    between atoms: C_2  and  O_3
REMARK    3  A    between atoms: O_3  and  C_4
REMARK    4  A    between atoms: C_4  and  C_6
REMARK    5  A    between atoms: C_6  and  O_7
REMARK    6  A    between atoms: O_7  and  C_8
REMARK    7  A    between atoms: C_12  and  C_13
REMARK                            x       y       z     vdW  Elec       q    Type
REMARK                         _______ _______ _______ _____ _____    ______ ____
ROOT
ATOM      1  C   UNL     1       4.016   5.645  17.932  0.00  0.00    +0.000 A 
ATOM      2  C   UNL     1       3.796   6.877  17.293  0.00  0.00    +0.000 A 
ATOM      3  C   UNL     1       2.947   7.851  17.834  0.00  0.00    +0.000 A 
ATOM      4  C   UNL     1       2.314   7.581  19.059  0.00  0.00    +0.000 A 
ATOM      5  C   UNL     1       1.447   8.256  19.972  0.00  0.00    +0.000 A 
ATOM      6  N   UNL     1       1.111   7.441  20.989  0.00  0.00    +0.000 NA
ATOM      7  O   UNL     1       1.776   6.258  20.777  0.00  0.00    +0.000 OA
ATOM      8  C   UNL     1       2.509   6.341  19.634  0.00  0.00    +0.000 A 
ATOM      9  C   UNL     1       3.326   5.333  19.116  0.00  0.00    +0.000 A 
ATOM     10 CL   UNL     1       3.363   3.823  19.944  0.00  0.00    +0.000 Cl
ENDROOT
BRANCH   5  11
ATOM     11  C   UNL     1       0.926   9.617  19.926  0.00  0.00    +0.000 A 
ATOM     12  C   UNL     1       1.073  10.462  21.039  0.00  0.00    +0.000 A 
ATOM     13  C   UNL     1       0.615  11.779  20.996  0.00  0.00    +0.000 A 
ATOM     14  C   UNL     1       0.001  12.270  19.846  0.00  0.00    +0.000 A 
ATOM     15  C   UNL     1      -0.151  11.443  18.736  0.00  0.00    +0.000 A 
ATOM     16  C   UNL     1       0.318  10.132  18.778  0.00  0.00    +0.000 A 
ATOM     17  F   UNL     1       0.196   9.391  17.667  0.00  0.00    +0.000 F 
ENDBRANCH   5  11
BRANCH   1  18
ATOM     18  O   UNL     1       4.902   4.858  17.241  0.00  0.00    +0.000 OA
BRANCH  18  19
ATOM     19  C   UNL     1       5.627   5.484  16.195  0.00  0.00    +0.000 C 
BRANCH  19  20
ATOM     20  C   UNL     1       7.124   5.394  16.409  0.00  0.00    +0.000 C 
ATOM     21  O   UNL     1       7.756   4.390  16.701  0.00  0.00    +0.000 OA
BRANCH  20  22
ATOM     22  O   UNL     1       7.639   6.659  16.321  0.00  0.00    +0.000 OA
BRANCH  22  24
ATOM     23  C   UNL     1       8.122   7.055  18.622  0.00  0.00    +0.000 C 
ATOM     24  C   UNL     1       7.322   7.521  17.418  0.00  0.00    +0.000 C 
ENDBRANCH  22  24
ENDBRANCH  20  22
ENDBRANCH  19  20
ENDBRANCH  18  19
ENDBRANCH   1  18
TORSDOF 6
ENDMDL
MODEL 7
REMARK VINA RESULT:      -7.2      2.415      3.435
REMARK  Name = 
REMARK  7 active torsions:
REMARK  status: ('A' for Active; 'I' for Inactive)
REMARK    1  A    between atoms: C_1  and  C_2
REMARK    2  A    between atoms: C_2  and  O_3
REMARK    3  A    between atoms: O_3  and  C_4
REMARK    4  A    between atoms: C_4  and  C_6
REMARK    5  A    between atoms: C_6  and  O_7
REMARK    6  A    between atoms: O_7  and  C_8
REMARK    7  A    between atoms: C_12  and  C_13
REMARK                            x       y       z     vdW  Elec       q    Type
REMARK                         _______ _______ _______ _____ _____    ______ ____
ROOT
ATOM      1  C   UNL     1       4.445   5.846  17.920  0.00  0.00    +0.000 A 
ATOM      2  C   UNL     1       4.146   7.082  17.325  0.00  0.00    +0.000 A 
ATOM      3  C   UNL     1       3.185   7.950  17.861  0.00  0.00    +0.000 A 
ATOM      4  C   UNL     1       2.516   7.564  19.036  0.00  0.00    +0.000 A 
ATOM      5  C   UNL     1       1.546   8.114  19.928  0.00  0.00    +0.000 A 
ATOM      6  N   UNL     1       1.234   7.224  20.888  0.00  0.00    +0.000 NA
ATOM      7  O   UNL     1       2.014   6.116  20.661  0.00  0.00    +0.000 OA
ATOM      8  C   UNL     1       2.794   6.320  19.565  0.00  0.00    +0.000 A 
ATOM      9  C   UNL     1       3.726   5.416  19.049  0.00  0.00    +0.000 A 
ATOM     10 CL   UNL     1       3.858   3.876  19.811  0.00  0.00    +0.000 Cl
ENDROOT
BRANCH   5  11
ATOM     11  C   UNL     1       0.906   9.424  19.913  0.00  0.00    +0.000 A 
ATOM     12  C   UNL     1       0.933  10.231  21.063  0.00  0.00    +0.000 A 
ATOM     13  C   UNL     1       0.360  11.503  21.052  0.00  0.00    +0.000 A 
ATOM     14  C   UNL     1      -0.252  11.985  19.897  0.00  0.00    +0.000 A 
ATOM     15  C   UNL     1      -0.287  11.195  18.751  0.00  0.00    +0.000 A 
ATOM     16  C   UNL     1       0.297   9.931  18.762  0.00  0.00    +0.000 A 
ATOM     17  F   UNL     1       0.285   9.230  17.618  0.00  0.00    +0.000 F 
ENDBRANCH   5  11
BRANCH   1  18
ATOM     18  O   UNL     1       5.433   5.175  17.246  0.00  0.00    +0.000 OA
BRANCH  18  19
ATOM     19  C   UNL     1       6.696   5.816  17.168  0.00  0.00    +0.000 C 
BRANCH  19  20
ATOM     20  C   UNL     1       7.419   5.808  18.500  0.00  0.00    +0.000 C 
ATOM     21  O   UNL     1       7.310   4.967  19.380  0.00  0.00    +0.000 OA
BRANCH  20  22
ATOM     22  O   UNL     1       8.143   6.965  18.593  0.00  0.00    +0.000 OA
BRANCH  22  24
ATOM     23  C   UNL     1       8.356   9.302  18.167  0.00  0.00    +0.000 C 
ATOM     24  C   UNL     1       7.765   7.993  17.672  0.00  0.00    +0.000 C 
ENDBRANCH  22  24
ENDBRANCH  20  22
ENDBRANCH  19  20
ENDBRANCH  18  19
ENDBRANCH   1  18
TORSDOF 6
ENDMDL
MODEL 8
REMARK VINA RESULT:      -7.2      3.465      4.843
REMARK  Name = 
REMARK  7 active torsions:
REMARK  status: ('A' for Active; 'I' for Inactive)
REMARK    1  A    between atoms: C_1  and  C_2
REMARK    2  A    between atoms: C_2  and  O_3
REMARK    3  A    between atoms: O_3  and  C_4
REMARK    4  A    between atoms: C_4  and  C_6
REMARK    5  A    between atoms: C_6  and  O_7
REMARK    6  A    between atoms: O_7  and  C_8
REMARK    7  A    between atoms: C_12  and  C_13
REMARK                            x       y       z     vdW  Elec       q    Type
REMARK                         _______ _______ _______ _____ _____    ______ ____
ROOT
ATOM      1  C   UNL     1       3.490   5.681  18.865  0.00  0.00    +0.000 A 
ATOM      2  C   UNL     1       2.691   5.966  19.983  0.00  0.00    +0.000 A 
ATOM      3  C   UNL     1       1.967   7.161  20.092  0.00  0.00    +0.000 A 
ATOM      4  C   UNL     1       2.043   8.088  19.038  0.00  0.00    +0.000 A 
ATOM      5  C   UNL     1       1.472   9.352  18.700  0.00  0.00    +0.000 A 
ATOM      6  N   UNL     1       1.984   9.804  17.541  0.00  0.00    +0.000 NA
ATOM      7  O   UNL     1       2.853   8.837  17.096  0.00  0.00    +0.000 OA
ATOM      8  C   UNL     1       2.880   7.802  17.979  0.00  0.00    +0.000 A 
ATOM      9  C   UNL     1       3.636   6.635  17.842  0.00  0.00    +0.000 A 
ATOM     10 CL   UNL     1       4.687   6.512  16.482  0.00  0.00    +0.000 Cl
ENDROOT
BRANCH   5  11
ATOM     11  C   UNL     1       0.477  10.144  19.415  0.00  0.00    +0.000 A 
ATOM     12  C   UNL     1       0.777  10.664  20.686  0.00  0.00    +0.000 A 
ATOM     13  C   UNL     1      -0.149  11.456  21.365  0.00  0.00    +0.000 A 
ATOM     14  C   UNL     1      -1.387  11.736  20.790  0.00  0.00    +0.000 A 
ATOM     15  C   UNL     1      -1.696  11.226  19.531  0.00  0.00    +0.000 A 
ATOM     16  C   UNL     1      -0.764  10.446  18.851  0.00  0.00    +0.000 A 
ATOM     17  F   UNL     1      -1.088  10.023  17.620  0.00  0.00    +0.000 F 
ENDBRANCH   5  11
BRANCH   1  18
ATOM     18  O   UNL     1       4.084   4.448  18.956  0.00  0.00    +0.000 OA
BRANCH  18  19
ATOM     19  C   UNL     1       3.511   3.408  18.179  0.00  0.00    +0.000 C 
BRANCH  19  20
ATOM     20  C   UNL     1       3.560   2.073  18.894  0.00  0.00    +0.000 C 
ATOM     21  O   UNL     1       3.878   1.000  18.405  0.00  0.00    +0.000 OA
BRANCH  20  22
ATOM     22  O   UNL     1       3.085   2.258  20.163  0.00  0.00    +0.000 OA
BRANCH  22  24
ATOM     23  C   UNL     1       1.342   2.862  21.674  0.00  0.00    +0.000 C 
ATOM     24  C   UNL     1       1.664   2.392  20.266  0.00  0.00    +0.000 C 
ENDBRANCH  22  24
ENDBRANCH  20  22
ENDBRANCH  19  20
ENDBRANCH  18  19
ENDBRANCH   1  18
TORSDOF 6
ENDMDL
MODEL 9
REMARK VINA RESULT:      -7.2      2.431      3.513
REMARK  Name = 
REMARK  7 active torsions:
REMARK  status: ('A' for Active; 'I' for Inactive)
REMARK    1  A    between atoms: C_1  and  C_2
REMARK    2  A    between atoms: C_2  and  O_3
REMARK    3  A    between atoms: O_3  and  C_4
REMARK    4  A    between atoms: C_4  and  C_6
REMARK    5  A    between atoms: C_6  and  O_7
REMARK    6  A    between atoms: O_7  and  C_8
REMARK    7  A    between atoms: C_12  and  C_13
REMARK                            x       y       z     vdW  Elec       q    Type
REMARK                         _______ _______ _______ _____ _____    ______ ____
ROOT
ATOM      1  C   UNL     1       4.577   5.757  17.685  0.00  0.00    +0.000 A 
ATOM      2  C   UNL     1       4.205   7.029  17.221  0.00  0.00    +0.000 A 
ATOM      3  C   UNL     1       3.242   7.806  17.879  0.00  0.00    +0.000 A 
ATOM      4  C   UNL     1       2.648   7.290  19.043  0.00  0.00    +0.000 A 
ATOM      5  C   UNL     1       1.704   7.718  20.026  0.00  0.00    +0.000 A 
ATOM      6  N   UNL     1       1.473   6.733  20.914  0.00  0.00    +0.000 NA
ATOM      7  O   UNL     1       2.279   5.682  20.550  0.00  0.00    +0.000 OA
ATOM      8  C   UNL     1       2.995   6.015  19.442  0.00  0.00    +0.000 A 
ATOM      9  C   UNL     1       3.931   5.199  18.802  0.00  0.00    +0.000 A 
ATOM     10 CL   UNL     1       4.156   3.603  19.412  0.00  0.00    +0.000 Cl
ENDROOT
BRANCH   5  11
ATOM     11  C   UNL     1       1.018   8.998  20.162  0.00  0.00    +0.000 A 
ATOM     12  C   UNL     1       0.401   9.583  19.044  0.00  0.00    +0.000 A 
ATOM     13  C   UNL     1      -0.293  10.788  19.165  0.00  0.00    +0.000 A 
ATOM     14  C   UNL     1      -0.375  11.427  20.401  0.00  0.00    +0.000 A 
ATOM     15  C   UNL     1       0.233  10.857  21.517  0.00  0.00    +0.000 A 
ATOM     16  C   UNL     1       0.914   9.648  21.393  0.00  0.00    +0.000 A 
ATOM     17  F   UNL     1       1.438   9.113  22.506  0.00  0.00    +0.000 F 
ENDBRANCH   5  11
BRANCH   1  18
ATOM     18  O   UNL     1       5.553   5.190  16.906  0.00  0.00    +0.000 OA
BRANCH  18  19
ATOM     19  C   UNL     1       6.815   5.838  16.897  0.00  0.00    +0.000 C 
BRANCH  19  20
ATOM     20  C   UNL     1       7.523   5.719  18.231  0.00  0.00    +0.000 C 
ATOM     21  O   UNL     1       7.529   4.743  18.966  0.00  0.00    +0.000 OA
BRANCH  20  22
ATOM     22  O   UNL     1       8.074   6.936  18.525  0.00  0.00    +0.000 OA
BRANCH  22  24
ATOM     23  C   UNL     1       8.385   9.267  18.127  0.00  0.00    +0.000 C 
ATOM     24  C   UNL     1       7.730   7.993  17.622  0.00  0.00    +0.000 C 
ENDBRANCH  22  24
ENDBRANCH  20  22
ENDBRANCH  19  20
ENDBRANCH  18  19
ENDBRANCH   1  18
TORSDOF 6
ENDMDL
