MODEL 1
REMARK VINA RESULT:      -6.7      0.000      0.000
REMARK  Name = 
REMARK  5 active torsions:
REMARK  status: ('A' for Active; 'I' for Inactive)
REMARK    1  A    between atoms: C_2  and  C_13
REMARK    2  A    between atoms: N_3  and  C_4
REMARK    3  A    between atoms: C_4  and  C_5
REMARK    4  A    between atoms: C_5  and  O_6
REMARK    5  A    between atoms: C_5  and  C_7
REMARK                            x       y       z     vdW  Elec       q    Type
REMARK                         _______ _______ _______ _____ _____    ______ ____
ROOT
ATOM      1  C   UNL     1       5.028   5.865  18.083  0.00  0.00    +0.000 C 
ENDROOT
BRANCH   1   4
ATOM      2  O   UNL     1       7.434   6.310  16.657  0.00  0.00    +0.000 OA
ATOM      3  C   UNL     1       6.541   5.658  16.121  0.00  0.00    +0.000 C 
ATOM      4  N   UNL     1       5.331   5.415  16.731  0.00  0.00    +0.000 N 
ATOM      5  H   UNL     1       4.641   4.894  16.197  0.00  0.00    +0.000 HD
BRANCH   3   6
ATOM      6  C   UNL     1       6.682   5.049  14.794  0.00  0.00    +0.000 A 
ATOM      7  C   UNL     1       5.845   4.004  14.277  0.00  0.00    +0.000 A 
ATOM      8  N   UNL     1       6.122   3.588  13.038  0.00  0.00    +0.000 NA
ATOM      9  S   UNL     1       7.429   4.519  12.566  0.00  0.00    +0.000 S 
ATOM     10  N   UNL     1       7.632   5.464  13.935  0.00  0.00    +0.000 NA
ENDBRANCH   3   6
ENDBRANCH   1   4
BRANCH   1  11
ATOM     11  C   UNL     1       5.029   4.725  19.128  0.00  0.00    +0.000 C 
BRANCH  11  12
ATOM     12  C   UNL     1       3.623   4.274  19.465  0.00  0.00    +0.000 A 
ATOM     13  C   UNL     1       3.170   3.002  19.083  0.00  0.00    +0.000 A 
ATOM     14  C   UNL     1       1.877   2.581  19.415  0.00  0.00    +0.000 A 
ATOM     15  C   UNL     1       1.029   3.420  20.131  0.00  0.00    +0.000 A 
ATOM     16  C   UNL     1       1.463   4.686  20.508  0.00  0.00    +0.000 A 
ATOM     17  C   UNL     1       2.750   5.114  20.176  0.00  0.00    +0.000 A 
ENDBRANCH  11  12
BRANCH  11  18
ATOM     18  O   UNL     1       5.766   3.581  18.692  0.00  0.00    +0.000 OA
ATOM     19  H   UNL     1       5.837   2.963  19.444  0.00  0.00    +0.000 HD
ENDBRANCH  11  18
ENDBRANCH   1  11
TORSDOF 5
ENDMDL
MODEL 2
REMARK VINA RESULT:      -6.6      0.309      1.171
REMARK  Name = 
REMARK  5 active torsions:
REMARK  status: ('A' for Active; 'I' for Inactive)
REMARK    1  A    between atoms: C_2  and  C_13
REMARK    2  A    between atoms: N_3  and  C_4
REMARK    3  A    between atoms: C_4  and  C_5
REMARK    4  A    between atoms: C_5  and  O_6
REMARK    5  A    between atoms: C_5  and  C_7
REMARK                            x       y       z     vdW  Elec       q    Type
REMARK                         _______ _______ _______ _____ _____    ______ ____
ROOT
ATOM      1  C   UNL     1       4.938   5.867  18.013  0.00  0.00    +0.000 C 
ENDROOT
BRANCH   1   4
ATOM      2  O   UNL     1       7.355   6.330  16.613  0.00  0.00    +0.000 OA
ATOM      3  C   UNL     1       6.485   5.647  16.080  0.00  0.00    +0.000 C 
ATOM      4  N   UNL     1       5.271   5.393  16.677  0.00  0.00    +0.000 N 
ATOM      5  H   UNL     1       4.600   4.845  16.145  0.00  0.00    +0.000 HD
BRANCH   3   6
ATOM      6  C   UNL     1       6.659   5.011  14.770  0.00  0.00    +0.000 A 
ATOM      7  C   UNL     1       5.892   3.896  14.289  0.00  0.00    +0.000 A 
ATOM      8  N   UNL     1       6.190   3.464  13.061  0.00  0.00    +0.000 NA
ATOM      9  S   UNL     1       7.426   4.468  12.552  0.00  0.00    +0.000 S 
ATOM     10  N   UNL     1       7.573   5.464  13.891  0.00  0.00    +0.000 NA
ENDBRANCH   3   6
ENDBRANCH   1   4
BRANCH   1  11
ATOM     11  C   UNL     1       4.916   4.747  19.079  0.00  0.00    +0.000 C 
BRANCH  11  12
ATOM     12  C   UNL     1       3.516   4.215  19.304  0.00  0.00    +0.000 A 
ATOM     13  C   UNL     1       2.697   4.762  20.303  0.00  0.00    +0.000 A 
ATOM     14  C   UNL     1       1.396   4.282  20.494  0.00  0.00    +0.000 A 
ATOM     15  C   UNL     1       0.901   3.259  19.691  0.00  0.00    +0.000 A 
ATOM     16  C   UNL     1       1.706   2.703  18.703  0.00  0.00    +0.000 A 
ATOM     17  C   UNL     1       3.006   3.174  18.511  0.00  0.00    +0.000 A 
ENDBRANCH  11  12
BRANCH  11  18
ATOM     18  O   UNL     1       5.756   3.644  18.733  0.00  0.00    +0.000 OA
ATOM     19  H   UNL     1       6.621   3.999  18.451  0.00  0.00    +0.000 HD
ENDBRANCH  11  18
ENDBRANCH   1  11
TORSDOF 5
ENDMDL
MODEL 3
REMARK VINA RESULT:      -6.6      1.114      1.267
REMARK  Name = 
REMARK  5 active torsions:
REMARK  status: ('A' for Active; 'I' for Inactive)
REMARK    1  A    between atoms: C_2  and  C_13
REMARK    2  A    between atoms: N_3  and  C_4
REMARK    3  A    between atoms: C_4  and  C_5
REMARK    4  A    between atoms: C_5  and  O_6
REMARK    5  A    between atoms: C_5  and  C_7
REMARK                            x       y       z     vdW  Elec       q    Type
REMARK                         _______ _______ _______ _____ _____    ______ ____
ROOT
ATOM      1  C   UNL     1       5.511   4.078  18.506  0.00  0.00    +0.000 C 
ENDROOT
BRANCH   1   4
ATOM      2  O   UNL     1       8.005   4.545  17.249  0.00  0.00    +0.000 OA
ATOM      3  C   UNL     1       7.001   4.444  16.549  0.00  0.00    +0.000 C 
ATOM      4  N   UNL     1       5.745   4.243  17.078  0.00  0.00    +0.000 N 
ATOM      5  H   UNL     1       4.969   4.206  16.423  0.00  0.00    +0.000 HD
BRANCH   3   6
ATOM      6  C   UNL     1       7.038   4.500  15.084  0.00  0.00    +0.000 A 
ATOM      7  C   UNL     1       6.205   3.723  14.211  0.00  0.00    +0.000 A 
ATOM      8  N   UNL     1       6.378   3.923  12.902  0.00  0.00    +0.000 NA
ATOM      9  S   UNL     1       7.584   5.078  12.810  0.00  0.00    +0.000 S 
ATOM     10  N   UNL     1       7.877   5.334  14.440  0.00  0.00    +0.000 NA
ENDBRANCH   3   6
ENDBRANCH   1   4
BRANCH   1  11
ATOM     11  C   UNL     1       4.550   2.914  18.843  0.00  0.00    +0.000 C 
BRANCH  11  12
ATOM     12  C   UNL     1       3.244   3.417  19.423  0.00  0.00    +0.000 A 
ATOM     13  C   UNL     1       2.102   2.602  19.424  0.00  0.00    +0.000 A 
ATOM     14  C   UNL     1       0.903   3.063  19.979  0.00  0.00    +0.000 A 
ATOM     15  C   UNL     1       0.833   4.335  20.540  0.00  0.00    +0.000 A 
ATOM     16  C   UNL     1       1.955   5.155  20.538  0.00  0.00    +0.000 A 
ATOM     17  C   UNL     1       3.153   4.704  19.981  0.00  0.00    +0.000 A 
ENDBRANCH  11  12
BRANCH  11  18
ATOM     18  O   UNL     1       4.244   2.106  17.706  0.00  0.00    +0.000 OA
ATOM     19  H   UNL     1       3.421   2.447  17.305  0.00  0.00    +0.000 HD
ENDBRANCH  11  18
ENDBRANCH   1  11
TORSDOF 5
ENDMDL
MODEL 4
REMARK VINA RESULT:      -6.6      0.897      1.440
REMARK  Name = 
REMARK  5 active torsions:
REMARK  status: ('A' for Active; 'I' for Inactive)
REMARK    1  A    between atoms: C_2  and  C_13
REMARK    2  A    between atoms: N_3  and  C_4
REMARK    3  A    between atoms: C_4  and  C_5
REMARK    4  A    between atoms: C_5  and  O_6
REMARK    5  A    between atoms: C_5  and  C_7
REMARK                            x       y       z     vdW  Elec       q    Type
REMARK                         _______ _______ _______ _____ _____    ______ ____
ROOT
ATOM      1  C   UNL     1       5.390   5.143  18.168  0.00  0.00    +0.000 C 
ENDROOT
BRANCH   1   4
ATOM      2  O   UNL     1       7.862   4.360  17.029  0.00  0.00    +0.000 OA
ATOM      3  C   UNL     1       6.945   4.693  16.281  0.00  0.00    +0.000 C 
ATOM      4  N   UNL     1       5.720   5.111  16.750  0.00  0.00    +0.000 N 
ATOM      5  H   UNL     1       5.035   5.399  16.057  0.00  0.00    +0.000 HD
BRANCH   3   6
ATOM      6  C   UNL     1       7.051   4.652  14.819  0.00  0.00    +0.000 A 
ATOM      7  C   UNL     1       6.253   3.824  13.960  0.00  0.00    +0.000 A 
ATOM      8  N   UNL     1       6.489   3.937  12.650  0.00  0.00    +0.000 NA
ATOM      9  S   UNL     1       7.708   5.075  12.540  0.00  0.00    +0.000 S 
ATOM     10  N   UNL     1       7.927   5.436  14.162  0.00  0.00    +0.000 NA
ENDBRANCH   3   6
ENDBRANCH   1   4
BRANCH   1  11
ATOM     11  C   UNL     1       4.856   3.796  18.708  0.00  0.00    +0.000 C 
BRANCH  11  12
ATOM     12  C   UNL     1       3.509   3.958  19.381  0.00  0.00    +0.000 A 
ATOM     13  C   UNL     1       3.093   5.212  19.855  0.00  0.00    +0.000 A 
ATOM     14  C   UNL     1       1.840   5.362  20.458  0.00  0.00    +0.000 A 
ATOM     15  C   UNL     1       0.990   4.268  20.591  0.00  0.00    +0.000 A 
ATOM     16  C   UNL     1       1.393   3.019  20.134  0.00  0.00    +0.000 A 
ATOM     17  C   UNL     1       2.645   2.861  19.535  0.00  0.00    +0.000 A 
ENDBRANCH  11  12
BRANCH  11  18
ATOM     18  O   UNL     1       4.720   2.809  17.684  0.00  0.00    +0.000 OA
ATOM     19  H   UNL     1       4.620   3.271  16.830  0.00  0.00    +0.000 HD
ENDBRANCH  11  18
ENDBRANCH   1  11
TORSDOF 5
ENDMDL
MODEL 5
REMARK VINA RESULT:      -6.5      1.545      1.827
REMARK  Name = 
REMARK  5 active torsions:
REMARK  status: ('A' for Active; 'I' for Inactive)
REMARK    1  A    between atoms: C_2  and  C_13
REMARK    2  A    between atoms: N_3  and  C_4
REMARK    3  A    between atoms: C_4  and  C_5
REMARK    4  A    between atoms: C_5  and  O_6
REMARK    5  A    between atoms: C_5  and  C_7
REMARK                            x       y       z     vdW  Elec       q    Type
REMARK                         _______ _______ _______ _____ _____    ______ ____
ROOT
ATOM      1  C   UNL     1       4.310   4.294  17.619  0.00  0.00    +0.000 C 
ENDROOT
BRANCH   1   4
ATOM      2  O   UNL     1       7.086   4.416  17.074  0.00  0.00    +0.000 OA
ATOM      3  C   UNL     1       6.296   4.479  16.135  0.00  0.00    +0.000 C 
ATOM      4  N   UNL     1       4.931   4.453  16.311  0.00  0.00    +0.000 N 
ATOM      5  H   UNL     1       4.356   4.544  15.478  0.00  0.00    +0.000 HD
BRANCH   3   6
ATOM      6  C   UNL     1       6.723   4.559  14.735  0.00  0.00    +0.000 A 
ATOM      7  C   UNL     1       6.206   3.748  13.670  0.00  0.00    +0.000 A 
ATOM      8  N   UNL     1       6.713   3.978  12.456  0.00  0.00    +0.000 NA
ATOM      9  S   UNL     1       7.826   5.203  12.692  0.00  0.00    +0.000 S 
ATOM     10  N   UNL     1       7.652   5.451  14.340  0.00  0.00    +0.000 NA
ENDBRANCH   3   6
ENDBRANCH   1   4
BRANCH   1  11
ATOM     11  C   UNL     1       3.320   3.108  17.693  0.00  0.00    +0.000 C 
BRANCH  11  12
ATOM     12  C   UNL     1       2.663   3.012  19.054  0.00  0.00    +0.000 A 
ATOM     13  C   UNL     1       3.412   2.652  20.185  0.00  0.00    +0.000 A 
ATOM     14  C   UNL     1       2.805   2.584  21.444  0.00  0.00    +0.000 A 
ATOM     15  C   UNL     1       1.452   2.877  21.588  0.00  0.00    +0.000 A 
ATOM     16  C   UNL     1       0.698   3.227  20.474  0.00  0.00    +0.000 A 
ATOM     17  C   UNL     1       1.295   3.291  19.214  0.00  0.00    +0.000 A 
ENDBRANCH  11  12
BRANCH  11  18
ATOM     18  O   UNL     1       2.287   3.192  16.710  0.00  0.00    +0.000 OA
ATOM     19  H   UNL     1       2.658   2.900  15.855  0.00  0.00    +0.000 HD
ENDBRANCH  11  18
ENDBRANCH   1  11
TORSDOF 5
ENDMDL
MODEL 6
REMARK VINA RESULT:      -6.5      1.807      2.584
REMARK  Name = 
REMARK  5 active torsions:
REMARK  status: ('A' for Active; 'I' for Inactive)
REMARK    1  A    between atoms: C_2  and  C_13
REMARK    2  A    between atoms: N_3  and  C_4
REMARK    3  A    between atoms: C_4  and  C_5
REMARK    4  A    between atoms: C_5  and  O_6
REMARK    5  A    between atoms: C_5  and  C_7
REMARK                            x       y       z     vdW  Elec       q    Type
REMARK                         _______ _______ _______ _____ _____    ______ ____
ROOT
ATOM      1  C   UNL     1       4.283   6.180  19.439  0.00  0.00    +0.000 C 
ENDROOT
BRANCH   1   4
ATOM      2  O   UNL     1       6.096   4.111  18.767  0.00  0.00    +0.000 OA
ATOM      3  C   UNL     1       5.716   4.875  17.882  0.00  0.00    +0.000 C 
ATOM      4  N   UNL     1       4.856   5.922  18.125  0.00  0.00    +0.000 N 
ATOM      5  H   UNL     1       4.623   6.521  17.338  0.00  0.00    +0.000 HD
BRANCH   3   6
ATOM      6  C   UNL     1       6.114   4.733  16.478  0.00  0.00    +0.000 A 
ATOM      7  C   UNL     1       7.213   5.421  15.862  0.00  0.00    +0.000 A 
ATOM      8  N   UNL     1       7.427   5.149  14.572  0.00  0.00    +0.000 NA
ATOM      9  S   UNL     1       6.237   4.044  14.173  0.00  0.00    +0.000 S 
ATOM     10  N   UNL     1       5.458   3.899  15.649  0.00  0.00    +0.000 NA
ENDBRANCH   3   6
ENDBRANCH   1   4
BRANCH   1  11
ATOM     11  C   UNL     1       2.742   6.312  19.426  0.00  0.00    +0.000 C 
BRANCH  11  12
ATOM     12  C   UNL     1       2.065   4.957  19.434  0.00  0.00    +0.000 A 
ATOM     13  C   UNL     1       1.632   4.381  20.638  0.00  0.00    +0.000 A 
ATOM     14  C   UNL     1       0.988   3.139  20.638  0.00  0.00    +0.000 A 
ATOM     15  C   UNL     1       0.768   2.463  19.442  0.00  0.00    +0.000 A 
ATOM     16  C   UNL     1       1.200   3.018  18.243  0.00  0.00    +0.000 A 
ATOM     17  C   UNL     1       1.848   4.255  18.236  0.00  0.00    +0.000 A 
ENDBRANCH  11  12
BRANCH  11  18
ATOM     18  O   UNL     1       2.245   7.058  20.538  0.00  0.00    +0.000 OA
ATOM     19  H   UNL     1       1.316   6.798  20.686  0.00  0.00    +0.000 HD
ENDBRANCH  11  18
ENDBRANCH   1  11
TORSDOF 5
ENDMDL
MODEL 7
REMARK VINA RESULT:      -6.4      1.699      2.172
REMARK  Name = 
REMARK  5 active torsions:
REMARK  status: ('A' for Active; 'I' for Inactive)
REMARK    1  A    between atoms: C_2  and  C_13
REMARK    2  A    between atoms: N_3  and  C_4
REMARK    3  A    between atoms: C_4  and  C_5
REMARK    4  A    between atoms: C_5  and  O_6
REMARK    5  A    between atoms: C_5  and  C_7
REMARK                            x       y       z     vdW  Elec       q    Type
REMARK                         _______ _______ _______ _____ _____    ______ ____
ROOT
ATOM      1  C   UNL     1       6.247   6.501  17.580  0.00  0.00    +0.000 C 
ENDROOT
BRANCH   1   4
ATOM      2  O   UNL     1       7.960   4.535  16.477  0.00  0.00    +0.000 OA
ATOM      3  C   UNL     1       7.078   5.015  15.769  0.00  0.00    +0.000 C 
ATOM      4  N   UNL     1       6.218   5.993  16.216  0.00  0.00    +0.000 N 
ATOM      5  H   UNL     1       5.542   6.353  15.548  0.00  0.00    +0.000 HD
BRANCH   3   6
ATOM      6  C   UNL     1       6.833   4.578  14.391  0.00  0.00    +0.000 A 
ATOM      7  C   UNL     1       7.579   5.014  13.245  0.00  0.00    +0.000 A 
ATOM      8  N   UNL     1       7.213   4.492  12.072  0.00  0.00    +0.000 NA
ATOM      9  S   UNL     1       5.940   3.474  12.444  0.00  0.00    +0.000 S 
ATOM     10  N   UNL     1       5.864   3.687  14.105  0.00  0.00    +0.000 NA
ENDBRANCH   3   6
ENDBRANCH   1   4
BRANCH   1  11
ATOM     11  C   UNL     1       5.702   5.498  18.624  0.00  0.00    +0.000 C 
BRANCH  11  12
ATOM     12  C   UNL     1       4.314   5.013  18.263  0.00  0.00    +0.000 A 
ATOM     13  C   UNL     1       3.195   5.838  18.458  0.00  0.00    +0.000 A 
ATOM     14  C   UNL     1       1.917   5.394  18.104  0.00  0.00    +0.000 A 
ATOM     15  C   UNL     1       1.742   4.129  17.551  0.00  0.00    +0.000 A 
ATOM     16  C   UNL     1       2.841   3.299  17.360  0.00  0.00    +0.000 A 
ATOM     17  C   UNL     1       4.119   3.734  17.716  0.00  0.00    +0.000 A 
ENDBRANCH  11  12
BRANCH  11  18
ATOM     18  O   UNL     1       6.543   4.354  18.777  0.00  0.00    +0.000 OA
ATOM     19  H   UNL     1       6.117   3.603  18.321  0.00  0.00    +0.000 HD
ENDBRANCH  11  18
ENDBRANCH   1  11
TORSDOF 5
ENDMDL
MODEL 8
REMARK VINA RESULT:      -6.4      1.263      1.431
REMARK  Name = 
REMARK  5 active torsions:
REMARK  status: ('A' for Active; 'I' for Inactive)
REMARK    1  A    between atoms: C_2  and  C_13
REMARK    2  A    between atoms: N_3  and  C_4
REMARK    3  A    between atoms: C_4  and  C_5
REMARK    4  A    between atoms: C_5  and  O_6
REMARK    5  A    between atoms: C_5  and  C_7
REMARK                            x       y       z     vdW  Elec       q    Type
REMARK                         _______ _______ _______ _____ _____    ______ ____
ROOT
ATOM      1  C   UNL     1       5.227   5.731  17.730  0.00  0.00    +0.000 C 
ENDROOT
BRANCH   1   4
ATOM      2  O   UNL     1       7.550   6.027  16.139  0.00  0.00    +0.000 OA
ATOM      3  C   UNL     1       6.590   5.414  15.676  0.00  0.00    +0.000 C 
ATOM      4  N   UNL     1       5.413   5.245  16.370  0.00  0.00    +0.000 N 
ATOM      5  H   UNL     1       4.663   4.753  15.894  0.00  0.00    +0.000 HD
BRANCH   3   6
ATOM      6  C   UNL     1       6.609   4.778  14.355  0.00  0.00    +0.000 A 
ATOM      7  C   UNL     1       7.545   5.083  13.310  0.00  0.00    +0.000 A 
ATOM      8  N   UNL     1       7.409   4.386  12.178  0.00  0.00    +0.000 NA
ATOM      9  S   UNL     1       6.108   3.375  12.462  0.00  0.00    +0.000 S 
ATOM     10  N   UNL     1       5.726   3.814  14.033  0.00  0.00    +0.000 NA
ENDBRANCH   3   6
ENDBRANCH   1   4
BRANCH   1  11
ATOM     11  C   UNL     1       5.069   4.600  18.774  0.00  0.00    +0.000 C 
BRANCH  11  12
ATOM     12  C   UNL     1       3.714   3.930  18.672  0.00  0.00    +0.000 A 
ATOM     13  C   UNL     1       3.526   2.623  19.147  0.00  0.00    +0.000 A 
ATOM     14  C   UNL     1       2.269   2.015  19.070  0.00  0.00    +0.000 A 
ATOM     15  C   UNL     1       1.190   2.703  18.523  0.00  0.00    +0.000 A 
ATOM     16  C   UNL     1       1.364   3.994  18.041  0.00  0.00    +0.000 A 
ATOM     17  C   UNL     1       2.618   4.606  18.110  0.00  0.00    +0.000 A 
ENDBRANCH  11  12
BRANCH  11  18
ATOM     18  O   UNL     1       6.071   3.590  18.646  0.00  0.00    +0.000 OA
ATOM     19  H   UNL     1       6.908   3.949  18.998  0.00  0.00    +0.000 HD
ENDBRANCH  11  18
ENDBRANCH   1  11
TORSDOF 5
ENDMDL
MODEL 9
REMARK VINA RESULT:      -6.3      1.648      2.133
REMARK  Name = 
REMARK  5 active torsions:
REMARK  status: ('A' for Active; 'I' for Inactive)
REMARK    1  A    between atoms: C_2  and  C_13
REMARK    2  A    between atoms: N_3  and  C_4
REMARK    3  A    between atoms: C_4  and  C_5
REMARK    4  A    between atoms: C_5  and  O_6
REMARK    5  A    between atoms: C_5  and  C_7
REMARK                            x       y       z     vdW  Elec       q    Type
REMARK                         _______ _______ _______ _____ _____    ______ ____
ROOT
ATOM      1  C   UNL     1       4.792   5.988  18.007  0.00  0.00    +0.000 C 
ENDROOT
BRANCH   1   4
ATOM      2  O   UNL     1       5.143   3.535  16.637  0.00  0.00    +0.000 OA
ATOM      3  C   UNL     1       5.616   4.558  16.148  0.00  0.00    +0.000 C 
ATOM      4  N   UNL     1       5.514   5.788  16.759  0.00  0.00    +0.000 N 
ATOM      5  H   UNL     1       5.965   6.572  16.296  0.00  0.00    +0.000 HD
BRANCH   3   6
ATOM      6  C   UNL     1       6.310   4.581  14.856  0.00  0.00    +0.000 A 
ATOM      7  C   UNL     1       5.926   3.815  13.704  0.00  0.00    +0.000 A 
ATOM      8  N   UNL     1       6.677   3.981  12.612  0.00  0.00    +0.000 NA
ATOM      9  S   UNL     1       7.843   5.088  13.069  0.00  0.00    +0.000 S 
ATOM     10  N   UNL     1       7.382   5.369  14.655  0.00  0.00    +0.000 NA
ENDBRANCH   3   6
ENDBRANCH   1   4
BRANCH   1  11
ATOM     11  C   UNL     1       3.274   6.213  17.813  0.00  0.00    +0.000 C 
BRANCH  11  12
ATOM     12  C   UNL     1       2.455   5.168  18.540  0.00  0.00    +0.000 A 
ATOM     13  C   UNL     1       2.198   5.290  19.915  0.00  0.00    +0.000 A 
ATOM     14  C   UNL     1       1.424   4.332  20.579  0.00  0.00    +0.000 A 
ATOM     15  C   UNL     1       0.898   3.249  19.882  0.00  0.00    +0.000 A 
ATOM     16  C   UNL     1       1.152   3.112  18.522  0.00  0.00    +0.000 A 
ATOM     17  C   UNL     1       1.928   4.061  17.854  0.00  0.00    +0.000 A 
ENDBRANCH  11  12
BRANCH  11  18
ATOM     18  O   UNL     1       2.847   7.500  18.265  0.00  0.00    +0.000 OA
ATOM     19  H   UNL     1       3.241   7.656  19.145  0.00  0.00    +0.000 HD
ENDBRANCH  11  18
ENDBRANCH   1  11
TORSDOF 5
ENDMDL
