MODEL 1
REMARK VINA RESULT:      -7.8      0.000      0.000
REMARK  Name = 
REMARK  1 active torsions:
REMARK  status: ('A' for Active; 'I' for Inactive)
REMARK    1  A    between atoms: N_8  and  C_9
REMARK                            x       y       z     vdW  Elec       q    Type
REMARK                         _______ _______ _______ _____ _____    ______ ____
ROOT
ATOM      1  C   UNL     1       8.224   7.259  18.540  0.00  0.00    +0.000 A 
ATOM      2  C   UNL     1       7.605   7.303  17.303  0.00  0.00    +0.000 A 
ATOM      3  C   UNL     1       6.677   6.332  16.967  0.00  0.00    +0.000 A 
ATOM      4  N   UNL     1       6.086   6.383  15.768  0.00  0.00    +0.000 NA
ATOM      5  C   UNL     1       5.171   5.442  15.515  0.00  0.00    +0.000 A 
ATOM      6  N   UNL     1       4.776   4.471  16.349  0.00  0.00    +0.000 NA
ATOM      7  C   UNL     1       5.362   4.437  17.555  0.00  0.00    +0.000 A 
ATOM      8  N   UNL     1       4.931   3.489  18.506  0.00  0.00    +0.000 N 
ATOM      9  C   UNL     1       6.373   5.345  17.906  0.00  0.00    +0.000 A 
ATOM     10  C   UNL     1       7.055   5.380  19.129  0.00  0.00    +0.000 A 
ATOM     11  N   UNL     1       7.980   6.308  19.460  0.00  0.00    +0.000 NA
ATOM     12  H   UNL     1       5.668   2.794  18.609  0.00  0.00    +0.000 HD
ENDROOT
BRANCH   8  13
ATOM     13  C   UNL     1       3.602   2.875  18.310  0.00  0.00    +0.000 C 
ATOM     14  C   UNL     1       3.361   1.880  19.466  0.00  0.00    +0.000 C 
ATOM     15  C   UNL     1       2.982   2.498  20.814  0.00  0.00    +0.000 C 
ATOM     16  C   UNL     1       1.482   2.739  20.982  0.00  0.00    +0.000 C 
ATOM     17  C   UNL     1       0.897   3.832  20.098  0.00  0.00    +0.000 C 
ATOM     18  C   UNL     1       1.111   3.613  18.604  0.00  0.00    +0.000 C 
ATOM     19  C   UNL     1       2.525   3.969  18.165  0.00  0.00    +0.000 C 
ENDBRANCH   8  13
TORSDOF 1
ENDMDL
MODEL 2
REMARK VINA RESULT:      -7.5      2.014      3.742
REMARK  Name = 
REMARK  1 active torsions:
REMARK  status: ('A' for Active; 'I' for Inactive)
REMARK    1  A    between atoms: N_8  and  C_9
REMARK                            x       y       z     vdW  Elec       q    Type
REMARK                         _______ _______ _______ _____ _____    ______ ____
ROOT
ATOM      1  C   UNL     1       6.991   4.108  12.254  0.00  0.00    +0.000 A 
ATOM      2  C   UNL     1       7.614   4.886  13.215  0.00  0.00    +0.000 A 
ATOM      3  C   UNL     1       7.031   5.029  14.463  0.00  0.00    +0.000 A 
ATOM      4  N   UNL     1       7.641   5.784  15.383  0.00  0.00    +0.000 NA
ATOM      5  C   UNL     1       7.050   5.855  16.581  0.00  0.00    +0.000 A 
ATOM      6  N   UNL     1       5.925   5.229  16.951  0.00  0.00    +0.000 NA
ATOM      7  C   UNL     1       5.329   4.462  16.027  0.00  0.00    +0.000 A 
ATOM      8  N   UNL     1       4.187   3.715  16.381  0.00  0.00    +0.000 N 
ATOM      9  C   UNL     1       5.835   4.358  14.722  0.00  0.00    +0.000 A 
ATOM     10  C   UNL     1       5.277   3.599  13.684  0.00  0.00    +0.000 A 
ATOM     11  N   UNL     1       5.824   3.470  12.456  0.00  0.00    +0.000 NA
ATOM     12  H   UNL     1       3.383   4.136  15.921  0.00  0.00    +0.000 HD
ENDROOT
BRANCH   8  13
ATOM     13  C   UNL     1       3.947   3.465  17.818  0.00  0.00    +0.000 C 
ATOM     14  C   UNL     1       2.978   4.550  18.336  0.00  0.00    +0.000 C 
ATOM     15  C   UNL     1       1.505   4.366  17.961  0.00  0.00    +0.000 C 
ATOM     16  C   UNL     1       0.724   3.492  18.940  0.00  0.00    +0.000 C 
ATOM     17  C   UNL     1       1.107   2.018  18.943  0.00  0.00    +0.000 C 
ATOM     18  C   UNL     1       2.578   1.752  19.242  0.00  0.00    +0.000 C 
ATOM     19  C   UNL     1       3.470   2.015  18.035  0.00  0.00    +0.000 C 
ENDBRANCH   8  13
TORSDOF 1
ENDMDL
MODEL 3
REMARK VINA RESULT:      -7.4      1.679      3.225
REMARK  Name = 
REMARK  1 active torsions:
REMARK  status: ('A' for Active; 'I' for Inactive)
REMARK    1  A    between atoms: N_8  and  C_9
REMARK                            x       y       z     vdW  Elec       q    Type
REMARK                         _______ _______ _______ _____ _____    ______ ____
ROOT
ATOM      1  C   UNL     1       6.797   4.316  13.480  0.00  0.00    +0.000 A 
ATOM      2  C   UNL     1       7.446   5.227  14.295  0.00  0.00    +0.000 A 
ATOM      3  C   UNL     1       6.951   5.486  15.562  0.00  0.00    +0.000 A 
ATOM      4  N   UNL     1       7.586   6.369  16.341  0.00  0.00    +0.000 NA
ATOM      5  C   UNL     1       7.083   6.549  17.567  0.00  0.00    +0.000 A 
ATOM      6  N   UNL     1       6.025   5.919  18.094  0.00  0.00    +0.000 NA
ATOM      7  C   UNL     1       5.404   5.024  17.311  0.00  0.00    +0.000 A 
ATOM      8  N   UNL     1       4.335   4.272  17.837  0.00  0.00    +0.000 N 
ATOM      9  C   UNL     1       5.816   4.795  15.989  0.00  0.00    +0.000 A 
ATOM     10  C   UNL     1       5.225   3.897  15.091  0.00  0.00    +0.000 A 
ATOM     11  N   UNL     1       5.685   3.653  13.844  0.00  0.00    +0.000 NA
ATOM     12  H   UNL     1       3.476   4.601  17.399  0.00  0.00    +0.000 HD
ENDROOT
BRANCH   8  13
ATOM     13  C   UNL     1       4.216   4.178  19.307  0.00  0.00    +0.000 C 
ATOM     14  C   UNL     1       3.168   5.213  19.768  0.00  0.00    +0.000 C 
ATOM     15  C   UNL     1       1.703   4.834  19.532  0.00  0.00    +0.000 C 
ATOM     16  C   UNL     1       1.089   4.012  20.664  0.00  0.00    +0.000 C 
ATOM     17  C   UNL     1       1.633   2.597  20.808  0.00  0.00    +0.000 C 
ATOM     18  C   UNL     1       3.141   2.522  21.021  0.00  0.00    +0.000 C 
ATOM     19  C   UNL     1       3.918   2.724  19.727  0.00  0.00    +0.000 C 
ENDBRANCH   8  13
TORSDOF 1
ENDMDL
MODEL 4
REMARK VINA RESULT:      -7.2      4.569      5.473
REMARK  Name = 
REMARK  1 active torsions:
REMARK  status: ('A' for Active; 'I' for Inactive)
REMARK    1  A    between atoms: N_8  and  C_9
REMARK                            x       y       z     vdW  Elec       q    Type
REMARK                         _______ _______ _______ _____ _____    ______ ____
ROOT
ATOM      1  C   UNL     1      -0.315  10.402  21.372  0.00  0.00    +0.000 A 
ATOM      2  C   UNL     1       0.107  10.608  20.070  0.00  0.00    +0.000 A 
ATOM      3  C   UNL     1       0.967   9.699  19.477  0.00  0.00    +0.000 A 
ATOM      4  N   UNL     1       1.370   9.908  18.219  0.00  0.00    +0.000 NA
ATOM      5  C   UNL     1       2.170   8.977  17.688  0.00  0.00    +0.000 A 
ATOM      6  N   UNL     1       2.587   7.852  18.284  0.00  0.00    +0.000 NA
ATOM      7  C   UNL     1       2.165   7.644  19.540  0.00  0.00    +0.000 A 
ATOM      8  N   UNL     1       2.505   6.440  20.191  0.00  0.00    +0.000 N 
ATOM      9  C   UNL     1       1.366   8.581  20.211  0.00  0.00    +0.000 A 
ATOM     10  C   UNL     1       0.891   8.463  21.525  0.00  0.00    +0.000 A 
ATOM     11  N   UNL     1       0.070   9.354  22.122  0.00  0.00    +0.000 NA
ATOM     12  H   UNL     1       3.184   6.658  20.917  0.00  0.00    +0.000 HD
ENDROOT
BRANCH   8  13
ATOM     13  C   UNL     1       2.927   5.299  19.351  0.00  0.00    +0.000 C 
ATOM     14  C   UNL     1       3.314   4.134  20.287  0.00  0.00    +0.000 C 
ATOM     15  C   UNL     1       2.149   3.363  20.914  0.00  0.00    +0.000 C 
ATOM     16  C   UNL     1       1.627   2.221  20.045  0.00  0.00    +0.000 C 
ATOM     17  C   UNL     1       0.910   2.649  18.771  0.00  0.00    +0.000 C 
ATOM     18  C   UNL     1       1.748   3.519  17.841  0.00  0.00    +0.000 C 
ATOM     19  C   UNL     1       1.831   4.963  18.319  0.00  0.00    +0.000 C 
ENDBRANCH   8  13
TORSDOF 1
ENDMDL
MODEL 5
REMARK VINA RESULT:      -7.1      3.770      5.873
REMARK  Name = 
REMARK  1 active torsions:
REMARK  status: ('A' for Active; 'I' for Inactive)
REMARK    1  A    between atoms: N_8  and  C_9
REMARK                            x       y       z     vdW  Elec       q    Type
REMARK                         _______ _______ _______ _____ _____    ______ ____
ROOT
ATOM      1  C   UNL     1       2.272   1.579  18.467  0.00  0.00    +0.000 A 
ATOM      2  C   UNL     1       3.545   1.988  18.824  0.00  0.00    +0.000 A 
ATOM      3  C   UNL     1       3.841   3.340  18.874  0.00  0.00    +0.000 A 
ATOM      4  N   UNL     1       5.075   3.724  19.220  0.00  0.00    +0.000 NA
ATOM      5  C   UNL     1       5.290   5.042  19.288  0.00  0.00    +0.000 A 
ATOM      6  N   UNL     1       4.389   6.008  19.064  0.00  0.00    +0.000 NA
ATOM      7  C   UNL     1       3.151   5.613  18.734  0.00  0.00    +0.000 A 
ATOM      8  N   UNL     1       2.140   6.581  18.565  0.00  0.00    +0.000 N 
ATOM      9  C   UNL     1       2.829   4.256  18.583  0.00  0.00    +0.000 A 
ATOM     10  C   UNL     1       1.574   3.746  18.225  0.00  0.00    +0.000 A 
ATOM     11  N   UNL     1       1.279   2.430  18.150  0.00  0.00    +0.000 NA
ATOM     12  H   UNL     1       1.920   6.633  17.573  0.00  0.00    +0.000 HD
ENDROOT
BRANCH   8  13
ATOM     13  C   UNL     1       2.358   7.915  19.164  0.00  0.00    +0.000 C 
ATOM     14  C   UNL     1       2.064   8.977  18.083  0.00  0.00    +0.000 C 
ATOM     15  C   UNL     1       0.585   9.246  17.792  0.00  0.00    +0.000 C 
ATOM     16  C   UNL     1      -0.042  10.298  18.705  0.00  0.00    +0.000 C 
ATOM     17  C   UNL     1      -0.206   9.881  20.160  0.00  0.00    +0.000 C 
ATOM     18  C   UNL     1       1.093   9.468  20.845  0.00  0.00    +0.000 C 
ATOM     19  C   UNL     1       1.529   8.061  20.456  0.00  0.00    +0.000 C 
ENDBRANCH   8  13
TORSDOF 1
ENDMDL
MODEL 6
REMARK VINA RESULT:      -7.0      4.515      5.579
REMARK  Name = 
REMARK  1 active torsions:
REMARK  status: ('A' for Active; 'I' for Inactive)
REMARK    1  A    between atoms: N_8  and  C_9
REMARK                            x       y       z     vdW  Elec       q    Type
REMARK                         _______ _______ _______ _____ _____    ______ ____
ROOT
ATOM      1  C   UNL     1      -0.235   9.878  21.746  0.00  0.00    +0.000 A 
ATOM      2  C   UNL     1       0.055  10.412  20.502  0.00  0.00    +0.000 A 
ATOM      3  C   UNL     1       0.902   9.729  19.645  0.00  0.00    +0.000 A 
ATOM      4  N   UNL     1       1.176  10.255  18.446  0.00  0.00    +0.000 NA
ATOM      5  C   UNL     1       1.969   9.532  17.647  0.00  0.00    +0.000 A 
ATOM      6  N   UNL     1       2.495   8.331  17.923  0.00  0.00    +0.000 NA
ATOM      7  C   UNL     1       2.202   7.806  19.122  0.00  0.00    +0.000 A 
ATOM      8  N   UNL     1       2.659   6.510  19.437  0.00  0.00    +0.000 N 
ATOM      9  C   UNL     1       1.421   8.501  20.058  0.00  0.00    +0.000 A 
ATOM     10  C   UNL     1       1.076   8.046  21.337  0.00  0.00    +0.000 A 
ATOM     11  N   UNL     1       0.269   8.713  22.192  0.00  0.00    +0.000 NA
ATOM     12  H   UNL     1       3.390   6.599  20.140  0.00  0.00    +0.000 HD
ENDROOT
BRANCH   8  13
ATOM     13  C   UNL     1       3.058   5.630  18.319  0.00  0.00    +0.000 C 
ATOM     14  C   UNL     1       4.336   4.873  18.740  0.00  0.00    +0.000 C 
ATOM     15  C   UNL     1       4.135   3.706  19.711  0.00  0.00    +0.000 C 
ATOM     16  C   UNL     1       3.821   2.378  19.022  0.00  0.00    +0.000 C 
ATOM     17  C   UNL     1       2.459   2.303  18.346  0.00  0.00    +0.000 C 
ATOM     18  C   UNL     1       2.223   3.376  17.289  0.00  0.00    +0.000 C 
ATOM     19  C   UNL     1       1.879   4.727  17.904  0.00  0.00    +0.000 C 
ENDBRANCH   8  13
TORSDOF 1
ENDMDL
MODEL 7
REMARK VINA RESULT:      -7.0      3.728      5.912
REMARK  Name = 
REMARK  1 active torsions:
REMARK  status: ('A' for Active; 'I' for Inactive)
REMARK    1  A    between atoms: N_8  and  C_9
REMARK                            x       y       z     vdW  Elec       q    Type
REMARK                         _______ _______ _______ _____ _____    ______ ____
ROOT
ATOM      1  C   UNL     1       1.273  10.452  18.876  0.00  0.00    +0.000 A 
ATOM      2  C   UNL     1       1.075   9.563  19.919  0.00  0.00    +0.000 A 
ATOM      3  C   UNL     1       1.561   8.270  19.817  0.00  0.00    +0.000 A 
ATOM      4  N   UNL     1       1.363   7.418  20.829  0.00  0.00    +0.000 NA
ATOM      5  C   UNL     1       1.888   6.196  20.689  0.00  0.00    +0.000 A 
ATOM      6  N   UNL     1       2.605   5.752  19.649  0.00  0.00    +0.000 NA
ATOM      7  C   UNL     1       2.811   6.618  18.645  0.00  0.00    +0.000 A 
ATOM      8  N   UNL     1       3.626   6.235  17.560  0.00  0.00    +0.000 N 
ATOM      9  C   UNL     1       2.262   7.909  18.665  0.00  0.00    +0.000 A 
ATOM     10  C   UNL     1       2.406   8.876  17.662  0.00  0.00    +0.000 A 
ATOM     11  N   UNL     1       1.917  10.133  17.739  0.00  0.00    +0.000 NA
ATOM     12  H   UNL     1       3.025   6.108  16.748  0.00  0.00    +0.000 HD
ENDROOT
BRANCH   8  13
ATOM     13  C   UNL     1       4.550   5.099  17.761  0.00  0.00    +0.000 C 
ATOM     14  C   UNL     1       4.423   4.160  16.541  0.00  0.00    +0.000 C 
ATOM     15  C   UNL     1       5.123   4.625  15.262  0.00  0.00    +0.000 C 
ATOM     16  C   UNL     1       6.589   4.206  15.174  0.00  0.00    +0.000 C 
ATOM     17  C   UNL     1       7.522   4.892  16.163  0.00  0.00    +0.000 C 
ATOM     18  C   UNL     1       7.132   4.708  17.626  0.00  0.00    +0.000 C 
ATOM     19  C   UNL     1       5.977   5.614  18.034  0.00  0.00    +0.000 C 
ENDBRANCH   8  13
TORSDOF 1
ENDMDL
MODEL 8
REMARK VINA RESULT:      -6.8      2.223      5.853
REMARK  Name = 
REMARK  1 active torsions:
REMARK  status: ('A' for Active; 'I' for Inactive)
REMARK    1  A    between atoms: N_8  and  C_9
REMARK                            x       y       z     vdW  Elec       q    Type
REMARK                         _______ _______ _______ _____ _____    ______ ____
ROOT
ATOM      1  C   UNL     1       1.893   2.392  21.427  0.00  0.00    +0.000 A 
ATOM      2  C   UNL     1       1.297   3.630  21.258  0.00  0.00    +0.000 A 
ATOM      3  C   UNL     1       2.006   4.654  20.653  0.00  0.00    +0.000 A 
ATOM      4  N   UNL     1       1.421   5.847  20.496  0.00  0.00    +0.000 NA
ATOM      5  C   UNL     1       2.141   6.785  19.871  0.00  0.00    +0.000 A 
ATOM      6  N   UNL     1       3.376   6.639  19.373  0.00  0.00    +0.000 NA
ATOM      7  C   UNL     1       3.949   5.436  19.521  0.00  0.00    +0.000 A 
ATOM      8  N   UNL     1       5.214   5.198  18.947  0.00  0.00    +0.000 N 
ATOM      9  C   UNL     1       3.303   4.395  20.207  0.00  0.00    +0.000 A 
ATOM     10  C   UNL     1       3.823   3.113  20.429  0.00  0.00    +0.000 A 
ATOM     11  N   UNL     1       3.150   2.113  21.038  0.00  0.00    +0.000 NA
ATOM     12  H   UNL     1       5.893   5.131  19.704  0.00  0.00    +0.000 HD
ENDROOT
BRANCH   8  13
ATOM     13  C   UNL     1       5.661   6.103  17.868  0.00  0.00    +0.000 C 
ATOM     14  C   UNL     1       7.120   5.741  17.514  0.00  0.00    +0.000 C 
ATOM     15  C   UNL     1       7.310   4.481  16.665  0.00  0.00    +0.000 C 
ATOM     16  C   UNL     1       7.223   4.733  15.161  0.00  0.00    +0.000 C 
ATOM     17  C   UNL     1       5.841   5.107  14.643  0.00  0.00    +0.000 C 
ATOM     18  C   UNL     1       5.238   6.344  15.299  0.00  0.00    +0.000 C 
ATOM     19  C   UNL     1       4.675   6.048  16.683  0.00  0.00    +0.000 C 
ENDBRANCH   8  13
TORSDOF 1
ENDMDL
MODEL 9
REMARK VINA RESULT:      -6.7      1.595      1.972
REMARK  Name = 
REMARK  1 active torsions:
REMARK  status: ('A' for Active; 'I' for Inactive)
REMARK    1  A    between atoms: N_8  and  C_9
REMARK                            x       y       z     vdW  Elec       q    Type
REMARK                         _______ _______ _______ _____ _____    ______ ____
ROOT
ATOM      1  C   UNL     1       7.400   6.380  16.807  0.00  0.00    +0.000 A 
ATOM      2  C   UNL     1       6.293   7.066  17.276  0.00  0.00    +0.000 A 
ATOM      3  C   UNL     1       5.092   6.397  17.440  0.00  0.00    +0.000 A 
ATOM      4  N   UNL     1       4.028   7.069  17.893  0.00  0.00    +0.000 NA
ATOM      5  C   UNL     1       2.906   6.362  18.067  0.00  0.00    +0.000 A 
ATOM      6  N   UNL     1       2.753   5.048  17.852  0.00  0.00    +0.000 NA
ATOM      7  C   UNL     1       3.830   4.379  17.413  0.00  0.00    +0.000 A 
ATOM      8  N   UNL     1       3.752   2.981  17.247  0.00  0.00    +0.000 N 
ATOM      9  C   UNL     1       5.042   5.033  17.147  0.00  0.00    +0.000 A 
ATOM     10  C   UNL     1       6.213   4.427  16.672  0.00  0.00    +0.000 A 
ATOM     11  N   UNL     1       7.385   5.073  16.486  0.00  0.00    +0.000 NA
ATOM     12  H   UNL     1       3.762   2.785  16.248  0.00  0.00    +0.000 HD
ENDROOT
BRANCH   8  13
ATOM     13  C   UNL     1       2.669   2.264  17.950  0.00  0.00    +0.000 C 
ATOM     14  C   UNL     1       3.262   1.642  19.233  0.00  0.00    +0.000 C 
ATOM     15  C   UNL     1       3.505   2.608  20.395  0.00  0.00    +0.000 C 
ATOM     16  C   UNL     1       2.289   2.804  21.299  0.00  0.00    +0.000 C 
ATOM     17  C   UNL     1       1.124   3.554  20.666  0.00  0.00    +0.000 C 
ATOM     18  C   UNL     1       0.586   2.916  19.390  0.00  0.00    +0.000 C 
ATOM     19  C   UNL     1       1.469   3.205  18.183  0.00  0.00    +0.000 C 
ENDBRANCH   8  13
TORSDOF 1
ENDMDL
