MODEL 1
REMARK VINA RESULT:      -7.5      0.000      0.000
REMARK  Name = 
REMARK  8 active torsions:
REMARK  status: ('A' for Active; 'I' for Inactive)
REMARK    1  A    between atoms: C_1  and  C_2
REMARK    2  A    between atoms: C_2  and  C_3
REMARK    3  A    between atoms: C_8  and  N_9
REMARK    4  A    between atoms: C_10  and  C_12
REMARK    5  A    between atoms: C_13  and  N_14
REMARK    6  A    between atoms: C_15  and  C_17
REMARK    7  A    between atoms: C_25  and  C_26
REMARK    8  A    between atoms: C_32  and  C_33
REMARK                            x       y       z     vdW  Elec       q    Type
REMARK                         _______ _______ _______ _____ _____    ______ ____
ROOT
ATOM      1  C   UNL     1      -0.091  10.993  19.808  0.00  0.00    +0.000 A 
ATOM      2  C   UNL     1       0.712  11.563  18.843  0.00  0.00    +0.000 A 
ATOM      3  S   UNL     1       1.961  10.551  18.316  0.00  0.00    +0.000 S 
ATOM      4  C   UNL     1       1.421   9.226  19.275  0.00  0.00    +0.000 A 
ATOM      5  C   UNL     1       0.382   9.632  20.115  0.00  0.00    +0.000 A 
ATOM      6  C   UNL     1      -0.221   8.800  21.216  0.00  0.00    +0.000 C 
ENDROOT
BRANCH   4   7
ATOM      7  C   UNL     1       2.080   7.901  19.127  0.00  0.00    +0.000 A 
ATOM      8  C   UNL     1       2.010   6.914  20.125  0.00  0.00    +0.000 A 
ATOM      9  C   UNL     1       2.680   5.691  19.987  0.00  0.00    +0.000 A 
ATOM     10  C   UNL     1       3.410   5.416  18.834  0.00  0.00    +0.000 A 
ATOM     11  C   UNL     1       3.474   6.367  17.822  0.00  0.00    +0.000 A 
ATOM     12  C   UNL     1       2.832   7.600  17.977  0.00  0.00    +0.000 A 
ENDBRANCH   4   7
BRANCH   1  14
ATOM     13  N   UNL     1      -0.844  12.048  21.877  0.00  0.00    +0.000 N 
ATOM     14  C   UNL     1      -1.153  11.672  20.576  0.00  0.00    +0.000 C 
ATOM     15  O   UNL     1      -2.231  11.874  20.028  0.00  0.00    +0.000 OA
ATOM     16  H   UNL     1       0.092  11.821  22.196  0.00  0.00    +0.000 HD
BRANCH  13  22
ATOM     17  C   UNL     1      -1.455  14.046  23.195  0.00  0.00    +0.000 A 
ATOM     18  C   UNL     1      -2.317  14.664  24.135  0.00  0.00    +0.000 A 
ATOM     19  C   UNL     1      -3.420  13.997  24.661  0.00  0.00    +0.000 A 
ATOM     20  C   UNL     1      -3.693  12.708  24.241  0.00  0.00    +0.000 A 
ATOM     21  C   UNL     1      -2.853  12.082  23.317  0.00  0.00    +0.000 A 
ATOM     22  C   UNL     1      -1.715  12.716  22.789  0.00  0.00    +0.000 A 
BRANCH  17  24
ATOM     23  C   UNL     1      -0.679  16.354  22.553  0.00  0.00    +0.000 C 
ATOM     24  C   UNL     1      -0.306  14.886  22.693  0.00  0.00    +0.000 C 
ENDBRANCH  17  24
ENDBRANCH  13  22
ENDBRANCH   1  14
BRANCH   2  25
ATOM     25  N   UNL     1       0.758  12.836  18.298  0.00  0.00    +0.000 N 
ATOM     26  C   UNL     1       1.263  13.856  19.089  0.00  0.00    +0.000 C 
ATOM     27  O   UNL     1       1.932  13.634  20.099  0.00  0.00    +0.000 OA
ATOM     28  H   UNL     1      -0.072  13.098  17.774  0.00  0.00    +0.000 HD
BRANCH  26  29
ATOM     29  C   UNL     1       1.017  15.289  18.683  0.00  0.00    +0.000 A 
ATOM     30  C   UNL     1      -0.303  15.750  18.844  0.00  0.00    +0.000 A 
ATOM     31  C   UNL     1      -0.663  17.070  18.561  0.00  0.00    +0.000 A 
ATOM     32  C   UNL     1       0.292  17.965  18.105  0.00  0.00    +0.000 A 
ATOM     33  C   UNL     1       1.609  17.532  17.928  0.00  0.00    +0.000 A 
ATOM     34  C   UNL     1       1.977  16.202  18.203  0.00  0.00    +0.000 A 
ATOM     35 CL   UNL     1       3.637  15.819  17.931  0.00  0.00    +0.000 Cl
ENDBRANCH  26  29
ENDBRANCH   2  25
TORSDOF 6
ENDMDL
MODEL 2
REMARK VINA RESULT:      -7.3      0.967      1.284
REMARK  Name = 
REMARK  8 active torsions:
REMARK  status: ('A' for Active; 'I' for Inactive)
REMARK    1  A    between atoms: C_1  and  C_2
REMARK    2  A    between atoms: C_2  and  C_3
REMARK    3  A    between atoms: C_8  and  N_9
REMARK    4  A    between atoms: C_10  and  C_12
REMARK    5  A    between atoms: C_13  and  N_14
REMARK    6  A    between atoms: C_15  and  C_17
REMARK    7  A    between atoms: C_25  and  C_26
REMARK    8  A    between atoms: C_32  and  C_33
REMARK                            x       y       z     vdW  Elec       q    Type
REMARK                         _______ _______ _______ _____ _____    ______ ____
ROOT
ATOM      1  C   UNL     1      -0.058  10.939  19.891  0.00  0.00    +0.000 A 
ATOM      2  C   UNL     1       0.776  11.465  18.927  0.00  0.00    +0.000 A 
ATOM      3  S   UNL     1       1.989  10.397  18.424  0.00  0.00    +0.000 S 
ATOM      4  C   UNL     1       1.388   9.106  19.394  0.00  0.00    +0.000 A 
ATOM      5  C   UNL     1       0.358   9.563  20.219  0.00  0.00    +0.000 A 
ATOM      6  C   UNL     1      -0.288   8.769  21.323  0.00  0.00    +0.000 C 
ENDROOT
BRANCH   4   7
ATOM      7  C   UNL     1       1.995   7.755  19.267  0.00  0.00    +0.000 A 
ATOM      8  C   UNL     1       1.937   6.807  20.304  0.00  0.00    +0.000 A 
ATOM      9  C   UNL     1       2.559   5.558  20.184  0.00  0.00    +0.000 A 
ATOM     10  C   UNL     1       3.227   5.216  19.012  0.00  0.00    +0.000 A 
ATOM     11  C   UNL     1       3.278   6.126  17.963  0.00  0.00    +0.000 A 
ATOM     12  C   UNL     1       2.685   7.386  18.099  0.00  0.00    +0.000 A 
ENDBRANCH   4   7
BRANCH   1  14
ATOM     13  N   UNL     1      -0.807  12.002  21.956  0.00  0.00    +0.000 N 
ATOM     14  C   UNL     1      -1.098  11.668  20.640  0.00  0.00    +0.000 C 
ATOM     15  O   UNL     1      -2.146  11.946  20.064  0.00  0.00    +0.000 OA
ATOM     16  H   UNL     1       0.103  11.713  22.298  0.00  0.00    +0.000 HD
BRANCH  13  22
ATOM     17  C   UNL     1      -1.346  14.021  23.274  0.00  0.00    +0.000 A 
ATOM     18  C   UNL     1      -2.196  14.675  24.201  0.00  0.00    +0.000 A 
ATOM     19  C   UNL     1      -3.340  14.059  24.701  0.00  0.00    +0.000 A 
ATOM     20  C   UNL     1      -3.667  12.787  24.268  0.00  0.00    +0.000 A 
ATOM     21  C   UNL     1      -2.840  12.126  23.357  0.00  0.00    +0.000 A 
ATOM     22  C   UNL     1      -1.663  12.707  22.855  0.00  0.00    +0.000 A 
BRANCH  17  24
ATOM     23  C   UNL     1      -0.346  16.308  22.944  0.00  0.00    +0.000 C 
ATOM     24  C   UNL     1      -0.149  14.807  22.800  0.00  0.00    +0.000 C 
ENDBRANCH  17  24
ENDBRANCH  13  22
ENDBRANCH   1  14
BRANCH   2  25
ATOM     25  N   UNL     1       0.878  12.728  18.367  0.00  0.00    +0.000 N 
ATOM     26  C   UNL     1       1.537  13.703  19.099  0.00  0.00    +0.000 C 
ATOM     27  O   UNL     1       2.276  13.428  20.045  0.00  0.00    +0.000 OA
ATOM     28  H   UNL     1       0.028  13.057  17.920  0.00  0.00    +0.000 HD
BRANCH  26  29
ATOM     29  C   UNL     1       1.376  15.151  18.702  0.00  0.00    +0.000 A 
ATOM     30  C   UNL     1       2.501  15.745  18.098  0.00  0.00    +0.000 A 
ATOM     31  C   UNL     1       2.477  17.062  17.631  0.00  0.00    +0.000 A 
ATOM     32  C   UNL     1       1.324  17.821  17.759  0.00  0.00    +0.000 A 
ATOM     33  C   UNL     1       0.196  17.258  18.362  0.00  0.00    +0.000 A 
ATOM     34  C   UNL     1       0.216  15.936  18.842  0.00  0.00    +0.000 A 
ATOM     35 CL   UNL     1      -1.252  15.386  19.565  0.00  0.00    +0.000 Cl
ENDBRANCH  26  29
ENDBRANCH   2  25
TORSDOF 6
ENDMDL
MODEL 3
REMARK VINA RESULT:      -7.1      2.157      7.907
REMARK  Name = 
REMARK  8 active torsions:
REMARK  status: ('A' for Active; 'I' for Inactive)
REMARK    1  A    between atoms: C_1  and  C_2
REMARK    2  A    between atoms: C_2  and  C_3
REMARK    3  A    between atoms: C_8  and  N_9
REMARK    4  A    between atoms: C_10  and  C_12
REMARK    5  A    between atoms: C_13  and  N_14
REMARK    6  A    between atoms: C_15  and  C_17
REMARK    7  A    between atoms: C_25  and  C_26
REMARK    8  A    between atoms: C_32  and  C_33
REMARK                            x       y       z     vdW  Elec       q    Type
REMARK                         _______ _______ _______ _____ _____    ______ ____
ROOT
ATOM      1  C   UNL     1       0.013  12.705  21.393  0.00  0.00    +0.000 A 
ATOM      2  C   UNL     1      -0.018  11.335  21.547  0.00  0.00    +0.000 A 
ATOM      3  S   UNL     1      -1.385  10.776  22.371  0.00  0.00    +0.000 S 
ATOM      4  C   UNL     1      -2.087  12.346  22.469  0.00  0.00    +0.000 A 
ATOM      5  C   UNL     1      -1.183  13.306  22.010  0.00  0.00    +0.000 A 
ATOM      6  C   UNL     1      -1.374  14.797  22.108  0.00  0.00    +0.000 C 
ENDROOT
BRANCH   4   7
ATOM      7  C   UNL     1      -3.467  12.497  23.002  0.00  0.00    +0.000 A 
ATOM      8  C   UNL     1      -4.553  12.847  22.182  0.00  0.00    +0.000 A 
ATOM      9  C   UNL     1      -5.835  13.034  22.713  0.00  0.00    +0.000 A 
ATOM     10  C   UNL     1      -6.067  12.846  24.073  0.00  0.00    +0.000 A 
ATOM     11  C   UNL     1      -5.014  12.476  24.901  0.00  0.00    +0.000 A 
ATOM     12  C   UNL     1      -3.728  12.323  24.373  0.00  0.00    +0.000 A 
ENDBRANCH   4   7
BRANCH   1  14
ATOM     13  N   UNL     1       1.017  13.976  19.567  0.00  0.00    +0.000 N 
ATOM     14  C   UNL     1       1.137  13.502  20.867  0.00  0.00    +0.000 C 
ATOM     15  O   UNL     1       2.100  13.709  21.599  0.00  0.00    +0.000 OA
ATOM     16  H   UNL     1       0.160  13.732  19.081  0.00  0.00    +0.000 HD
BRANCH  13  22
ATOM     17  C   UNL     1       1.758  16.146  18.647  0.00  0.00    +0.000 A 
ATOM     18  C   UNL     1       2.713  16.890  17.910  0.00  0.00    +0.000 A 
ATOM     19  C   UNL     1       3.867  16.297  17.406  0.00  0.00    +0.000 A 
ATOM     20  C   UNL     1       4.098  14.955  17.646  0.00  0.00    +0.000 A 
ATOM     21  C   UNL     1       3.167  14.206  18.369  0.00  0.00    +0.000 A 
ATOM     22  C   UNL     1       1.977  14.765  18.867  0.00  0.00    +0.000 A 
BRANCH  17  24
ATOM     23  C   UNL     1      -0.542  17.019  18.106  0.00  0.00    +0.000 C 
ATOM     24  C   UNL     1       0.560  16.913  19.150  0.00  0.00    +0.000 C 
ENDBRANCH  17  24
ENDBRANCH  13  22
ENDBRANCH   1  14
BRANCH   2  25
ATOM     25  N   UNL     1       0.900  10.340  21.249  0.00  0.00    +0.000 N 
ATOM     26  C   UNL     1       0.711   9.621  20.080  0.00  0.00    +0.000 C 
ATOM     27  O   UNL     1      -0.026  10.017  19.176  0.00  0.00    +0.000 OA
ATOM     28  H   UNL     1       1.167   9.766  22.043  0.00  0.00    +0.000 HD
BRANCH  26  29
ATOM     29  C   UNL     1       1.460   8.324  19.887  0.00  0.00    +0.000 A 
ATOM     30  C   UNL     1       1.312   7.377  20.918  0.00  0.00    +0.000 A 
ATOM     31  C   UNL     1       1.903   6.113  20.848  0.00  0.00    +0.000 A 
ATOM     32  C   UNL     1       2.663   5.765  19.742  0.00  0.00    +0.000 A 
ATOM     33  C   UNL     1       2.832   6.689  18.707  0.00  0.00    +0.000 A 
ATOM     34  C   UNL     1       2.248   7.967  18.776  0.00  0.00    +0.000 A 
ATOM     35 CL   UNL     1       2.552   8.996  17.425  0.00  0.00    +0.000 Cl
ENDBRANCH  26  29
ENDBRANCH   2  25
TORSDOF 6
ENDMDL
MODEL 4
REMARK VINA RESULT:      -7.1      1.196      1.257
REMARK  Name = 
REMARK  8 active torsions:
REMARK  status: ('A' for Active; 'I' for Inactive)
REMARK    1  A    between atoms: C_1  and  C_2
REMARK    2  A    between atoms: C_2  and  C_3
REMARK    3  A    between atoms: C_8  and  N_9
REMARK    4  A    between atoms: C_10  and  C_12
REMARK    5  A    between atoms: C_13  and  N_14
REMARK    6  A    between atoms: C_15  and  C_17
REMARK    7  A    between atoms: C_25  and  C_26
REMARK    8  A    between atoms: C_32  and  C_33
REMARK                            x       y       z     vdW  Elec       q    Type
REMARK                         _______ _______ _______ _____ _____    ______ ____
ROOT
ATOM      1  C   UNL     1       0.784  10.284  20.084  0.00  0.00    +0.000 A 
ATOM      2  C   UNL     1       1.019  10.915  18.880  0.00  0.00    +0.000 A 
ATOM      3  S   UNL     1       1.894   9.972  17.781  0.00  0.00    +0.000 S 
ATOM      4  C   UNL     1       1.908   8.599  18.821  0.00  0.00    +0.000 A 
ATOM      5  C   UNL     1       1.381   8.937  20.070  0.00  0.00    +0.000 A 
ATOM      6  C   UNL     1       1.393   8.050  21.287  0.00  0.00    +0.000 C 
ENDROOT
BRANCH   4   7
ATOM      7  C   UNL     1       2.450   7.309  18.320  0.00  0.00    +0.000 A 
ATOM      8  C   UNL     1       1.765   6.093  18.488  0.00  0.00    +0.000 A 
ATOM      9  C   UNL     1       2.318   4.881  18.053  0.00  0.00    +0.000 A 
ATOM     10  C   UNL     1       3.554   4.861  17.415  0.00  0.00    +0.000 A 
ATOM     11  C   UNL     1       4.240   6.053  17.215  0.00  0.00    +0.000 A 
ATOM     12  C   UNL     1       3.702   7.258  17.680  0.00  0.00    +0.000 A 
ENDBRANCH   4   7
BRANCH   1  14
ATOM     13  N   UNL     1      -0.786  11.857  21.094  0.00  0.00    +0.000 N 
ATOM     14  C   UNL     1       0.197  10.895  21.291  0.00  0.00    +0.000 C 
ATOM     15  O   UNL     1       0.594  10.519  22.389  0.00  0.00    +0.000 OA
ATOM     16  H   UNL     1      -1.019  12.064  20.128  0.00  0.00    +0.000 HD
BRANCH  13  22
ATOM     17  C   UNL     1      -0.950  13.753  22.669  0.00  0.00    +0.000 A 
ATOM     18  C   UNL     1      -1.652  14.409  23.711  0.00  0.00    +0.000 A 
ATOM     19  C   UNL     1      -2.861  13.919  24.195  0.00  0.00    +0.000 A 
ATOM     20  C   UNL     1      -3.402  12.777  23.633  0.00  0.00    +0.000 A 
ATOM     21  C   UNL     1      -2.724  12.117  22.607  0.00  0.00    +0.000 A 
ATOM     22  C   UNL     1      -1.486  12.567  22.114  0.00  0.00    +0.000 A 
BRANCH  17  24
ATOM     23  C   UNL     1       0.355  15.898  22.475  0.00  0.00    +0.000 C 
ATOM     24  C   UNL     1       0.341  14.398  22.227  0.00  0.00    +0.000 C 
ENDBRANCH  17  24
ENDBRANCH  13  22
ENDBRANCH   1  14
BRANCH   2  25
ATOM     25  N   UNL     1       0.768  12.202  18.434  0.00  0.00    +0.000 N 
ATOM     26  C   UNL     1       1.634  13.204  18.846  0.00  0.00    +0.000 C 
ATOM     27  O   UNL     1       2.746  12.960  19.315  0.00  0.00    +0.000 OA
ATOM     28  H   UNL     1      -0.210  12.472  18.461  0.00  0.00    +0.000 HD
BRANCH  26  29
ATOM     29  C   UNL     1       1.218  14.646  18.681  0.00  0.00    +0.000 A 
ATOM     30  C   UNL     1      -0.151  14.910  18.875  0.00  0.00    +0.000 A 
ATOM     31  C   UNL     1      -0.669  16.206  18.809  0.00  0.00    +0.000 A 
ATOM     32  C   UNL     1       0.173  17.274  18.543  0.00  0.00    +0.000 A 
ATOM     33  C   UNL     1       1.536  17.040  18.340  0.00  0.00    +0.000 A 
ATOM     34  C   UNL     1       2.062  15.736  18.396  0.00  0.00    +0.000 A 
ATOM     35 CL   UNL     1       3.760  15.608  18.119  0.00  0.00    +0.000 Cl
ENDBRANCH  26  29
ENDBRANCH   2  25
TORSDOF 6
ENDMDL
MODEL 5
REMARK VINA RESULT:      -7.1      1.391      1.844
REMARK  Name = 
REMARK  8 active torsions:
REMARK  status: ('A' for Active; 'I' for Inactive)
REMARK    1  A    between atoms: C_1  and  C_2
REMARK    2  A    between atoms: C_2  and  C_3
REMARK    3  A    between atoms: C_8  and  N_9
REMARK    4  A    between atoms: C_10  and  C_12
REMARK    5  A    between atoms: C_13  and  N_14
REMARK    6  A    between atoms: C_15  and  C_17
REMARK    7  A    between atoms: C_25  and  C_26
REMARK    8  A    between atoms: C_32  and  C_33
REMARK                            x       y       z     vdW  Elec       q    Type
REMARK                         _______ _______ _______ _____ _____    ______ ____
ROOT
ATOM      1  C   UNL     1       0.240  10.987  20.288  0.00  0.00    +0.000 A 
ATOM      2  C   UNL     1       0.787  11.456  19.112  0.00  0.00    +0.000 A 
ATOM      3  S   UNL     1       1.819  10.349  18.355  0.00  0.00    +0.000 S 
ATOM      4  C   UNL     1       1.496   9.112  19.510  0.00  0.00    +0.000 A 
ATOM      5  C   UNL     1       0.725   9.621  20.557  0.00  0.00    +0.000 A 
ATOM      6  C   UNL     1       0.396   8.887  21.830  0.00  0.00    +0.000 C 
ENDROOT
BRANCH   4   7
ATOM      7  C   UNL     1       2.043   7.747  19.290  0.00  0.00    +0.000 A 
ATOM      8  C   UNL     1       1.908   6.723  20.243  0.00  0.00    +0.000 A 
ATOM      9  C   UNL     1       2.475   5.459  20.038  0.00  0.00    +0.000 A 
ATOM     10  C   UNL     1       3.165   5.181  18.862  0.00  0.00    +0.000 A 
ATOM     11  C   UNL     1       3.291   6.169  17.893  0.00  0.00    +0.000 A 
ATOM     12  C   UNL     1       2.753   7.441  18.115  0.00  0.00    +0.000 A 
ENDBRANCH   4   7
BRANCH   1  14
ATOM     13  N   UNL     1      -1.938  11.587  21.212  0.00  0.00    +0.000 N 
ATOM     14  C   UNL     1      -0.561  11.764  21.252  0.00  0.00    +0.000 C 
ATOM     15  O   UNL     1       0.025  12.507  22.033  0.00  0.00    +0.000 OA
ATOM     16  H   UNL     1      -2.283  10.934  20.517  0.00  0.00    +0.000 HD
BRANCH  13  22
ATOM     17  C   UNL     1      -3.997  12.922  21.496  0.00  0.00    +0.000 A 
ATOM     18  C   UNL     1      -4.904  13.587  22.358  0.00  0.00    +0.000 A 
ATOM     19  C   UNL     1      -4.741  13.570  23.740  0.00  0.00    +0.000 A 
ATOM     20  C   UNL     1      -3.681  12.870  24.287  0.00  0.00    +0.000 A 
ATOM     21  C   UNL     1      -2.776  12.210  23.453  0.00  0.00    +0.000 A 
ATOM     22  C   UNL     1      -2.894  12.231  22.052  0.00  0.00    +0.000 A 
BRANCH  17  24
ATOM     23  C   UNL     1      -5.779  13.220  19.741  0.00  0.00    +0.000 C 
ATOM     24  C   UNL     1      -4.299  13.005  20.020  0.00  0.00    +0.000 C 
ENDBRANCH  17  24
ENDBRANCH  13  22
ENDBRANCH   1  14
BRANCH   2  25
ATOM     25  N   UNL     1       0.739  12.691  18.487  0.00  0.00    +0.000 N 
ATOM     26  C   UNL     1       1.491  13.719  19.035  0.00  0.00    +0.000 C 
ATOM     27  O   UNL     1       2.404  13.511  19.835  0.00  0.00    +0.000 OA
ATOM     28  H   UNL     1      -0.191  12.977  18.194  0.00  0.00    +0.000 HD
BRANCH  26  29
ATOM     29  C   UNL     1       1.209  15.141  18.611  0.00  0.00    +0.000 A 
ATOM     30  C   UNL     1      -0.113  15.582  18.805  0.00  0.00    +0.000 A 
ATOM     31  C   UNL     1      -0.504  16.891  18.510  0.00  0.00    +0.000 A 
ATOM     32  C   UNL     1       0.421  17.793  18.009  0.00  0.00    +0.000 A 
ATOM     33  C   UNL     1       1.740  17.379  17.800  0.00  0.00    +0.000 A 
ATOM     34  C   UNL     1       2.138  16.060  18.086  0.00  0.00    +0.000 A 
ATOM     35 CL   UNL     1       3.795  15.700  17.771  0.00  0.00    +0.000 Cl
ENDBRANCH  26  29
ENDBRANCH   2  25
TORSDOF 6
ENDMDL
MODEL 6
REMARK VINA RESULT:      -7.1      3.174      7.843
REMARK  Name = 
REMARK  8 active torsions:
REMARK  status: ('A' for Active; 'I' for Inactive)
REMARK    1  A    between atoms: C_1  and  C_2
REMARK    2  A    between atoms: C_2  and  C_3
REMARK    3  A    between atoms: C_8  and  N_9
REMARK    4  A    between atoms: C_10  and  C_12
REMARK    5  A    between atoms: C_13  and  N_14
REMARK    6  A    between atoms: C_15  and  C_17
REMARK    7  A    between atoms: C_25  and  C_26
REMARK    8  A    between atoms: C_32  and  C_33
REMARK                            x       y       z     vdW  Elec       q    Type
REMARK                         _______ _______ _______ _____ _____    ______ ____
ROOT
ATOM      1  C   UNL     1       0.564  12.069  19.331  0.00  0.00    +0.000 A 
ATOM      2  C   UNL     1       0.475  10.693  19.314  0.00  0.00    +0.000 A 
ATOM      3  S   UNL     1      -1.109  10.118  19.165  0.00  0.00    +0.000 S 
ATOM      4  C   UNL     1      -1.770  11.700  18.992  0.00  0.00    +0.000 A 
ATOM      5  C   UNL     1      -0.781  12.661  19.216  0.00  0.00    +0.000 A 
ATOM      6  C   UNL     1      -1.019  14.143  19.325  0.00  0.00    +0.000 C 
ENDROOT
BRANCH   4   7
ATOM      7  C   UNL     1      -3.211  11.858  18.663  0.00  0.00    +0.000 A 
ATOM      8  C   UNL     1      -4.145  12.336  19.598  0.00  0.00    +0.000 A 
ATOM      9  C   UNL     1      -5.507  12.429  19.284  0.00  0.00    +0.000 A 
ATOM     10  C   UNL     1      -5.962  12.074  18.018  0.00  0.00    +0.000 A 
ATOM     11  C   UNL     1      -5.054  11.620  17.067  0.00  0.00    +0.000 A 
ATOM     12  C   UNL     1      -3.700  11.497  17.395  0.00  0.00    +0.000 A 
ENDBRANCH   4   7
BRANCH   1  14
ATOM     13  N   UNL     1       2.205  13.725  18.608  0.00  0.00    +0.000 N 
ATOM     14  C   UNL     1       1.775  12.864  19.609  0.00  0.00    +0.000 C 
ATOM     15  O   UNL     1       2.323  12.732  20.699  0.00  0.00    +0.000 OA
ATOM     16  H   UNL     1       1.648  13.735  17.759  0.00  0.00    +0.000 HD
BRANCH  13  22
ATOM     17  C   UNL     1       3.246  15.874  19.240  0.00  0.00    +0.000 A 
ATOM     18  C   UNL     1       4.386  16.716  19.244  0.00  0.00    +0.000 A 
ATOM     19  C   UNL     1       5.600  16.302  18.705  0.00  0.00    +0.000 A 
ATOM     20  C   UNL     1       5.705  15.030  18.172  0.00  0.00    +0.000 A 
ATOM     21  C   UNL     1       4.592  14.186  18.159  0.00  0.00    +0.000 A 
ATOM     22  C   UNL     1       3.343  14.584  18.667  0.00  0.00    +0.000 A 
BRANCH  17  24
ATOM     23  C   UNL     1       1.133  17.193  18.870  0.00  0.00    +0.000 C 
ATOM     24  C   UNL     1       1.998  16.440  19.870  0.00  0.00    +0.000 C 
ENDBRANCH  17  24
ENDBRANCH  13  22
ENDBRANCH   1  14
BRANCH   2  25
ATOM     25  N   UNL     1       1.416   9.693  19.497  0.00  0.00    +0.000 N 
ATOM     26  C   UNL     1       1.883   9.035  18.370  0.00  0.00    +0.000 C 
ATOM     27  O   UNL     1       1.737   9.492  17.236  0.00  0.00    +0.000 OA
ATOM     28  H   UNL     1       1.223   9.075  20.280  0.00  0.00    +0.000 HD
BRANCH  26  29
ATOM     29  C   UNL     1       2.628   7.732  18.537  0.00  0.00    +0.000 A 
ATOM     30  C   UNL     1       3.595   7.455  17.553  0.00  0.00    +0.000 A 
ATOM     31  C   UNL     1       4.398   6.313  17.610  0.00  0.00    +0.000 A 
ATOM     32  C   UNL     1       4.251   5.416  18.657  0.00  0.00    +0.000 A 
ATOM     33  C   UNL     1       3.293   5.663  19.644  0.00  0.00    +0.000 A 
ATOM     34  C   UNL     1       2.475   6.806  19.587  0.00  0.00    +0.000 A 
ATOM     35 CL   UNL     1       1.338   6.970  20.874  0.00  0.00    +0.000 Cl
ENDBRANCH  26  29
ENDBRANCH   2  25
TORSDOF 6
ENDMDL
MODEL 7
REMARK VINA RESULT:      -7.1      1.671      2.469
REMARK  Name = 
REMARK  8 active torsions:
REMARK  status: ('A' for Active; 'I' for Inactive)
REMARK    1  A    between atoms: C_1  and  C_2
REMARK    2  A    between atoms: C_2  and  C_3
REMARK    3  A    between atoms: C_8  and  N_9
REMARK    4  A    between atoms: C_10  and  C_12
REMARK    5  A    between atoms: C_13  and  N_14
REMARK    6  A    between atoms: C_15  and  C_17
REMARK    7  A    between atoms: C_25  and  C_26
REMARK    8  A    between atoms: C_32  and  C_33
REMARK                            x       y       z     vdW  Elec       q    Type
REMARK                         _______ _______ _______ _____ _____    ______ ____
ROOT
ATOM      1  C   UNL     1       0.423  11.012  20.232  0.00  0.00    +0.000 A 
ATOM      2  C   UNL     1       1.031  11.440  19.070  0.00  0.00    +0.000 A 
ATOM      3  S   UNL     1       2.011  10.265  18.347  0.00  0.00    +0.000 S 
ATOM      4  C   UNL     1       1.580   9.058  19.498  0.00  0.00    +0.000 A 
ATOM      5  C   UNL     1       0.814   9.621  20.521  0.00  0.00    +0.000 A 
ATOM      6  C   UNL     1       0.404   8.917  21.787  0.00  0.00    +0.000 C 
ENDROOT
BRANCH   4   7
ATOM      7  C   UNL     1       2.046   7.660  19.299  0.00  0.00    +0.000 A 
ATOM      8  C   UNL     1       2.666   7.239  18.109  0.00  0.00    +0.000 A 
ATOM      9  C   UNL     1       3.052   5.906  17.923  0.00  0.00    +0.000 A 
ATOM     10  C   UNL     1       2.854   4.969  18.933  0.00  0.00    +0.000 A 
ATOM     11  C   UNL     1       2.265   5.366  20.128  0.00  0.00    +0.000 A 
ATOM     12  C   UNL     1       1.850   6.691  20.299  0.00  0.00    +0.000 A 
ENDBRANCH   4   7
BRANCH   1  14
ATOM     13  N   UNL     1      -1.738  11.746  21.099  0.00  0.00    +0.000 N 
ATOM     14  C   UNL     1      -0.354  11.844  21.170  0.00  0.00    +0.000 C 
ATOM     15  O   UNL     1       0.255  12.560  21.958  0.00  0.00    +0.000 OA
ATOM     16  H   UNL     1      -2.104  11.107  20.401  0.00  0.00    +0.000 HD
BRANCH  13  22
ATOM     17  C   UNL     1      -3.905  12.899  21.373  0.00  0.00    +0.000 A 
ATOM     18  C   UNL     1      -4.793  13.636  22.196  0.00  0.00    +0.000 A 
ATOM     19  C   UNL     1      -4.488  13.923  23.524  0.00  0.00    +0.000 A 
ATOM     20  C   UNL     1      -3.300  13.461  24.059  0.00  0.00    +0.000 A 
ATOM     21  C   UNL     1      -2.411  12.735  23.263  0.00  0.00    +0.000 A 
ATOM     22  C   UNL     1      -2.675  12.453  21.910  0.00  0.00    +0.000 A 
BRANCH  17  24
ATOM     23  C   UNL     1      -5.800  12.143  19.897  0.00  0.00    +0.000 C 
ATOM     24  C   UNL     1      -4.365  12.644  19.959  0.00  0.00    +0.000 C 
ENDBRANCH  17  24
ENDBRANCH  13  22
ENDBRANCH   1  14
BRANCH   2  25
ATOM     25  N   UNL     1       1.077  12.671  18.438  0.00  0.00    +0.000 N 
ATOM     26  C   UNL     1       1.890  13.648  18.993  0.00  0.00    +0.000 C 
ATOM     27  O   UNL     1       2.773  13.382  19.808  0.00  0.00    +0.000 OA
ATOM     28  H   UNL     1       0.174  13.018  18.130  0.00  0.00    +0.000 HD
BRANCH  26  29
ATOM     29  C   UNL     1       1.713  15.083  18.558  0.00  0.00    +0.000 A 
ATOM     30  C   UNL     1       2.785  15.635  17.832  0.00  0.00    +0.000 A 
ATOM     31  C   UNL     1       2.737  16.934  17.318  0.00  0.00    +0.000 A 
ATOM     32  C   UNL     1       1.611  17.716  17.523  0.00  0.00    +0.000 A 
ATOM     33  C   UNL     1       0.535  17.196  18.247  0.00  0.00    +0.000 A 
ATOM     34  C   UNL     1       0.581  15.892  18.774  0.00  0.00    +0.000 A 
ATOM     35 CL   UNL     1      -0.821  15.395  19.648  0.00  0.00    +0.000 Cl
ENDBRANCH  26  29
ENDBRANCH   2  25
TORSDOF 6
ENDMDL
MODEL 8
REMARK VINA RESULT:      -7.1      3.379      7.771
REMARK  Name = 
REMARK  8 active torsions:
REMARK  status: ('A' for Active; 'I' for Inactive)
REMARK    1  A    between atoms: C_1  and  C_2
REMARK    2  A    between atoms: C_2  and  C_3
REMARK    3  A    between atoms: C_8  and  N_9
REMARK    4  A    between atoms: C_10  and  C_12
REMARK    5  A    between atoms: C_13  and  N_14
REMARK    6  A    between atoms: C_15  and  C_17
REMARK    7  A    between atoms: C_25  and  C_26
REMARK    8  A    between atoms: C_32  and  C_33
REMARK                            x       y       z     vdW  Elec       q    Type
REMARK                         _______ _______ _______ _____ _____    ______ ____
ROOT
ATOM      1  C   UNL     1       0.757  11.910  18.960  0.00  0.00    +0.000 A 
ATOM      2  C   UNL     1       0.622  10.546  19.113  0.00  0.00    +0.000 A 
ATOM      3  S   UNL     1      -0.986  10.021  19.124  0.00  0.00    +0.000 S 
ATOM      4  C   UNL     1      -1.604  11.596  18.800  0.00  0.00    +0.000 A 
ATOM      5  C   UNL     1      -0.572  12.537  18.850  0.00  0.00    +0.000 A 
ATOM      6  C   UNL     1      -0.755  14.030  18.794  0.00  0.00    +0.000 C 
ENDROOT
BRANCH   4   7
ATOM      7  C   UNL     1      -3.056  11.770  18.536  0.00  0.00    +0.000 A 
ATOM      8  C   UNL     1      -3.635  11.459  17.293  0.00  0.00    +0.000 A 
ATOM      9  C   UNL     1      -4.997  11.679  17.049  0.00  0.00    +0.000 A 
ATOM     10  C   UNL     1      -5.817  12.187  18.052  0.00  0.00    +0.000 A 
ATOM     11  C   UNL     1      -5.274  12.481  19.297  0.00  0.00    +0.000 A 
ATOM     12  C   UNL     1      -3.907  12.292  19.527  0.00  0.00    +0.000 A 
ENDBRANCH   4   7
BRANCH   1  14
ATOM     13  N   UNL     1       2.116  13.550  20.152  0.00  0.00    +0.000 N 
ATOM     14  C   UNL     1       2.008  12.683  19.072  0.00  0.00    +0.000 C 
ATOM     15  O   UNL     1       2.877  12.514  18.223  0.00  0.00    +0.000 OA
ATOM     16  H   UNL     1       1.319  13.581  20.779  0.00  0.00    +0.000 HD
BRANCH  13  22
ATOM     17  C   UNL     1       3.435  15.602  19.761  0.00  0.00    +0.000 A 
ATOM     18  C   UNL     1       4.579  16.384  20.056  0.00  0.00    +0.000 A 
ATOM     19  C   UNL     1       5.504  15.989  21.017  0.00  0.00    +0.000 A 
ATOM     20  C   UNL     1       5.293  14.815  21.717  0.00  0.00    +0.000 A 
ATOM     21  C   UNL     1       4.172  14.030  21.438  0.00  0.00    +0.000 A 
ATOM     22  C   UNL     1       3.234  14.384  20.453  0.00  0.00    +0.000 A 
BRANCH  17  24
ATOM     23  C   UNL     1       3.221  16.461  17.403  0.00  0.00    +0.000 C 
ATOM     24  C   UNL     1       2.504  16.153  18.709  0.00  0.00    +0.000 C 
ENDBRANCH  17  24
ENDBRANCH  13  22
ENDBRANCH   1  14
BRANCH   2  25
ATOM     25  N   UNL     1       1.540   9.538  19.362  0.00  0.00    +0.000 N 
ATOM     26  C   UNL     1       2.024   8.827  18.275  0.00  0.00    +0.000 C 
ATOM     27  O   UNL     1       1.917   9.239  17.120  0.00  0.00    +0.000 OA
ATOM     28  H   UNL     1       1.315   8.956  20.163  0.00  0.00    +0.000 HD
BRANCH  26  29
ATOM     29  C   UNL     1       2.740   7.519  18.514  0.00  0.00    +0.000 A 
ATOM     30  C   UNL     1       3.736   7.191  17.575  0.00  0.00    +0.000 A 
ATOM     31  C   UNL     1       4.517   6.039  17.702  0.00  0.00    +0.000 A 
ATOM     32  C   UNL     1       4.319   5.183  18.774  0.00  0.00    +0.000 A 
ATOM     33  C   UNL     1       3.332   5.482  19.717  0.00  0.00    +0.000 A 
ATOM     34  C   UNL     1       2.536   6.635  19.591  0.00  0.00    +0.000 A 
ATOM     35 CL   UNL     1       1.358   6.863  20.831  0.00  0.00    +0.000 Cl
ENDBRANCH  26  29
ENDBRANCH   2  25
TORSDOF 6
ENDMDL
MODEL 9
REMARK VINA RESULT:      -7.1      3.305      5.024
REMARK  Name = 
REMARK  8 active torsions:
REMARK  status: ('A' for Active; 'I' for Inactive)
REMARK    1  A    between atoms: C_1  and  C_2
REMARK    2  A    between atoms: C_2  and  C_3
REMARK    3  A    between atoms: C_8  and  N_9
REMARK    4  A    between atoms: C_10  and  C_12
REMARK    5  A    between atoms: C_13  and  N_14
REMARK    6  A    between atoms: C_15  and  C_17
REMARK    7  A    between atoms: C_25  and  C_26
REMARK    8  A    between atoms: C_32  and  C_33
REMARK                            x       y       z     vdW  Elec       q    Type
REMARK                         _______ _______ _______ _____ _____    ______ ____
ROOT
ATOM      1  C   UNL     1      -0.761  11.487  19.735  0.00  0.00    +0.000 A 
ATOM      2  C   UNL     1      -0.105  11.644  20.937  0.00  0.00    +0.000 A 
ATOM      3  S   UNL     1       1.033  10.432  21.251  0.00  0.00    +0.000 S 
ATOM      4  C   UNL     1       0.798   9.680  19.719  0.00  0.00    +0.000 A 
ATOM      5  C   UNL     1      -0.274  10.276  19.050  0.00  0.00    +0.000 A 
ATOM      6  C   UNL     1      -0.885   9.775  17.769  0.00  0.00    +0.000 C 
ENDROOT
BRANCH   4   7
ATOM      7  C   UNL     1       1.684   8.557  19.313  0.00  0.00    +0.000 A 
ATOM      8  C   UNL     1       2.383   8.558  18.093  0.00  0.00    +0.000 A 
ATOM      9  C   UNL     1       3.172   7.467  17.707  0.00  0.00    +0.000 A 
ATOM     10  C   UNL     1       3.305   6.364  18.545  0.00  0.00    +0.000 A 
ATOM     11  C   UNL     1       2.643   6.350  19.767  0.00  0.00    +0.000 A 
ATOM     12  C   UNL     1       1.829   7.426  20.135  0.00  0.00    +0.000 A 
ENDBRANCH   4   7
BRANCH   1  14
ATOM     13  N   UNL     1      -3.166  11.694  19.370  0.00  0.00    +0.000 N 
ATOM     14  C   UNL     1      -1.911  12.278  19.256  0.00  0.00    +0.000 C 
ATOM     15  O   UNL     1      -1.701  13.396  18.799  0.00  0.00    +0.000 OA
ATOM     16  H   UNL     1      -3.190  10.764  19.775  0.00  0.00    +0.000 HD
BRANCH  13  22
ATOM     17  C   UNL     1      -5.086  13.179  19.832  0.00  0.00    +0.000 A 
ATOM     18  C   UNL     1      -6.336  13.709  19.427  0.00  0.00    +0.000 A 
ATOM     19  C   UNL     1      -6.907  13.374  18.203  0.00  0.00    +0.000 A 
ATOM     20  C   UNL     1      -6.230  12.519  17.352  0.00  0.00    +0.000 A 
ATOM     21  C   UNL     1      -4.998  11.986  17.736  0.00  0.00    +0.000 A 
ATOM     22  C   UNL     1      -4.406  12.280  18.977  0.00  0.00    +0.000 A 
BRANCH  17  24
ATOM     23  C   UNL     1      -4.172  15.105  21.174  0.00  0.00    +0.000 C 
ATOM     24  C   UNL     1      -4.572  13.637  21.175  0.00  0.00    +0.000 C 
ENDBRANCH  17  24
ENDBRANCH  13  22
ENDBRANCH   1  14
BRANCH   2  25
ATOM     25  N   UNL     1      -0.269  12.538  21.982  0.00  0.00    +0.000 N 
ATOM     26  C   UNL     1      -1.450  12.471  22.706  0.00  0.00    +0.000 C 
ATOM     27  O   UNL     1      -2.193  11.490  22.662  0.00  0.00    +0.000 OA
ATOM     28  H   UNL     1       0.028  13.486  21.773  0.00  0.00    +0.000 HD
BRANCH  26  29
ATOM     29  C   UNL     1      -1.823  13.623  23.608  0.00  0.00    +0.000 A 
ATOM     30  C   UNL     1      -0.951  14.727  23.578  0.00  0.00    +0.000 A 
ATOM     31  C   UNL     1      -1.201  15.885  24.319  0.00  0.00    +0.000 A 
ATOM     32  C   UNL     1      -2.333  15.966  25.114  0.00  0.00    +0.000 A 
ATOM     33  C   UNL     1      -3.213  14.881  25.168  0.00  0.00    +0.000 A 
ATOM     34  C   UNL     1      -2.962  13.709  24.431  0.00  0.00    +0.000 A 
ATOM     35 CL   UNL     1      -4.137  12.457  24.606  0.00  0.00    +0.000 Cl
ENDBRANCH  26  29
ENDBRANCH   2  25
TORSDOF 6
ENDMDL
