MODEL 1
REMARK VINA RESULT:      -7.3      0.000      0.000
REMARK  Name = 
REMARK  12 active torsions:
REMARK  status: ('A' for Active; 'I' for Inactive)
REMARK    1  A    between atoms: C_1  and  C_2
REMARK    2  A    between atoms: C_2  and  C_3
REMARK    3  A    between atoms: C_3  and  C_4
REMARK    4  A    between atoms: C_4  and  C_5
REMARK    5  A    between atoms: C_5  and  C_6
REMARK    6  A    between atoms: C_6  and  N_7
REMARK    7  A    between atoms: C_8  and  S_9
REMARK    8  A    between atoms: S_9  and  C_10
REMARK    9  A    between atoms: C_10  and  C_11
REMARK   10  A    between atoms: C_11  and  C_12
REMARK   11  A    between atoms: C_11  and  C_13
REMARK   12  A    between atoms: N_22  and  C_23
REMARK                            x       y       z     vdW  Elec       q    Type
REMARK                         _______ _______ _______ _____ _____    ______ ____
ROOT
ATOM      1  N   UNL     1       4.560   5.384  16.925  0.00  0.00    +0.000 N 
ATOM      2  C   UNL     1       4.970   4.105  16.600  0.00  0.00    +0.000 A 
ATOM      3  N   UNL     1       4.267   3.189  17.236  0.00  0.00    +0.000 NA
ATOM      4  C   UNL     1       3.413   3.901  18.024  0.00  0.00    +0.000 A 
ATOM      5  C   UNL     1       3.607   5.249  17.902  0.00  0.00    +0.000 A 
ATOM      6  C   UNL     1       2.854   6.195  18.657  0.00  0.00    +0.000 A 
ATOM      7  O   UNL     1       2.970   7.413  18.597  0.00  0.00    +0.000 OA
ATOM      8  N   UNL     1       1.945   5.600  19.505  0.00  0.00    +0.000 N 
ATOM      9  C   UNL     1       1.665   4.253  19.613  0.00  0.00    +0.000 A 
ATOM     10  O   UNL     1       0.753   3.899  20.362  0.00  0.00    +0.000 OA
ATOM     11  N   UNL     1       2.436   3.382  18.853  0.00  0.00    +0.000 N 
ATOM     12  C   UNL     1       2.163   1.957  18.877  0.00  0.00    +0.000 C 
ATOM     13  H   UNL     1       1.375   6.218  20.059  0.00  0.00    +0.000 HD
ENDROOT
BRANCH   1  14
ATOM     14  C   UNL     1       4.993   6.634  16.326  0.00  0.00    +0.000 C 
BRANCH  14  15
ATOM     15  C   UNL     1       6.001   7.431  17.163  0.00  0.00    +0.000 C 
BRANCH  15  16
ATOM     16  C   UNL     1       7.084   6.557  17.800  0.00  0.00    +0.000 C 
BRANCH  16  17
ATOM     17  C   UNL     1       8.224   7.409  18.358  0.00  0.00    +0.000 C 
BRANCH  17  19
ATOM     18  C   UNL     1       8.913   9.795  18.773  0.00  0.00    +0.000 C 
ATOM     19  C   UNL     1       8.100   8.860  17.895  0.00  0.00    +0.000 C 
ENDBRANCH  17  19
ENDBRANCH  16  17
ENDBRANCH  15  16
ENDBRANCH  14  15
ENDBRANCH   1  14
BRANCH   2  20
ATOM     20  S   UNL     1       6.208   3.793  15.423  0.00  0.00    +0.000 S 
BRANCH  20  21
ATOM     21  C   UNL     1       5.406   4.248  13.856  0.00  0.00    +0.000 C 
BRANCH  21  22
ATOM     22  C   UNL     1       5.831   3.383  12.646  0.00  0.00    +0.000 C 
ATOM     23  C   UNL     1       4.695   3.145  11.647  0.00  0.00    +0.000 C 
ATOM     24  C   UNL     1       7.064   3.925  11.915  0.00  0.00    +0.000 C 
ENDBRANCH  21  22
ENDBRANCH  20  21
ENDBRANCH   2  20
TORSDOF 8
ENDMDL
MODEL 2
REMARK VINA RESULT:      -6.9      0.732      1.312
REMARK  Name = 
REMARK  12 active torsions:
REMARK  status: ('A' for Active; 'I' for Inactive)
REMARK    1  A    between atoms: C_1  and  C_2
REMARK    2  A    between atoms: C_2  and  C_3
REMARK    3  A    between atoms: C_3  and  C_4
REMARK    4  A    between atoms: C_4  and  C_5
REMARK    5  A    between atoms: C_5  and  C_6
REMARK    6  A    between atoms: C_6  and  N_7
REMARK    7  A    between atoms: C_8  and  S_9
REMARK    8  A    between atoms: S_9  and  C_10
REMARK    9  A    between atoms: C_10  and  C_11
REMARK   10  A    between atoms: C_11  and  C_12
REMARK   11  A    between atoms: C_11  and  C_13
REMARK   12  A    between atoms: N_22  and  C_23
REMARK                            x       y       z     vdW  Elec       q    Type
REMARK                         _______ _______ _______ _____ _____    ______ ____
ROOT
ATOM      1  N   UNL     1       4.512   5.414  16.906  0.00  0.00    +0.000 N 
ATOM      2  C   UNL     1       4.929   4.148  16.538  0.00  0.00    +0.000 A 
ATOM      3  N   UNL     1       4.237   3.208  17.149  0.00  0.00    +0.000 NA
ATOM      4  C   UNL     1       3.383   3.887  17.965  0.00  0.00    +0.000 A 
ATOM      5  C   UNL     1       3.567   5.239  17.885  0.00  0.00    +0.000 A 
ATOM      6  C   UNL     1       2.811   6.156  18.675  0.00  0.00    +0.000 A 
ATOM      7  O   UNL     1       2.917   7.376  18.653  0.00  0.00    +0.000 OA
ATOM      8  N   UNL     1       1.913   5.526  19.509  0.00  0.00    +0.000 N 
ATOM      9  C   UNL     1       1.643   4.175  19.576  0.00  0.00    +0.000 A 
ATOM     10  O   UNL     1       0.739   3.790  20.320  0.00  0.00    +0.000 OA
ATOM     11  N   UNL     1       2.416   3.334  18.783  0.00  0.00    +0.000 N 
ATOM     12  C   UNL     1       2.154   1.908  18.764  0.00  0.00    +0.000 C 
ATOM     13  H   UNL     1       1.342   6.122  20.086  0.00  0.00    +0.000 HD
ENDROOT
BRANCH   1  14
ATOM     14  C   UNL     1       4.931   6.685  16.344  0.00  0.00    +0.000 C 
BRANCH  14  15
ATOM     15  C   UNL     1       5.847   7.516  17.251  0.00  0.00    +0.000 C 
BRANCH  15  16
ATOM     16  C   UNL     1       7.334   7.217  17.046  0.00  0.00    +0.000 C 
BRANCH  16  17
ATOM     17  C   UNL     1       8.074   7.155  18.383  0.00  0.00    +0.000 C 
BRANCH  17  19
ATOM     18  C   UNL     1       7.910   4.643  18.379  0.00  0.00    +0.000 C 
ATOM     19  C   UNL     1       7.669   5.913  19.175  0.00  0.00    +0.000 C 
ENDBRANCH  17  19
ENDBRANCH  16  17
ENDBRANCH  15  16
ENDBRANCH  14  15
ENDBRANCH   1  14
BRANCH   2  20
ATOM     20  S   UNL     1       6.161   3.884  15.344  0.00  0.00    +0.000 S 
BRANCH  20  21
ATOM     21  C   UNL     1       5.306   4.261  13.784  0.00  0.00    +0.000 C 
BRANCH  21  22
ATOM     22  C   UNL     1       5.727   3.370  12.592  0.00  0.00    +0.000 C 
ATOM     23  C   UNL     1       4.608   3.170  11.565  0.00  0.00    +0.000 C 
ATOM     24  C   UNL     1       7.000   3.855  11.890  0.00  0.00    +0.000 C 
ENDBRANCH  21  22
ENDBRANCH  20  21
ENDBRANCH   2  20
TORSDOF 8
ENDMDL
MODEL 3
REMARK VINA RESULT:      -6.9      3.429      7.101
REMARK  Name = 
REMARK  12 active torsions:
REMARK  status: ('A' for Active; 'I' for Inactive)
REMARK    1  A    between atoms: C_1  and  C_2
REMARK    2  A    between atoms: C_2  and  C_3
REMARK    3  A    between atoms: C_3  and  C_4
REMARK    4  A    between atoms: C_4  and  C_5
REMARK    5  A    between atoms: C_5  and  C_6
REMARK    6  A    between atoms: C_6  and  N_7
REMARK    7  A    between atoms: C_8  and  S_9
REMARK    8  A    between atoms: S_9  and  C_10
REMARK    9  A    between atoms: C_10  and  C_11
REMARK   10  A    between atoms: C_11  and  C_12
REMARK   11  A    between atoms: C_11  and  C_13
REMARK   12  A    between atoms: N_22  and  C_23
REMARK                            x       y       z     vdW  Elec       q    Type
REMARK                         _______ _______ _______ _____ _____    ______ ____
ROOT
ATOM      1  N   UNL     1       3.230   5.821  18.374  0.00  0.00    +0.000 N 
ATOM      2  C   UNL     1       3.371   7.109  17.893  0.00  0.00    +0.000 A 
ATOM      3  N   UNL     1       4.601   7.344  17.480  0.00  0.00    +0.000 NA
ATOM      4  C   UNL     1       5.277   6.192  17.746  0.00  0.00    +0.000 A 
ATOM      5  C   UNL     1       4.480   5.259  18.348  0.00  0.00    +0.000 A 
ATOM      6  C   UNL     1       4.977   3.985  18.754  0.00  0.00    +0.000 A 
ATOM      7  O   UNL     1       4.324   3.100  19.293  0.00  0.00    +0.000 OA
ATOM      8  N   UNL     1       6.318   3.824  18.481  0.00  0.00    +0.000 N 
ATOM      9  C   UNL     1       7.146   4.705  17.815  0.00  0.00    +0.000 A 
ATOM     10  O   UNL     1       8.304   4.361  17.576  0.00  0.00    +0.000 OA
ATOM     11  N   UNL     1       6.602   5.931  17.449  0.00  0.00    +0.000 N 
ATOM     12  C   UNL     1       7.397   6.886  16.701  0.00  0.00    +0.000 C 
ATOM     13  H   UNL     1       6.726   2.939  18.735  0.00  0.00    +0.000 HD
ENDROOT
BRANCH   1  14
ATOM     14  C   UNL     1       2.004   5.153  18.777  0.00  0.00    +0.000 C 
BRANCH  14  15
ATOM     15  C   UNL     1       1.538   4.043  17.827  0.00  0.00    +0.000 C 
BRANCH  15  16
ATOM     16  C   UNL     1       0.904   2.853  18.552  0.00  0.00    +0.000 C 
BRANCH  16  17
ATOM     17  C   UNL     1       0.611   3.190  20.015  0.00  0.00    +0.000 C 
BRANCH  17  19
ATOM     18  C   UNL     1       2.196   3.307  21.968  0.00  0.00    +0.000 C 
ATOM     19  C   UNL     1       1.525   2.400  20.951  0.00  0.00    +0.000 C 
ENDBRANCH  17  19
ENDBRANCH  16  17
ENDBRANCH  15  16
ENDBRANCH  14  15
ENDBRANCH   1  14
BRANCH   2  20
ATOM     20  S   UNL     1       2.038   8.216  17.785  0.00  0.00    +0.000 S 
BRANCH  20  21
ATOM     21  C   UNL     1       1.723   8.648  19.523  0.00  0.00    +0.000 C 
BRANCH  21  22
ATOM     22  C   UNL     1       0.711   9.801  19.721  0.00  0.00    +0.000 C 
ATOM     23  C   UNL     1      -0.102  10.113  18.461  0.00  0.00    +0.000 C 
ATOM     24  C   UNL     1      -0.232   9.584  20.910  0.00  0.00    +0.000 C 
ENDBRANCH  21  22
ENDBRANCH  20  21
ENDBRANCH   2  20
TORSDOF 8
ENDMDL
MODEL 4
REMARK VINA RESULT:      -6.9      3.443      7.022
REMARK  Name = 
REMARK  12 active torsions:
REMARK  status: ('A' for Active; 'I' for Inactive)
REMARK    1  A    between atoms: C_1  and  C_2
REMARK    2  A    between atoms: C_2  and  C_3
REMARK    3  A    between atoms: C_3  and  C_4
REMARK    4  A    between atoms: C_4  and  C_5
REMARK    5  A    between atoms: C_5  and  C_6
REMARK    6  A    between atoms: C_6  and  N_7
REMARK    7  A    between atoms: C_8  and  S_9
REMARK    8  A    between atoms: S_9  and  C_10
REMARK    9  A    between atoms: C_10  and  C_11
REMARK   10  A    between atoms: C_11  and  C_12
REMARK   11  A    between atoms: C_11  and  C_13
REMARK   12  A    between atoms: N_22  and  C_23
REMARK                            x       y       z     vdW  Elec       q    Type
REMARK                         _______ _______ _______ _____ _____    ______ ____
ROOT
ATOM      1  N   UNL     1       3.194   5.707  19.694  0.00  0.00    +0.000 N 
ATOM      2  C   UNL     1       2.897   6.905  19.072  0.00  0.00    +0.000 A 
ATOM      3  N   UNL     1       3.612   7.079  17.979  0.00  0.00    +0.000 NA
ATOM      4  C   UNL     1       4.422   5.985  17.922  0.00  0.00    +0.000 A 
ATOM      5  C   UNL     1       4.233   5.153  18.990  0.00  0.00    +0.000 A 
ATOM      6  C   UNL     1       4.994   3.960  19.167  0.00  0.00    +0.000 A 
ATOM      7  O   UNL     1       4.877   3.167  20.093  0.00  0.00    +0.000 OA
ATOM      8  N   UNL     1       5.920   3.765  18.165  0.00  0.00    +0.000 N 
ATOM      9  C   UNL     1       6.101   4.536  17.035  0.00  0.00    +0.000 A 
ATOM     10  O   UNL     1       6.919   4.164  16.192  0.00  0.00    +0.000 OA
ATOM     11  N   UNL     1       5.330   5.688  16.923  0.00  0.00    +0.000 N 
ATOM     12  C   UNL     1       5.430   6.519  15.739  0.00  0.00    +0.000 C 
ATOM     13  H   UNL     1       6.482   2.932  18.229  0.00  0.00    +0.000 HD
ENDROOT
BRANCH   1  14
ATOM     14  C   UNL     1       2.518   5.105  20.829  0.00  0.00    +0.000 C 
BRANCH  14  15
ATOM     15  C   UNL     1       1.171   4.449  20.499  0.00  0.00    +0.000 C 
BRANCH  15  16
ATOM     16  C   UNL     1       1.256   2.926  20.367  0.00  0.00    +0.000 C 
BRANCH  16  17
ATOM     17  C   UNL     1       0.871   2.472  18.958  0.00  0.00    +0.000 C 
BRANCH  17  19
ATOM     18  C   UNL     1       2.367   3.069  17.024  0.00  0.00    +0.000 C 
ATOM     19  C   UNL     1       2.108   2.084  18.151  0.00  0.00    +0.000 C 
ENDBRANCH  17  19
ENDBRANCH  16  17
ENDBRANCH  15  16
ENDBRANCH  14  15
ENDBRANCH   1  14
BRANCH   2  20
ATOM     20  S   UNL     1       1.659   7.976  19.653  0.00  0.00    +0.000 S 
BRANCH  20  21
ATOM     21  C   UNL     1       1.501   9.187  18.306  0.00  0.00    +0.000 C 
BRANCH  21  22
ATOM     22  C   UNL     1       0.595  10.396  18.636  0.00  0.00    +0.000 C 
ATOM     23  C   UNL     1      -0.398  10.113  19.768  0.00  0.00    +0.000 C 
ATOM     24  C   UNL     1       1.378  11.679  18.937  0.00  0.00    +0.000 C 
ENDBRANCH  21  22
ENDBRANCH  20  21
ENDBRANCH   2  20
TORSDOF 8
ENDMDL
MODEL 5
REMARK VINA RESULT:      -6.9      2.665      4.817
REMARK  Name = 
REMARK  12 active torsions:
REMARK  status: ('A' for Active; 'I' for Inactive)
REMARK    1  A    between atoms: C_1  and  C_2
REMARK    2  A    between atoms: C_2  and  C_3
REMARK    3  A    between atoms: C_3  and  C_4
REMARK    4  A    between atoms: C_4  and  C_5
REMARK    5  A    between atoms: C_5  and  C_6
REMARK    6  A    between atoms: C_6  and  N_7
REMARK    7  A    between atoms: C_8  and  S_9
REMARK    8  A    between atoms: S_9  and  C_10
REMARK    9  A    between atoms: C_10  and  C_11
REMARK   10  A    between atoms: C_11  and  C_12
REMARK   11  A    between atoms: C_11  and  C_13
REMARK   12  A    between atoms: N_22  and  C_23
REMARK                            x       y       z     vdW  Elec       q    Type
REMARK                         _______ _______ _______ _____ _____    ______ ____
ROOT
ATOM      1  N   UNL     1       3.472   6.435  18.151  0.00  0.00    +0.000 N 
ATOM      2  C   UNL     1       4.203   5.595  17.332  0.00  0.00    +0.000 A 
ATOM      3  N   UNL     1       4.003   4.327  17.629  0.00  0.00    +0.000 NA
ATOM      4  C   UNL     1       3.157   4.355  18.696  0.00  0.00    +0.000 A 
ATOM      5  C   UNL     1       2.858   5.633  19.079  0.00  0.00    +0.000 A 
ATOM      6  C   UNL     1       2.018   5.914  20.196  0.00  0.00    +0.000 A 
ATOM      7  O   UNL     1       1.704   7.030  20.593  0.00  0.00    +0.000 OA
ATOM      8  N   UNL     1       1.569   4.774  20.826  0.00  0.00    +0.000 N 
ATOM      9  C   UNL     1       1.785   3.467  20.439  0.00  0.00    +0.000 A 
ATOM     10  O   UNL     1       1.232   2.566  21.071  0.00  0.00    +0.000 OA
ATOM     11  N   UNL     1       2.616   3.260  19.344  0.00  0.00    +0.000 N 
ATOM     12  C   UNL     1       2.847   1.916  18.849  0.00  0.00    +0.000 C 
ATOM     13  H   UNL     1       0.962   4.908  21.619  0.00  0.00    +0.000 HD
ENDROOT
BRANCH   1  14
ATOM     14  C   UNL     1       3.320   7.875  18.036  0.00  0.00    +0.000 C 
BRANCH  14  15
ATOM     15  C   UNL     1       1.937   8.338  17.561  0.00  0.00    +0.000 C 
BRANCH  15  16
ATOM     16  C   UNL     1       1.488   9.656  18.197  0.00  0.00    +0.000 C 
BRANCH  16  17
ATOM     17  C   UNL     1      -0.021   9.852  18.052  0.00  0.00    +0.000 C 
BRANCH  17  19
ATOM     18  C   UNL     1      -0.838  12.154  18.662  0.00  0.00    +0.000 C 
ATOM     19  C   UNL     1      -0.566  10.746  19.164  0.00  0.00    +0.000 C 
ENDBRANCH  17  19
ENDBRANCH  16  17
ENDBRANCH  15  16
ENDBRANCH  14  15
ENDBRANCH   1  14
BRANCH   2  20
ATOM     20  S   UNL     1       5.184   6.186  16.027  0.00  0.00    +0.000 S 
BRANCH  20  21
ATOM     21  C   UNL     1       6.876   5.975  16.658  0.00  0.00    +0.000 C 
BRANCH  21  22
ATOM     22  C   UNL     1       7.187   6.784  17.939  0.00  0.00    +0.000 C 
ATOM     23  C   UNL     1       7.921   5.966  19.005  0.00  0.00    +0.000 C 
ATOM     24  C   UNL     1       7.945   8.087  17.666  0.00  0.00    +0.000 C 
ENDBRANCH  21  22
ENDBRANCH  20  21
ENDBRANCH   2  20
TORSDOF 8
ENDMDL
MODEL 6
REMARK VINA RESULT:      -6.8      1.724      5.159
REMARK  Name = 
REMARK  12 active torsions:
REMARK  status: ('A' for Active; 'I' for Inactive)
REMARK    1  A    between atoms: C_1  and  C_2
REMARK    2  A    between atoms: C_2  and  C_3
REMARK    3  A    between atoms: C_3  and  C_4
REMARK    4  A    between atoms: C_4  and  C_5
REMARK    5  A    between atoms: C_5  and  C_6
REMARK    6  A    between atoms: C_6  and  N_7
REMARK    7  A    between atoms: C_8  and  S_9
REMARK    8  A    between atoms: S_9  and  C_10
REMARK    9  A    between atoms: C_10  and  C_11
REMARK   10  A    between atoms: C_11  and  C_12
REMARK   11  A    between atoms: C_11  and  C_13
REMARK   12  A    between atoms: N_22  and  C_23
REMARK                            x       y       z     vdW  Elec       q    Type
REMARK                         _______ _______ _______ _____ _____    ______ ____
ROOT
ATOM      1  N   UNL     1       4.426   4.343  17.224  0.00  0.00    +0.000 N 
ATOM      2  C   UNL     1       4.245   5.707  17.360  0.00  0.00    +0.000 A 
ATOM      3  N   UNL     1       3.436   5.996  18.359  0.00  0.00    +0.000 NA
ATOM      4  C   UNL     1       3.051   4.784  18.848  0.00  0.00    +0.000 A 
ATOM      5  C   UNL     1       3.593   3.750  18.137  0.00  0.00    +0.000 A 
ATOM      6  C   UNL     1       3.305   2.386  18.442  0.00  0.00    +0.000 A 
ATOM      7  O   UNL     1       3.756   1.411  17.854  0.00  0.00    +0.000 OA
ATOM      8  N   UNL     1       2.432   2.249  19.500  0.00  0.00    +0.000 N 
ATOM      9  C   UNL     1       1.914   3.255  20.290  0.00  0.00    +0.000 A 
ATOM     10  O   UNL     1       1.215   2.945  21.256  0.00  0.00    +0.000 OA
ATOM     11  N   UNL     1       2.230   4.562  19.939  0.00  0.00    +0.000 N 
ATOM     12  C   UNL     1       1.764   5.668  20.754  0.00  0.00    +0.000 C 
ATOM     13  H   UNL     1       2.198   1.307  19.769  0.00  0.00    +0.000 HD
ENDROOT
BRANCH   1  14
ATOM     14  C   UNL     1       5.349   3.654  16.340  0.00  0.00    +0.000 C 
BRANCH  14  15
ATOM     15  C   UNL     1       5.105   3.894  14.845  0.00  0.00    +0.000 C 
BRANCH  15  16
ATOM     16  C   UNL     1       6.390   3.893  14.013  0.00  0.00    +0.000 C 
BRANCH  16  17
ATOM     17  C   UNL     1       6.118   3.440  12.578  0.00  0.00    +0.000 C 
BRANCH  17  19
ATOM     18  C   UNL     1       4.210   2.864  11.041  0.00  0.00    +0.000 C 
ATOM     19  C   UNL     1       4.686   3.771  12.162  0.00  0.00    +0.000 C 
ENDBRANCH  17  19
ENDBRANCH  16  17
ENDBRANCH  15  16
ENDBRANCH  14  15
ENDBRANCH   1  14
BRANCH   2  20
ATOM     20  S   UNL     1       5.077   6.861  16.365  0.00  0.00    +0.000 S 
BRANCH  20  21
ATOM     21  C   UNL     1       6.827   6.540  16.742  0.00  0.00    +0.000 C 
BRANCH  21  22
ATOM     22  C   UNL     1       7.288   7.055  18.127  0.00  0.00    +0.000 C 
ATOM     23  C   UNL     1       7.931   5.965  18.990  0.00  0.00    +0.000 C 
ATOM     24  C   UNL     1       8.215   8.272  18.045  0.00  0.00    +0.000 C 
ENDBRANCH  21  22
ENDBRANCH  20  21
ENDBRANCH   2  20
TORSDOF 8
ENDMDL
MODEL 7
REMARK VINA RESULT:      -6.8      2.721      6.047
REMARK  Name = 
REMARK  12 active torsions:
REMARK  status: ('A' for Active; 'I' for Inactive)
REMARK    1  A    between atoms: C_1  and  C_2
REMARK    2  A    between atoms: C_2  and  C_3
REMARK    3  A    between atoms: C_3  and  C_4
REMARK    4  A    between atoms: C_4  and  C_5
REMARK    5  A    between atoms: C_5  and  C_6
REMARK    6  A    between atoms: C_6  and  N_7
REMARK    7  A    between atoms: C_8  and  S_9
REMARK    8  A    between atoms: S_9  and  C_10
REMARK    9  A    between atoms: C_10  and  C_11
REMARK   10  A    between atoms: C_11  and  C_12
REMARK   11  A    between atoms: C_11  and  C_13
REMARK   12  A    between atoms: N_22  and  C_23
REMARK                            x       y       z     vdW  Elec       q    Type
REMARK                         _______ _______ _______ _____ _____    ______ ____
ROOT
ATOM      1  N   UNL     1       4.404   4.617  17.848  0.00  0.00    +0.000 N 
ATOM      2  C   UNL     1       3.588   3.831  17.056  0.00  0.00    +0.000 A 
ATOM      3  N   UNL     1       4.092   3.664  15.849  0.00  0.00    +0.000 NA
ATOM      4  C   UNL     1       5.238   4.401  15.853  0.00  0.00    +0.000 A 
ATOM      5  C   UNL     1       5.428   5.046  17.043  0.00  0.00    +0.000 A 
ATOM      6  C   UNL     1       6.543   5.906  17.271  0.00  0.00    +0.000 A 
ATOM      7  O   UNL     1       6.780   6.511  18.309  0.00  0.00    +0.000 OA
ATOM      8  N   UNL     1       7.370   6.009  16.173  0.00  0.00    +0.000 N 
ATOM      9  C   UNL     1       7.259   5.328  14.979  0.00  0.00    +0.000 A 
ATOM     10  O   UNL     1       8.142   5.474  14.132  0.00  0.00    +0.000 OA
ATOM     11  N   UNL     1       6.148   4.507  14.817  0.00  0.00    +0.000 N 
ATOM     12  C   UNL     1       5.993   3.721  13.609  0.00  0.00    +0.000 C 
ATOM     13  H   UNL     1       8.182   6.596  16.276  0.00  0.00    +0.000 HD
ENDROOT
BRANCH   1  14
ATOM     14  C   UNL     1       4.259   4.901  19.265  0.00  0.00    +0.000 C 
BRANCH  14  15
ATOM     15  C   UNL     1       3.561   6.228  19.585  0.00  0.00    +0.000 C 
BRANCH  15  16
ATOM     16  C   UNL     1       2.546   6.650  18.520  0.00  0.00    +0.000 C 
BRANCH  16  17
ATOM     17  C   UNL     1       3.023   7.891  17.764  0.00  0.00    +0.000 C 
BRANCH  17  19
ATOM     18  C   UNL     1       1.324   9.143  19.136  0.00  0.00    +0.000 C 
ATOM     19  C   UNL     1       1.949   8.977  17.761  0.00  0.00    +0.000 C 
ENDBRANCH  17  19
ENDBRANCH  16  17
ENDBRANCH  15  16
ENDBRANCH  14  15
ENDBRANCH   1  14
BRANCH   2  20
ATOM     20  S   UNL     1       2.131   3.101  17.654  0.00  0.00    +0.000 S 
BRANCH  20  21
ATOM     21  C   UNL     1       2.677   2.295  19.190  0.00  0.00    +0.000 C 
BRANCH  21  22
ATOM     22  C   UNL     1       1.748   2.533  20.403  0.00  0.00    +0.000 C 
ATOM     23  C   UNL     1       2.507   2.657  21.727  0.00  0.00    +0.000 C 
ATOM     24  C   UNL     1       0.810   3.732  20.223  0.00  0.00    +0.000 C 
ENDBRANCH  21  22
ENDBRANCH  20  21
ENDBRANCH   2  20
TORSDOF 8
ENDMDL
MODEL 8
REMARK VINA RESULT:      -6.7      2.572      5.440
REMARK  Name = 
REMARK  12 active torsions:
REMARK  status: ('A' for Active; 'I' for Inactive)
REMARK    1  A    between atoms: C_1  and  C_2
REMARK    2  A    between atoms: C_2  and  C_3
REMARK    3  A    between atoms: C_3  and  C_4
REMARK    4  A    between atoms: C_4  and  C_5
REMARK    5  A    between atoms: C_5  and  C_6
REMARK    6  A    between atoms: C_6  and  N_7
REMARK    7  A    between atoms: C_8  and  S_9
REMARK    8  A    between atoms: S_9  and  C_10
REMARK    9  A    between atoms: C_10  and  C_11
REMARK   10  A    between atoms: C_11  and  C_12
REMARK   11  A    between atoms: C_11  and  C_13
REMARK   12  A    between atoms: N_22  and  C_23
REMARK                            x       y       z     vdW  Elec       q    Type
REMARK                         _______ _______ _______ _____ _____    ______ ____
ROOT
ATOM      1  N   UNL     1       4.225   4.645  18.904  0.00  0.00    +0.000 N 
ATOM      2  C   UNL     1       4.555   5.176  17.672  0.00  0.00    +0.000 A 
ATOM      3  N   UNL     1       3.959   6.333  17.462  0.00  0.00    +0.000 NA
ATOM      4  C   UNL     1       3.191   6.528  18.570  0.00  0.00    +0.000 A 
ATOM      5  C   UNL     1       3.285   5.484  19.448  0.00  0.00    +0.000 A 
ATOM      6  C   UNL     1       2.543   5.446  20.665  0.00  0.00    +0.000 A 
ATOM      7  O   UNL     1       2.580   4.549  21.498  0.00  0.00    +0.000 OA
ATOM      8  N   UNL     1       1.738   6.552  20.833  0.00  0.00    +0.000 N 
ATOM      9  C   UNL     1       1.660   7.659  20.013  0.00  0.00    +0.000 A 
ATOM     10  O   UNL     1       0.950   8.603  20.363  0.00  0.00    +0.000 OA
ATOM     11  N   UNL     1       2.406   7.633  18.840  0.00  0.00    +0.000 N 
ATOM     12  C   UNL     1       2.413   8.783  17.957  0.00  0.00    +0.000 C 
ATOM     13  H   UNL     1       1.195   6.588  21.680  0.00  0.00    +0.000 HD
ENDROOT
BRANCH   1  14
ATOM     14  C   UNL     1       4.790   3.470  19.545  0.00  0.00    +0.000 C 
BRANCH  14  15
ATOM     15  C   UNL     1       4.232   2.135  19.038  0.00  0.00    +0.000 C 
BRANCH  15  16
ATOM     16  C   UNL     1       2.935   2.284  18.239  0.00  0.00    +0.000 C 
BRANCH  16  17
ATOM     17  C   UNL     1       1.713   1.992  19.112  0.00  0.00    +0.000 C 
BRANCH  17  19
ATOM     18  C   UNL     1       0.927   3.879  17.642  0.00  0.00    +0.000 C 
ATOM     19  C   UNL     1       0.571   2.955  18.794  0.00  0.00    +0.000 C 
ENDBRANCH  17  19
ENDBRANCH  16  17
ENDBRANCH  15  16
ENDBRANCH  14  15
ENDBRANCH   1  14
BRANCH   2  20
ATOM     20  S   UNL     1       5.691   4.415  16.602  0.00  0.00    +0.000 S 
BRANCH  20  21
ATOM     21  C   UNL     1       7.120   5.539  16.657  0.00  0.00    +0.000 C 
BRANCH  21  22
ATOM     22  C   UNL     1       7.173   6.446  17.908  0.00  0.00    +0.000 C 
ATOM     23  C   UNL     1       7.890   5.795  19.094  0.00  0.00    +0.000 C 
ATOM     24  C   UNL     1       7.772   7.829  17.631  0.00  0.00    +0.000 C 
ENDBRANCH  21  22
ENDBRANCH  20  21
ENDBRANCH   2  20
TORSDOF 8
ENDMDL
MODEL 9
REMARK VINA RESULT:      -6.6      2.637      4.725
REMARK  Name = 
REMARK  12 active torsions:
REMARK  status: ('A' for Active; 'I' for Inactive)
REMARK    1  A    between atoms: C_1  and  C_2
REMARK    2  A    between atoms: C_2  and  C_3
REMARK    3  A    between atoms: C_3  and  C_4
REMARK    4  A    between atoms: C_4  and  C_5
REMARK    5  A    between atoms: C_5  and  C_6
REMARK    6  A    between atoms: C_6  and  N_7
REMARK    7  A    between atoms: C_8  and  S_9
REMARK    8  A    between atoms: S_9  and  C_10
REMARK    9  A    between atoms: C_10  and  C_11
REMARK   10  A    between atoms: C_11  and  C_12
REMARK   11  A    between atoms: C_11  and  C_13
REMARK   12  A    between atoms: N_22  and  C_23
REMARK                            x       y       z     vdW  Elec       q    Type
REMARK                         _______ _______ _______ _____ _____    ______ ____
ROOT
ATOM      1  N   UNL     1       3.239   5.796  18.237  0.00  0.00    +0.000 N 
ATOM      2  C   UNL     1       4.320   5.175  17.641  0.00  0.00    +0.000 A 
ATOM      3  N   UNL     1       4.659   4.070  18.274  0.00  0.00    +0.000 NA
ATOM      4  C   UNL     1       3.802   4.004  19.331  0.00  0.00    +0.000 A 
ATOM      5  C   UNL     1       2.957   5.078  19.371  0.00  0.00    +0.000 A 
ATOM      6  C   UNL     1       1.993   5.246  20.409  0.00  0.00    +0.000 A 
ATOM      7  O   UNL     1       1.203   6.176  20.508  0.00  0.00    +0.000 OA
ATOM      8  N   UNL     1       2.028   4.229  21.339  0.00  0.00    +0.000 N 
ATOM      9  C   UNL     1       2.812   3.094  21.305  0.00  0.00    +0.000 A 
ATOM     10  O   UNL     1       2.650   2.239  22.177  0.00  0.00    +0.000 OA
ATOM     11  N   UNL     1       3.734   2.991  20.269  0.00  0.00    +0.000 N 
ATOM     12  C   UNL     1       4.554   1.803  20.140  0.00  0.00    +0.000 C 
ATOM     13  H   UNL     1       1.363   4.287  22.093  0.00  0.00    +0.000 HD
ENDROOT
BRANCH   1  14
ATOM     14  C   UNL     1       2.495   6.944  17.750  0.00  0.00    +0.000 C 
BRANCH  14  15
ATOM     15  C   UNL     1       2.957   8.293  18.315  0.00  0.00    +0.000 C 
BRANCH  15  16
ATOM     16  C   UNL     1       2.162   9.482  17.769  0.00  0.00    +0.000 C 
BRANCH  16  17
ATOM     17  C   UNL     1       0.662   9.295  17.996  0.00  0.00    +0.000 C 
BRANCH  17  19
ATOM     18  C   UNL     1      -0.819  11.175  18.778  0.00  0.00    +0.000 C 
ATOM     19  C   UNL     1       0.184  10.112  19.195  0.00  0.00    +0.000 C 
ENDBRANCH  17  19
ENDBRANCH  16  17
ENDBRANCH  15  16
ENDBRANCH  14  15
ENDBRANCH   1  14
BRANCH   2  20
ATOM     20  S   UNL     1       5.051   5.773  16.184  0.00  0.00    +0.000 S 
BRANCH  20  21
ATOM     21  C   UNL     1       6.810   5.895  16.630  0.00  0.00    +0.000 C 
BRANCH  21  22
ATOM     22  C   UNL     1       7.092   6.733  17.899  0.00  0.00    +0.000 C 
ATOM     23  C   UNL     1       7.829   5.948  18.987  0.00  0.00    +0.000 C 
ATOM     24  C   UNL     1       7.830   8.045  17.610  0.00  0.00    +0.000 C 
ENDBRANCH  21  22
ENDBRANCH  20  21
ENDBRANCH   2  20
TORSDOF 8
ENDMDL
