MODEL 1
REMARK VINA RESULT:      -8.3      0.000      0.000
REMARK  Name = 
REMARK  2 active torsions:
REMARK  status: ('A' for Active; 'I' for Inactive)
REMARK    1  A    between atoms: C_14  and  S_15
REMARK    2  A    between atoms: S_15  and  C_16
REMARK                            x       y       z     vdW  Elec       q    Type
REMARK                         _______ _______ _______ _____ _____    ______ ____
ROOT
ATOM      1  O   UNL     1       3.124   7.961  16.695  0.00  0.00    +0.000 OA
ATOM      2  C   UNL     1       2.650   7.797  17.812  0.00  0.00    +0.000 C 
ATOM      3  C   UNL     1       2.035   8.932  18.528  0.00  0.00    +0.000 A 
ATOM      4  C   UNL     1       2.006  10.197  17.929  0.00  0.00    +0.000 A 
ATOM      5  C   UNL     1       1.422  11.276  18.596  0.00  0.00    +0.000 A 
ATOM      6  C   UNL     1       0.867  11.095  19.861  0.00  0.00    +0.000 A 
ATOM      7  C   UNL     1       0.900   9.834  20.461  0.00  0.00    +0.000 A 
ATOM      8  C   UNL     1       1.485   8.749  19.795  0.00  0.00    +0.000 A 
ATOM      9  C   UNL     1       1.513   7.419  20.440  0.00  0.00    +0.000 C 
ATOM     10  O   UNL     1       1.019   7.292  21.551  0.00  0.00    +0.000 OA
ATOM     11  C   UNL     1       2.137   6.290  19.727  0.00  0.00    +0.000 A 
ATOM     12  C   UNL     1       2.695   6.459  18.447  0.00  0.00    +0.000 A 
ATOM     13  C   UNL     1       3.328   5.407  17.728  0.00  0.00    +0.000 A 
ATOM     14  C   UNL     1       3.459   4.097  18.225  0.00  0.00    +0.000 A 
ATOM     15  C   UNL     1       2.912   3.859  19.515  0.00  0.00    +0.000 A 
ATOM     16  N   UNL     1       2.926   2.697  20.194  0.00  0.00    +0.000 NA
ATOM     17  S   UNL     1       2.173   2.968  21.640  0.00  0.00    +0.000 S 
ATOM     18  N   UNL     1       1.786   4.566  21.483  0.00  0.00    +0.000 NA
ATOM     19  C   UNL     1       2.232   4.983  20.286  0.00  0.00    +0.000 A 
ENDROOT
BRANCH  14  20
ATOM     20  S   UNL     1       4.387   2.846  17.390  0.00  0.00    +0.000 S 
BRANCH  20  21
ATOM     21  C   UNL     1       5.473   3.799  16.333  0.00  0.00    +0.000 A 
ATOM     22  C   UNL     1       5.408   3.577  14.949  0.00  0.00    +0.000 A 
ATOM     23  C   UNL     1       6.311   4.207  14.089  0.00  0.00    +0.000 A 
ATOM     24 CL   UNL     1       6.246   3.894  12.398  0.00  0.00    +0.000 Cl
ATOM     25  C   UNL     1       7.283   5.069  14.589  0.00  0.00    +0.000 A 
ATOM     26  C   UNL     1       7.353   5.304  15.962  0.00  0.00    +0.000 A 
ATOM     27  C   UNL     1       6.460   4.669  16.833  0.00  0.00    +0.000 A 
ATOM     28 CL   UNL     1       6.652   4.984  18.522  0.00  0.00    +0.000 Cl
ENDBRANCH  20  21
ENDBRANCH  14  20
TORSDOF 2
ENDMDL
MODEL 2
REMARK VINA RESULT:      -8.3      4.632      7.807
REMARK  Name = 
REMARK  2 active torsions:
REMARK  status: ('A' for Active; 'I' for Inactive)
REMARK    1  A    between atoms: C_14  and  S_15
REMARK    2  A    between atoms: S_15  and  C_16
REMARK                            x       y       z     vdW  Elec       q    Type
REMARK                         _______ _______ _______ _____ _____    ______ ____
ROOT
ATOM      1  O   UNL     1       3.299   8.169  16.636  0.00  0.00    +0.000 OA
ATOM      2  C   UNL     1       3.000   7.623  17.690  0.00  0.00    +0.000 C 
ATOM      3  C   UNL     1       3.468   6.252  17.974  0.00  0.00    +0.000 A 
ATOM      4  C   UNL     1       4.246   5.576  17.027  0.00  0.00    +0.000 A 
ATOM      5  C   UNL     1       4.699   4.280  17.287  0.00  0.00    +0.000 A 
ATOM      6  C   UNL     1       4.375   3.658  18.490  0.00  0.00    +0.000 A 
ATOM      7  C   UNL     1       3.594   4.331  19.433  0.00  0.00    +0.000 A 
ATOM      8  C   UNL     1       3.138   5.631  19.176  0.00  0.00    +0.000 A 
ATOM      9  C   UNL     1       2.312   6.332  20.181  0.00  0.00    +0.000 C 
ATOM     10  O   UNL     1       2.042   5.759  21.227  0.00  0.00    +0.000 OA
ATOM     11  C   UNL     1       1.836   7.697  19.892  0.00  0.00    +0.000 A 
ATOM     12  C   UNL     1       2.163   8.337  18.683  0.00  0.00    +0.000 A 
ATOM     13  C   UNL     1       1.710   9.644  18.348  0.00  0.00    +0.000 A 
ATOM     14  C   UNL     1       0.893  10.422  19.188  0.00  0.00    +0.000 A 
ATOM     15  C   UNL     1       0.529   9.831  20.429  0.00  0.00    +0.000 A 
ATOM     16  N   UNL     1      -0.247  10.377  21.383  0.00  0.00    +0.000 NA
ATOM     17  S   UNL     1      -0.364   9.271  22.607  0.00  0.00    +0.000 S 
ATOM     18  N   UNL     1       0.562   8.048  21.997  0.00  0.00    +0.000 NA
ATOM     19  C   UNL     1       1.013   8.434  20.792  0.00  0.00    +0.000 A 
ENDROOT
BRANCH  14  20
ATOM     20  S   UNL     1       0.210  11.973  18.689  0.00  0.00    +0.000 S 
BRANCH  20  21
ATOM     21  C   UNL     1      -1.471  11.542  18.250  0.00  0.00    +0.000 A 
ATOM     22  C   UNL     1      -1.680  10.841  17.051  0.00  0.00    +0.000 A 
ATOM     23  C   UNL     1      -2.976  10.580  16.602  0.00  0.00    +0.000 A 
ATOM     24 CL   UNL     1      -3.218   9.757  15.110  0.00  0.00    +0.000 Cl
ATOM     25  C   UNL     1      -4.080  11.003  17.337  0.00  0.00    +0.000 A 
ATOM     26  C   UNL     1      -3.886  11.694  18.534  0.00  0.00    +0.000 A 
ATOM     27  C   UNL     1      -2.590  11.970  18.987  0.00  0.00    +0.000 A 
ATOM     28 CL   UNL     1      -2.447  12.870  20.456  0.00  0.00    +0.000 Cl
ENDBRANCH  20  21
ENDBRANCH  14  20
TORSDOF 2
ENDMDL
MODEL 3
REMARK VINA RESULT:      -7.7      0.907      2.070
REMARK  Name = 
REMARK  2 active torsions:
REMARK  status: ('A' for Active; 'I' for Inactive)
REMARK    1  A    between atoms: C_14  and  S_15
REMARK    2  A    between atoms: S_15  and  C_16
REMARK                            x       y       z     vdW  Elec       q    Type
REMARK                         _______ _______ _______ _____ _____    ______ ____
ROOT
ATOM      1  O   UNL     1       2.469   8.655  16.897  0.00  0.00    +0.000 OA
ATOM      2  C   UNL     1       2.142   8.397  18.047  0.00  0.00    +0.000 C 
ATOM      3  C   UNL     1       1.646   9.467  18.934  0.00  0.00    +0.000 A 
ATOM      4  C   UNL     1       1.563  10.781  18.456  0.00  0.00    +0.000 A 
ATOM      5  C   UNL     1       1.092  11.801  19.285  0.00  0.00    +0.000 A 
ATOM      6  C   UNL     1       0.702  11.513  20.591  0.00  0.00    +0.000 A 
ATOM      7  C   UNL     1       0.789  10.204  21.070  0.00  0.00    +0.000 A 
ATOM      8  C   UNL     1       1.262   9.177  20.241  0.00  0.00    +0.000 A 
ATOM      9  C   UNL     1       1.350   7.796  20.759  0.00  0.00    +0.000 C 
ATOM     10  O   UNL     1       1.003   7.574  21.910  0.00  0.00    +0.000 OA
ATOM     11  C   UNL     1       1.855   6.729  19.876  0.00  0.00    +0.000 A 
ATOM     12  C   UNL     1       2.244   7.007  18.553  0.00  0.00    +0.000 A 
ATOM     13  C   UNL     1       2.759   6.018  17.669  0.00  0.00    +0.000 A 
ATOM     14  C   UNL     1       2.930   4.669  18.028  0.00  0.00    +0.000 A 
ATOM     15  C   UNL     1       2.551   4.322  19.354  0.00  0.00    +0.000 A 
ATOM     16  N   UNL     1       2.632   3.104  19.921  0.00  0.00    +0.000 NA
ATOM     17  S   UNL     1       2.078   3.252  21.472  0.00  0.00    +0.000 S 
ATOM     18  N   UNL     1       1.704   4.859  21.506  0.00  0.00    +0.000 NA
ATOM     19  C   UNL     1       1.998   5.377  20.302  0.00  0.00    +0.000 A 
ENDROOT
BRANCH  14  20
ATOM     20  S   UNL     1       3.717   3.490  16.973  0.00  0.00    +0.000 S 
BRANCH  20  21
ATOM     21  C   UNL     1       5.349   4.190  16.749  0.00  0.00    +0.000 A 
ATOM     22  C   UNL     1       6.055   4.596  17.892  0.00  0.00    +0.000 A 
ATOM     23  C   UNL     1       7.282   5.254  17.769  0.00  0.00    +0.000 A 
ATOM     24 CL   UNL     1       8.117   5.783  19.177  0.00  0.00    +0.000 Cl
ATOM     25  C   UNL     1       7.826   5.510  16.513  0.00  0.00    +0.000 A 
ATOM     26  C   UNL     1       7.138   5.104  15.370  0.00  0.00    +0.000 A 
ATOM     27  C   UNL     1       5.903   4.454  15.483  0.00  0.00    +0.000 A 
ATOM     28 CL   UNL     1       5.101   4.031  14.010  0.00  0.00    +0.000 Cl
ENDBRANCH  20  21
ENDBRANCH  14  20
TORSDOF 2
ENDMDL
MODEL 4
REMARK VINA RESULT:      -7.6      8.563     11.191
REMARK  Name = 
REMARK  2 active torsions:
REMARK  status: ('A' for Active; 'I' for Inactive)
REMARK    1  A    between atoms: C_14  and  S_15
REMARK    2  A    between atoms: S_15  and  C_16
REMARK                            x       y       z     vdW  Elec       q    Type
REMARK                         _______ _______ _______ _____ _____    ______ ____
ROOT
ATOM      1  O   UNL     1       7.708  12.454  16.986  0.00  0.00    +0.000 OA
ATOM      2  C   UNL     1       8.182  13.225  17.811  0.00  0.00    +0.000 C 
ATOM      3  C   UNL     1       9.544  13.005  18.333  0.00  0.00    +0.000 A 
ATOM      4  C   UNL     1      10.288  11.905  17.890  0.00  0.00    +0.000 A 
ATOM      5  C   UNL     1      11.580  11.690  18.374  0.00  0.00    +0.000 A 
ATOM      6  C   UNL     1      12.132  12.571  19.301  0.00  0.00    +0.000 A 
ATOM      7  C   UNL     1      11.389  13.665  19.748  0.00  0.00    +0.000 A 
ATOM      8  C   UNL     1      10.092  13.885  19.265  0.00  0.00    +0.000 A 
ATOM      9  C   UNL     1       9.315  15.047  19.745  0.00  0.00    +0.000 C 
ATOM     10  O   UNL     1       9.825  15.801  20.561  0.00  0.00    +0.000 OA
ATOM     11  C   UNL     1       7.950  15.259  19.230  0.00  0.00    +0.000 A 
ATOM     12  C   UNL     1       7.386  14.380  18.289  0.00  0.00    +0.000 A 
ATOM     13  C   UNL     1       6.065  14.529  17.779  0.00  0.00    +0.000 A 
ATOM     14  C   UNL     1       5.196  15.566  18.165  0.00  0.00    +0.000 A 
ATOM     15  C   UNL     1       5.710  16.492  19.114  0.00  0.00    +0.000 A 
ATOM     16  N   UNL     1       5.064  17.551  19.634  0.00  0.00    +0.000 NA
ATOM     17  S   UNL     1       6.103  18.282  20.693  0.00  0.00    +0.000 S 
ATOM     18  N   UNL     1       7.422  17.301  20.546  0.00  0.00    +0.000 NA
ATOM     19  C   UNL     1       7.122  16.336  19.660  0.00  0.00    +0.000 A 
ENDROOT
BRANCH  14  20
ATOM     20  S   UNL     1       3.510  15.644  17.644  0.00  0.00    +0.000 S 
BRANCH  20  21
ATOM     21  C   UNL     1       2.733  14.369  18.632  0.00  0.00    +0.000 A 
ATOM     22  C   UNL     1       2.666  13.072  18.099  0.00  0.00    +0.000 A 
ATOM     23  C   UNL     1       1.969  12.066  18.774  0.00  0.00    +0.000 A 
ATOM     24 CL   UNL     1       1.860  10.491  18.090  0.00  0.00    +0.000 Cl
ATOM     25  C   UNL     1       1.338  12.331  19.986  0.00  0.00    +0.000 A 
ATOM     26  C   UNL     1       1.404  13.614  20.530  0.00  0.00    +0.000 A 
ATOM     27  C   UNL     1       2.090  14.632  19.855  0.00  0.00    +0.000 A 
ATOM     28 CL   UNL     1       2.079  16.201  20.582  0.00  0.00    +0.000 Cl
ENDBRANCH  20  21
ENDBRANCH  14  20
TORSDOF 2
ENDMDL
MODEL 5
REMARK VINA RESULT:      -7.5      2.454      3.270
REMARK  Name = 
REMARK  2 active torsions:
REMARK  status: ('A' for Active; 'I' for Inactive)
REMARK    1  A    between atoms: C_14  and  S_15
REMARK    2  A    between atoms: S_15  and  C_16
REMARK                            x       y       z     vdW  Elec       q    Type
REMARK                         _______ _______ _______ _____ _____    ______ ____
ROOT
ATOM      1  O   UNL     1       2.069  10.953  17.434  0.00  0.00    +0.000 OA
ATOM      2  C   UNL     1       1.620  10.406  18.433  0.00  0.00    +0.000 C 
ATOM      3  C   UNL     1       0.774  11.163  19.376  0.00  0.00    +0.000 A 
ATOM      4  C   UNL     1       0.498  12.513  19.128  0.00  0.00    +0.000 A 
ATOM      5  C   UNL     1      -0.305  13.239  20.011  0.00  0.00    +0.000 A 
ATOM      6  C   UNL     1      -0.832  12.619  21.142  0.00  0.00    +0.000 A 
ATOM      7  C   UNL     1      -0.552  11.274  21.392  0.00  0.00    +0.000 A 
ATOM      8  C   UNL     1       0.253  10.543  20.508  0.00  0.00    +0.000 A 
ATOM      9  C   UNL     1       0.542   9.119  20.784  0.00  0.00    +0.000 C 
ATOM     10  O   UNL     1       0.067   8.604  21.785  0.00  0.00    +0.000 OA
ATOM     11  C   UNL     1       1.396   8.367  19.847  0.00  0.00    +0.000 A 
ATOM     12  C   UNL     1       1.927   8.980  18.698  0.00  0.00    +0.000 A 
ATOM     13  C   UNL     1       2.773   8.304  17.775  0.00  0.00    +0.000 A 
ATOM     14  C   UNL     1       3.162   6.960  17.920  0.00  0.00    +0.000 A 
ATOM     15  C   UNL     1       2.654   6.281  19.062  0.00  0.00    +0.000 A 
ATOM     16  N   UNL     1       2.894   5.004  19.412  0.00  0.00    +0.000 NA
ATOM     17  S   UNL     1       2.078   4.724  20.822  0.00  0.00    +0.000 S 
ATOM     18  N   UNL     1       1.376   6.198  21.061  0.00  0.00    +0.000 NA
ATOM     19  C   UNL     1       1.747   7.001  20.049  0.00  0.00    +0.000 A 
ENDROOT
BRANCH  14  20
ATOM     20  S   UNL     1       4.339   6.184  16.855  0.00  0.00    +0.000 S 
BRANCH  20  21
ATOM     21  C   UNL     1       5.888   6.470  17.704  0.00  0.00    +0.000 A 
ATOM     22  C   UNL     1       6.535   7.698  17.500  0.00  0.00    +0.000 A 
ATOM     23  C   UNL     1       7.801   7.930  18.044  0.00  0.00    +0.000 A 
ATOM     24 CL   UNL     1       8.600   9.426  17.751  0.00  0.00    +0.000 Cl
ATOM     25  C   UNL     1       8.437   6.951  18.802  0.00  0.00    +0.000 A 
ATOM     26  C   UNL     1       7.801   5.728  19.018  0.00  0.00    +0.000 A 
ATOM     27  C   UNL     1       6.537   5.482  18.468  0.00  0.00    +0.000 A 
ATOM     28 CL   UNL     1       5.848   3.922  18.750  0.00  0.00    +0.000 Cl
ENDBRANCH  20  21
ENDBRANCH  14  20
TORSDOF 2
ENDMDL
MODEL 6
REMARK VINA RESULT:      -7.4      5.565      8.798
REMARK  Name = 
REMARK  2 active torsions:
REMARK  status: ('A' for Active; 'I' for Inactive)
REMARK    1  A    between atoms: C_14  and  S_15
REMARK    2  A    between atoms: S_15  and  C_16
REMARK                            x       y       z     vdW  Elec       q    Type
REMARK                         _______ _______ _______ _____ _____    ______ ____
ROOT
ATOM      1  O   UNL     1       2.160   9.725  17.386  0.00  0.00    +0.000 OA
ATOM      2  C   UNL     1       1.772   9.479  18.521  0.00  0.00    +0.000 C 
ATOM      3  C   UNL     1       1.929   8.122  19.079  0.00  0.00    +0.000 A 
ATOM      4  C   UNL     1       2.512   7.115  18.301  0.00  0.00    +0.000 A 
ATOM      5  C   UNL     1       2.670   5.828  18.820  0.00  0.00    +0.000 A 
ATOM      6  C   UNL     1       2.245   5.544  20.116  0.00  0.00    +0.000 A 
ATOM      7  C   UNL     1       1.659   6.547  20.891  0.00  0.00    +0.000 A 
ATOM      8  C   UNL     1       1.499   7.839  20.373  0.00  0.00    +0.000 A 
ATOM      9  C   UNL     1       0.877   8.892  21.204  0.00  0.00    +0.000 C 
ATOM     10  O   UNL     1       0.512   8.611  22.336  0.00  0.00    +0.000 OA
ATOM     11  C   UNL     1       0.711  10.244  20.641  0.00  0.00    +0.000 A 
ATOM     12  C   UNL     1       1.142  10.544  19.337  0.00  0.00    +0.000 A 
ATOM     13  C   UNL     1       0.985  11.827  18.741  0.00  0.00    +0.000 A 
ATOM     14  C   UNL     1       0.384  12.918  19.394  0.00  0.00    +0.000 A 
ATOM     15  C   UNL     1      -0.072  12.680  20.720  0.00  0.00    +0.000 A 
ATOM     16  N   UNL     1      -0.681  13.563  21.532  0.00  0.00    +0.000 NA
ATOM     17  S   UNL     1      -1.012  12.775  22.948  0.00  0.00    +0.000 S 
ATOM     18  N   UNL     1      -0.398  11.280  22.609  0.00  0.00    +0.000 NA
ATOM     19  C   UNL     1       0.097  11.309  21.361  0.00  0.00    +0.000 A 
ENDROOT
BRANCH  14  20
ATOM     20  S   UNL     1       0.053  14.454  18.585  0.00  0.00    +0.000 S 
BRANCH  20  21
ATOM     21  C   UNL     1       1.564  15.375  18.854  0.00  0.00    +0.000 A 
ATOM     22  C   UNL     1       2.735  14.917  18.232  0.00  0.00    +0.000 A 
ATOM     23  C   UNL     1       3.963  15.527  18.499  0.00  0.00    +0.000 A 
ATOM     24 CL   UNL     1       5.397  14.928  17.760  0.00  0.00    +0.000 Cl
ATOM     25  C   UNL     1       4.044  16.602  19.379  0.00  0.00    +0.000 A 
ATOM     26  C   UNL     1       2.886  17.072  19.998  0.00  0.00    +0.000 A 
ATOM     27  C   UNL     1       1.652  16.460  19.746  0.00  0.00    +0.000 A 
ATOM     28 CL   UNL     1       0.279  17.081  20.594  0.00  0.00    +0.000 Cl
ENDBRANCH  20  21
ENDBRANCH  14  20
TORSDOF 2
ENDMDL
MODEL 7
REMARK VINA RESULT:      -7.4      5.361      8.801
REMARK  Name = 
REMARK  2 active torsions:
REMARK  status: ('A' for Active; 'I' for Inactive)
REMARK    1  A    between atoms: C_14  and  S_15
REMARK    2  A    between atoms: S_15  and  C_16
REMARK                            x       y       z     vdW  Elec       q    Type
REMARK                         _______ _______ _______ _____ _____    ______ ____
ROOT
ATOM      1  O   UNL     1       2.274   9.370  17.202  0.00  0.00    +0.000 OA
ATOM      2  C   UNL     1       1.910   9.057  18.328  0.00  0.00    +0.000 C 
ATOM      3  C   UNL     1       2.210   7.711  18.855  0.00  0.00    +0.000 A 
ATOM      4  C   UNL     1       2.901   6.792  18.058  0.00  0.00    +0.000 A 
ATOM      5  C   UNL     1       3.194   5.518  18.548  0.00  0.00    +0.000 A 
ATOM      6  C   UNL     1       2.797   5.159  19.834  0.00  0.00    +0.000 A 
ATOM      7  C   UNL     1       2.102   6.074  20.628  0.00  0.00    +0.000 A 
ATOM      8  C   UNL     1       1.806   7.353  20.139  0.00  0.00    +0.000 A 
ATOM      9  C   UNL     1       1.071   8.313  20.990  0.00  0.00    +0.000 C 
ATOM     10  O   UNL     1       0.733   7.968  22.113  0.00  0.00    +0.000 OA
ATOM     11  C   UNL     1       0.763   9.653  20.457  0.00  0.00    +0.000 A 
ATOM     12  C   UNL     1       1.165  10.028  19.163  0.00  0.00    +0.000 A 
ATOM     13  C   UNL     1       0.873  11.300  18.596  0.00  0.00    +0.000 A 
ATOM     14  C   UNL     1       0.155  12.305  19.270  0.00  0.00    +0.000 A 
ATOM     15  C   UNL     1      -0.278  11.987  20.587  0.00  0.00    +0.000 A 
ATOM     16  N   UNL     1      -0.983  12.780  21.415  0.00  0.00    +0.000 NA
ATOM     17  S   UNL     1      -1.233  11.927  22.810  0.00  0.00    +0.000 S 
ATOM     18  N   UNL     1      -0.461  10.516  22.441  0.00  0.00    +0.000 NA
ATOM     19  C   UNL     1       0.034  10.628  21.197  0.00  0.00    +0.000 A 
ENDROOT
BRANCH  14  20
ATOM     20  S   UNL     1      -0.336  13.815  18.495  0.00  0.00    +0.000 S 
BRANCH  20  21
ATOM     21  C   UNL     1       0.978  14.940  18.957  0.00  0.00    +0.000 A 
ATOM     22  C   UNL     1       2.090  14.413  19.631  0.00  0.00    +0.000 A 
ATOM     23  C   UNL     1       3.089  15.261  20.117  0.00  0.00    +0.000 A 
ATOM     24 CL   UNL     1       4.426  14.606  20.978  0.00  0.00    +0.000 Cl
ATOM     25  C   UNL     1       3.001  16.638  19.933  0.00  0.00    +0.000 A 
ATOM     26  C   UNL     1       1.904  17.173  19.257  0.00  0.00    +0.000 A 
ATOM     27  C   UNL     1       0.892  16.333  18.777  0.00  0.00    +0.000 A 
ATOM     28 CL   UNL     1      -0.451  17.089  17.993  0.00  0.00    +0.000 Cl
ENDBRANCH  20  21
ENDBRANCH  14  20
TORSDOF 2
ENDMDL
MODEL 8
REMARK VINA RESULT:      -7.4      4.206      7.565
REMARK  Name = 
REMARK  2 active torsions:
REMARK  status: ('A' for Active; 'I' for Inactive)
REMARK    1  A    between atoms: C_14  and  S_15
REMARK    2  A    between atoms: S_15  and  C_16
REMARK                            x       y       z     vdW  Elec       q    Type
REMARK                         _______ _______ _______ _____ _____    ______ ____
ROOT
ATOM      1  O   UNL     1       3.384   8.217  16.633  0.00  0.00    +0.000 OA
ATOM      2  C   UNL     1       3.049   7.667  17.674  0.00  0.00    +0.000 C 
ATOM      3  C   UNL     1       3.475   6.281  17.950  0.00  0.00    +0.000 A 
ATOM      4  C   UNL     1       4.255   5.596  17.012  0.00  0.00    +0.000 A 
ATOM      5  C   UNL     1       4.668   4.286  17.265  0.00  0.00    +0.000 A 
ATOM      6  C   UNL     1       4.303   3.658  18.454  0.00  0.00    +0.000 A 
ATOM      7  C   UNL     1       3.520   4.340  19.388  0.00  0.00    +0.000 A 
ATOM      8  C   UNL     1       3.104   5.655  19.138  0.00  0.00    +0.000 A 
ATOM      9  C   UNL     1       2.276   6.366  20.134  0.00  0.00    +0.000 C 
ATOM     10  O   UNL     1       1.970   5.788  21.167  0.00  0.00    +0.000 OA
ATOM     11  C   UNL     1       1.842   7.746  19.852  0.00  0.00    +0.000 A 
ATOM     12  C   UNL     1       2.210   8.392  18.658  0.00  0.00    +0.000 A 
ATOM     13  C   UNL     1       1.799   9.714  18.329  0.00  0.00    +0.000 A 
ATOM     14  C   UNL     1       0.985  10.503  19.162  0.00  0.00    +0.000 A 
ATOM     15  C   UNL     1       0.580   9.908  20.388  0.00  0.00    +0.000 A 
ATOM     16  N   UNL     1      -0.201  10.463  21.332  0.00  0.00    +0.000 NA
ATOM     17  S   UNL     1      -0.372   9.347  22.540  0.00  0.00    +0.000 S 
ATOM     18  N   UNL     1       0.534   8.107  21.934  0.00  0.00    +0.000 NA
ATOM     19  C   UNL     1       1.021   8.495  20.744  0.00  0.00    +0.000 A 
ENDROOT
BRANCH  14  20
ATOM     20  S   UNL     1       0.354  12.078  18.668  0.00  0.00    +0.000 S 
BRANCH  20  21
ATOM     21  C   UNL     1       1.624  13.207  19.230  0.00  0.00    +0.000 A 
ATOM     22  C   UNL     1       2.734  13.418  18.397  0.00  0.00    +0.000 A 
ATOM     23  C   UNL     1       3.808  14.196  18.835  0.00  0.00    +0.000 A 
ATOM     24 CL   UNL     1       5.181  14.412  17.820  0.00  0.00    +0.000 Cl
ATOM     25  C   UNL     1       3.792  14.780  20.099  0.00  0.00    +0.000 A 
ATOM     26  C   UNL     1       2.692  14.584  20.933  0.00  0.00    +0.000 A 
ATOM     27  C   UNL     1       1.615  13.796  20.507  0.00  0.00    +0.000 A 
ATOM     28 CL   UNL     1       0.316  13.572  21.626  0.00  0.00    +0.000 Cl
ENDBRANCH  20  21
ENDBRANCH  14  20
TORSDOF 2
ENDMDL
MODEL 9
REMARK VINA RESULT:      -7.3      5.138      8.767
REMARK  Name = 
REMARK  2 active torsions:
REMARK  status: ('A' for Active; 'I' for Inactive)
REMARK    1  A    between atoms: C_14  and  S_15
REMARK    2  A    between atoms: S_15  and  C_16
REMARK                            x       y       z     vdW  Elec       q    Type
REMARK                         _______ _______ _______ _____ _____    ______ ____
ROOT
ATOM      1  O   UNL     1       2.533   9.012  16.997  0.00  0.00    +0.000 OA
ATOM      2  C   UNL     1       2.278   8.489  18.074  0.00  0.00    +0.000 C 
ATOM      3  C   UNL     1       2.767   7.129  18.370  0.00  0.00    +0.000 A 
ATOM      4  C   UNL     1       3.515   6.436  17.411  0.00  0.00    +0.000 A 
ATOM      5  C   UNL     1       3.988   5.150  17.683  0.00  0.00    +0.000 A 
ATOM      6  C   UNL     1       3.714   4.554  18.912  0.00  0.00    +0.000 A 
ATOM      7  C   UNL     1       2.964   5.242  19.867  0.00  0.00    +0.000 A 
ATOM      8  C   UNL     1       2.488   6.533  19.598  0.00  0.00    +0.000 A 
ATOM      9  C   UNL     1       1.695   7.251  20.617  0.00  0.00    +0.000 C 
ATOM     10  O   UNL     1       1.469   6.701  21.686  0.00  0.00    +0.000 OA
ATOM     11  C   UNL     1       1.197   8.606  20.315  0.00  0.00    +0.000 A 
ATOM     12  C   UNL     1       1.473   9.220  19.081  0.00  0.00    +0.000 A 
ATOM     13  C   UNL     1       0.998  10.516  18.733  0.00  0.00    +0.000 A 
ATOM     14  C   UNL     1       0.206  11.307  19.585  0.00  0.00    +0.000 A 
ATOM     15  C   UNL     1      -0.106  10.742  20.852  0.00  0.00    +0.000 A 
ATOM     16  N   UNL     1      -0.850  11.305  21.822  0.00  0.00    +0.000 NA
ATOM     17  S   UNL     1      -0.912  10.227  23.075  0.00  0.00    +0.000 S 
ATOM     18  N   UNL     1       0.001   8.997  22.458  0.00  0.00    +0.000 NA
ATOM     19  C   UNL     1       0.403   9.358  21.228  0.00  0.00    +0.000 A 
ENDROOT
BRANCH  14  20
ATOM     20  S   UNL     1      -0.507  12.841  19.077  0.00  0.00    +0.000 S 
BRANCH  20  21
ATOM     21  C   UNL     1      -2.260  12.479  19.072  0.00  0.00    +0.000 A 
ATOM     22  C   UNL     1      -3.046  13.010  20.107  0.00  0.00    +0.000 A 
ATOM     23  C   UNL     1      -4.395  12.665  20.218  0.00  0.00    +0.000 A 
ATOM     24 CL   UNL     1      -5.336  13.290  21.516  0.00  0.00    +0.000 Cl
ATOM     25  C   UNL     1      -4.983  11.797  19.302  0.00  0.00    +0.000 A 
ATOM     26  C   UNL     1      -4.215  11.269  18.264  0.00  0.00    +0.000 A 
ATOM     27  C   UNL     1      -2.859  11.600  18.151  0.00  0.00    +0.000 A 
ATOM     28 CL   UNL     1      -1.976  10.861  16.861  0.00  0.00    +0.000 Cl
ENDBRANCH  20  21
ENDBRANCH  14  20
TORSDOF 2
ENDMDL
