MODEL 1
REMARK VINA RESULT:      -8.6      0.000      0.000
REMARK  Name = 
REMARK  11 active torsions:
REMARK  status: ('A' for Active; 'I' for Inactive)
REMARK    1  A    between atoms: C_1  and  C_2
REMARK    2  A    between atoms: C_2  and  C_3
REMARK    3  A    between atoms: C_3  and  C_4
REMARK    4  A    between atoms: C_4  and  C_5
REMARK    5  A    between atoms: C_11  and  C_12
REMARK    6  A    between atoms: C_12  and  C_13
REMARK    7  A    between atoms: N_16  and  C_17
REMARK    8  A    between atoms: C_17  and  C_18
REMARK    9  A    between atoms: C_21  and  C_22
REMARK   10  A    between atoms: C_27  and  C_28
REMARK   11  A    between atoms: C_28  and  O_30
REMARK                            x       y       z     vdW  Elec       q    Type
REMARK                         _______ _______ _______ _____ _____    ______ ____
ROOT
ATOM      1  C   UNL     1       3.552   6.042  19.425  0.00  0.00    +0.000 C 
ENDROOT
BRANCH   1  10
ATOM      2  C   UNL     1       2.835   4.287  17.763  0.00  0.00    +0.000 A 
ATOM      3  N   UNL     1       3.278   3.687  16.685  0.00  0.00    +0.000 NA
ATOM      4  C   UNL     1       4.559   4.097  16.521  0.00  0.00    +0.000 A 
ATOM      5  C   UNL     1       5.459   3.616  15.560  0.00  0.00    +0.000 A 
ATOM      6  C   UNL     1       6.764   4.074  15.564  0.00  0.00    +0.000 A 
ATOM      7  C   UNL     1       7.140   5.044  16.483  0.00  0.00    +0.000 A 
ATOM      8  C   UNL     1       6.240   5.621  17.427  0.00  0.00    +0.000 A 
ATOM      9  C   UNL     1       4.927   5.073  17.456  0.00  0.00    +0.000 A 
ATOM     10  N   UNL     1       3.763   5.217  18.232  0.00  0.00    +0.000 N 
BRANCH   2  11
ATOM     11  C   UNL     1       1.511   3.935  18.377  0.00  0.00    +0.000 C 
BRANCH  11  12
ATOM     12  C   UNL     1       1.666   2.733  19.328  0.00  0.00    +0.000 C 
BRANCH  12  14
ATOM     13  C   UNL     1       2.182   3.472  21.671  0.00  0.00    +0.000 C 
ATOM     14  C   UNL     1       1.092   3.006  20.716  0.00  0.00    +0.000 C 
ENDBRANCH  12  14
ENDBRANCH  11  12
ENDBRANCH   2  11
BRANCH   8  15
ATOM     15  C   UNL     1       6.815   6.758  18.243  0.00  0.00    +0.000 C 
BRANCH  15  16
ATOM     16  C   UNL     1       7.587   7.742  17.355  0.00  0.00    +0.000 C 
ATOM     17 CL   UNL     1       8.452   8.942  18.345  0.00  0.00    +0.000 Cl
ENDBRANCH  15  16
ENDBRANCH   8  15
ENDBRANCH   1  10
BRANCH   1  18
ATOM     18  C   UNL     1       2.580   7.182  19.189  0.00  0.00    +0.000 A 
ATOM     19  C   UNL     1       2.465   7.829  17.953  0.00  0.00    +0.000 A 
ATOM     20  C   UNL     1       1.714   9.011  17.822  0.00  0.00    +0.000 A 
ATOM     21  C   UNL     1       1.111   9.607  18.938  0.00  0.00    +0.000 A 
ATOM     22  C   UNL     1       1.084   8.849  20.119  0.00  0.00    +0.000 A 
ATOM     23  C   UNL     1       1.782   7.647  20.233  0.00  0.00    +0.000 A 
BRANCH  21  24
ATOM     24  C   UNL     1       0.638  11.013  18.966  0.00  0.00    +0.000 A 
ATOM     25  C   UNL     1       1.495  12.006  19.502  0.00  0.00    +0.000 A 
ATOM     26  C   UNL     1       1.207  13.372  19.420  0.00  0.00    +0.000 A 
ATOM     27  C   UNL     1       0.026  13.795  18.831  0.00  0.00    +0.000 A 
ATOM     28  C   UNL     1      -0.865  12.850  18.332  0.00  0.00    +0.000 A 
ATOM     29  C   UNL     1      -0.570  11.470  18.380  0.00  0.00    +0.000 A 
BRANCH  29  30
ATOM     30  C   UNL     1      -1.624  10.616  17.761  0.00  0.00    +0.000 C 
ATOM     31  O   UNL     1      -2.299   9.849  18.434  0.00  0.00    +0.000 OA
BRANCH  30  32
ATOM     32  O   UNL     1      -1.853  10.815  16.453  0.00  0.00    +0.000 OA
ATOM     33  H   UNL     1      -1.922  10.010  15.906  0.00  0.00    +0.000 HD
ENDBRANCH  30  32
ENDBRANCH  29  30
ENDBRANCH  21  24
ENDBRANCH   1  18
TORSDOF 10
ENDMDL
MODEL 2
REMARK VINA RESULT:      -8.4      1.399      2.177
REMARK  Name = 
REMARK  11 active torsions:
REMARK  status: ('A' for Active; 'I' for Inactive)
REMARK    1  A    between atoms: C_1  and  C_2
REMARK    2  A    between atoms: C_2  and  C_3
REMARK    3  A    between atoms: C_3  and  C_4
REMARK    4  A    between atoms: C_4  and  C_5
REMARK    5  A    between atoms: C_11  and  C_12
REMARK    6  A    between atoms: C_12  and  C_13
REMARK    7  A    between atoms: N_16  and  C_17
REMARK    8  A    between atoms: C_17  and  C_18
REMARK    9  A    between atoms: C_21  and  C_22
REMARK   10  A    between atoms: C_27  and  C_28
REMARK   11  A    between atoms: C_28  and  O_30
REMARK                            x       y       z     vdW  Elec       q    Type
REMARK                         _______ _______ _______ _____ _____    ______ ____
ROOT
ATOM      1  C   UNL     1       3.648   5.638  19.353  0.00  0.00    +0.000 C 
ENDROOT
BRANCH   1  10
ATOM      2  C   UNL     1       2.935   4.130  17.462  0.00  0.00    +0.000 A 
ATOM      3  N   UNL     1       3.364   3.715  16.295  0.00  0.00    +0.000 NA
ATOM      4  C   UNL     1       4.626   4.187  16.164  0.00  0.00    +0.000 A 
ATOM      5  C   UNL     1       5.512   3.887  15.119  0.00  0.00    +0.000 A 
ATOM      6  C   UNL     1       6.802   4.382  15.160  0.00  0.00    +0.000 A 
ATOM      7  C   UNL     1       7.176   5.214  16.206  0.00  0.00    +0.000 A 
ATOM      8  C   UNL     1       6.288   5.613  17.249  0.00  0.00    +0.000 A 
ATOM      9  C   UNL     1       4.993   5.023  17.227  0.00  0.00    +0.000 A 
ATOM     10  N   UNL     1       3.849   5.009  18.044  0.00  0.00    +0.000 N 
BRANCH   2  11
ATOM     11  C   UNL     1       1.640   3.646  18.048  0.00  0.00    +0.000 C 
BRANCH  11  12
ATOM     12  C   UNL     1       1.847   2.293  18.755  0.00  0.00    +0.000 C 
BRANCH  12  14
ATOM     13  C   UNL     1       1.112   3.653  20.733  0.00  0.00    +0.000 C 
ATOM     14  C   UNL     1       1.887   2.426  20.275  0.00  0.00    +0.000 C 
ENDBRANCH  12  14
ENDBRANCH  11  12
ENDBRANCH   2  11
BRANCH   8  15
ATOM     15  C   UNL     1       6.853   6.632  18.213  0.00  0.00    +0.000 C 
BRANCH  15  16
ATOM     16  C   UNL     1       7.578   7.759  17.466  0.00  0.00    +0.000 C 
ATOM     17 CL   UNL     1       8.570   8.723  18.586  0.00  0.00    +0.000 Cl
ENDBRANCH  15  16
ENDBRANCH   8  15
ENDBRANCH   1  10
BRANCH   1  18
ATOM     18  C   UNL     1       2.939   6.974  19.263  0.00  0.00    +0.000 A 
ATOM     19  C   UNL     1       2.138   7.473  20.297  0.00  0.00    +0.000 A 
ATOM     20  C   UNL     1       1.329   8.607  20.103  0.00  0.00    +0.000 A 
ATOM     21  C   UNL     1       1.256   9.232  18.850  0.00  0.00    +0.000 A 
ATOM     22  C   UNL     1       2.199   8.833  17.890  0.00  0.00    +0.000 A 
ATOM     23  C   UNL     1       3.043   7.743  18.104  0.00  0.00    +0.000 A 
BRANCH  21  24
ATOM     24  C   UNL     1       0.174  10.169  18.459  0.00  0.00    +0.000 A 
ATOM     25  C   UNL     1      -0.895   9.678  17.669  0.00  0.00    +0.000 A 
ATOM     26  C   UNL     1      -2.036  10.438  17.392  0.00  0.00    +0.000 A 
ATOM     27  C   UNL     1      -2.133  11.737  17.864  0.00  0.00    +0.000 A 
ATOM     28  C   UNL     1      -1.085  12.274  18.606  0.00  0.00    +0.000 A 
ATOM     29  C   UNL     1       0.057  11.506  18.920  0.00  0.00    +0.000 A 
BRANCH  29  30
ATOM     30  C   UNL     1       1.051  12.237  19.756  0.00  0.00    +0.000 C 
ATOM     31  O   UNL     1       1.973  12.862  19.249  0.00  0.00    +0.000 OA
BRANCH  30  32
ATOM     32  O   UNL     1       0.817  12.250  21.078  0.00  0.00    +0.000 OA
ATOM     33  H   UNL     1      -0.067  12.558  21.350  0.00  0.00    +0.000 HD
ENDBRANCH  30  32
ENDBRANCH  29  30
ENDBRANCH  21  24
ENDBRANCH   1  18
TORSDOF 10
ENDMDL
MODEL 3
REMARK VINA RESULT:      -8.1      1.879      2.283
REMARK  Name = 
REMARK  11 active torsions:
REMARK  status: ('A' for Active; 'I' for Inactive)
REMARK    1  A    between atoms: C_1  and  C_2
REMARK    2  A    between atoms: C_2  and  C_3
REMARK    3  A    between atoms: C_3  and  C_4
REMARK    4  A    between atoms: C_4  and  C_5
REMARK    5  A    between atoms: C_11  and  C_12
REMARK    6  A    between atoms: C_12  and  C_13
REMARK    7  A    between atoms: N_16  and  C_17
REMARK    8  A    between atoms: C_17  and  C_18
REMARK    9  A    between atoms: C_21  and  C_22
REMARK   10  A    between atoms: C_27  and  C_28
REMARK   11  A    between atoms: C_28  and  O_30
REMARK                            x       y       z     vdW  Elec       q    Type
REMARK                         _______ _______ _______ _____ _____    ______ ____
ROOT
ATOM      1  C   UNL     1       4.241   5.464  19.426  0.00  0.00    +0.000 C 
ENDROOT
BRANCH   1  10
ATOM      2  C   UNL     1       3.788   3.468  17.953  0.00  0.00    +0.000 A 
ATOM      3  N   UNL     1       4.113   2.999  16.772  0.00  0.00    +0.000 NA
ATOM      4  C   UNL     1       5.068   3.826  16.284  0.00  0.00    +0.000 A 
ATOM      5  C   UNL     1       5.791   3.638  15.098  0.00  0.00    +0.000 A 
ATOM      6  C   UNL     1       6.795   4.529  14.766  0.00  0.00    +0.000 A 
ATOM      7  C   UNL     1       7.027   5.625  15.586  0.00  0.00    +0.000 A 
ATOM      8  C   UNL     1       6.266   5.902  16.760  0.00  0.00    +0.000 A 
ATOM      9  C   UNL     1       5.295   4.926  17.122  0.00  0.00    +0.000 A 
ATOM     10  N   UNL     1       4.409   4.694  18.189  0.00  0.00    +0.000 N 
BRANCH   2  11
ATOM     11  C   UNL     1       2.893   2.707  18.888  0.00  0.00    +0.000 C 
BRANCH  11  12
ATOM     12  C   UNL     1       1.454   3.252  18.811  0.00  0.00    +0.000 C 
BRANCH  12  14
ATOM     13  C   UNL     1       1.702   3.122  21.306  0.00  0.00    +0.000 C 
ATOM     14  C   UNL     1       0.718   3.154  20.144  0.00  0.00    +0.000 C 
ENDBRANCH  12  14
ENDBRANCH  11  12
ENDBRANCH   2  11
BRANCH   8  15
ATOM     15  C   UNL     1       6.588   7.218  17.433  0.00  0.00    +0.000 C 
BRANCH  15  16
ATOM     16  C   UNL     1       7.926   7.146  18.179  0.00  0.00    +0.000 C 
ATOM     17 CL   UNL     1       7.926   5.803  19.346  0.00  0.00    +0.000 Cl
ENDBRANCH  15  16
ENDBRANCH   8  15
ENDBRANCH   1  10
BRANCH   1  18
ATOM     18  C   UNL     1       3.117   6.478  19.340  0.00  0.00    +0.000 A 
ATOM     19  C   UNL     1       2.967   7.345  18.251  0.00  0.00    +0.000 A 
ATOM     20  C   UNL     1       2.049   8.409  18.295  0.00  0.00    +0.000 A 
ATOM     21  C   UNL     1       1.304   8.669  19.454  0.00  0.00    +0.000 A 
ATOM     22  C   UNL     1       1.334   7.686  20.456  0.00  0.00    +0.000 A 
ATOM     23  C   UNL     1       2.204   6.598  20.387  0.00  0.00    +0.000 A 
BRANCH  21  24
ATOM     24  C   UNL     1       0.617   9.957  19.721  0.00  0.00    +0.000 A 
ATOM     25  C   UNL     1       0.305  10.799  18.625  0.00  0.00    +0.000 A 
ATOM     26  C   UNL     1      -0.483  11.947  18.759  0.00  0.00    +0.000 A 
ATOM     27  C   UNL     1      -0.958  12.317  20.006  0.00  0.00    +0.000 A 
ATOM     28  C   UNL     1      -0.638  11.542  21.117  0.00  0.00    +0.000 A 
ATOM     29  C   UNL     1       0.130  10.364  20.990  0.00  0.00    +0.000 A 
BRANCH  29  30
ATOM     30  C   UNL     1       0.335   9.648  22.281  0.00  0.00    +0.000 C 
ATOM     31  O   UNL     1      -0.553   8.971  22.782  0.00  0.00    +0.000 OA
BRANCH  30  32
ATOM     32  O   UNL     1       1.572   9.707  22.800  0.00  0.00    +0.000 OA
ATOM     33  H   UNL     1       1.725  10.413  23.455  0.00  0.00    +0.000 HD
ENDBRANCH  30  32
ENDBRANCH  29  30
ENDBRANCH  21  24
ENDBRANCH   1  18
TORSDOF 10
ENDMDL
MODEL 4
REMARK VINA RESULT:      -8.1      1.811      2.271
REMARK  Name = 
REMARK  11 active torsions:
REMARK  status: ('A' for Active; 'I' for Inactive)
REMARK    1  A    between atoms: C_1  and  C_2
REMARK    2  A    between atoms: C_2  and  C_3
REMARK    3  A    between atoms: C_3  and  C_4
REMARK    4  A    between atoms: C_4  and  C_5
REMARK    5  A    between atoms: C_11  and  C_12
REMARK    6  A    between atoms: C_12  and  C_13
REMARK    7  A    between atoms: N_16  and  C_17
REMARK    8  A    between atoms: C_17  and  C_18
REMARK    9  A    between atoms: C_21  and  C_22
REMARK   10  A    between atoms: C_27  and  C_28
REMARK   11  A    between atoms: C_28  and  O_30
REMARK                            x       y       z     vdW  Elec       q    Type
REMARK                         _______ _______ _______ _____ _____    ______ ____
ROOT
ATOM      1  C   UNL     1       3.819   5.606  19.447  0.00  0.00    +0.000 C 
ENDROOT
BRANCH   1  10
ATOM      2  C   UNL     1       3.013   4.152  17.552  0.00  0.00    +0.000 A 
ATOM      3  N   UNL     1       3.385   3.768  16.354  0.00  0.00    +0.000 NA
ATOM      4  C   UNL     1       4.642   4.241  16.177  0.00  0.00    +0.000 A 
ATOM      5  C   UNL     1       5.477   3.967  15.085  0.00  0.00    +0.000 A 
ATOM      6  C   UNL     1       6.770   4.458  15.079  0.00  0.00    +0.000 A 
ATOM      7  C   UNL     1       7.195   5.260  16.129  0.00  0.00    +0.000 A 
ATOM      8  C   UNL     1       6.359   5.632  17.222  0.00  0.00    +0.000 A 
ATOM      9  C   UNL     1       5.061   5.046  17.244  0.00  0.00    +0.000 A 
ATOM     10  N   UNL     1       3.956   5.013  18.113  0.00  0.00    +0.000 N 
BRANCH   2  11
ATOM     11  C   UNL     1       1.745   3.656  18.184  0.00  0.00    +0.000 C 
BRANCH  11  12
ATOM     12  C   UNL     1       2.069   2.728  19.370  0.00  0.00    +0.000 C 
BRANCH  12  14
ATOM     13  C   UNL     1       2.051   3.035  21.862  0.00  0.00    +0.000 C 
ATOM     14  C   UNL     1       1.207   3.021  20.595  0.00  0.00    +0.000 C 
ENDBRANCH  12  14
ENDBRANCH  11  12
ENDBRANCH   2  11
BRANCH   8  15
ATOM     15  C   UNL     1       6.971   6.624  18.186  0.00  0.00    +0.000 C 
BRANCH  15  16
ATOM     16  C   UNL     1       7.602   7.806  17.439  0.00  0.00    +0.000 C 
ATOM     17 CL   UNL     1       8.545   8.825  18.551  0.00  0.00    +0.000 Cl
ENDBRANCH  15  16
ENDBRANCH   8  15
ENDBRANCH   1  10
BRANCH   1  18
ATOM     18  C   UNL     1       2.737   6.666  19.512  0.00  0.00    +0.000 A 
ATOM     19  C   UNL     1       2.572   7.636  18.517  0.00  0.00    +0.000 A 
ATOM     20  C   UNL     1       1.703   8.726  18.705  0.00  0.00    +0.000 A 
ATOM     21  C   UNL     1       1.025   8.903  19.919  0.00  0.00    +0.000 A 
ATOM     22  C   UNL     1       1.061   7.830  20.823  0.00  0.00    +0.000 A 
ATOM     23  C   UNL     1       1.879   6.721  20.610  0.00  0.00    +0.000 A 
BRANCH  21  24
ATOM     24  C   UNL     1       0.407  10.185  20.338  0.00  0.00    +0.000 A 
ATOM     25  C   UNL     1       0.191  11.186  19.359  0.00  0.00    +0.000 A 
ATOM     26  C   UNL     1      -0.532  12.354  19.623  0.00  0.00    +0.000 A 
ATOM     27  C   UNL     1      -1.034  12.583  20.894  0.00  0.00    +0.000 A 
ATOM     28  C   UNL     1      -0.807  11.646  21.897  0.00  0.00    +0.000 A 
ATOM     29  C   UNL     1      -0.107  10.448  21.634  0.00  0.00    +0.000 A 
BRANCH  29  30
ATOM     30  C   UNL     1       0.001   9.552  22.820  0.00  0.00    +0.000 C 
ATOM     31  O   UNL     1       0.953   9.621  23.586  0.00  0.00    +0.000 OA
BRANCH  30  32
ATOM     32  O   UNL     1      -1.047   8.746  23.050  0.00  0.00    +0.000 OA
ATOM     33  H   UNL     1      -0.833   7.848  23.366  0.00  0.00    +0.000 HD
ENDBRANCH  30  32
ENDBRANCH  29  30
ENDBRANCH  21  24
ENDBRANCH   1  18
TORSDOF 10
ENDMDL
MODEL 5
REMARK VINA RESULT:      -7.9      1.673      2.059
REMARK  Name = 
REMARK  11 active torsions:
REMARK  status: ('A' for Active; 'I' for Inactive)
REMARK    1  A    between atoms: C_1  and  C_2
REMARK    2  A    between atoms: C_2  and  C_3
REMARK    3  A    between atoms: C_3  and  C_4
REMARK    4  A    between atoms: C_4  and  C_5
REMARK    5  A    between atoms: C_11  and  C_12
REMARK    6  A    between atoms: C_12  and  C_13
REMARK    7  A    between atoms: N_16  and  C_17
REMARK    8  A    between atoms: C_17  and  C_18
REMARK    9  A    between atoms: C_21  and  C_22
REMARK   10  A    between atoms: C_27  and  C_28
REMARK   11  A    between atoms: C_28  and  O_30
REMARK                            x       y       z     vdW  Elec       q    Type
REMARK                         _______ _______ _______ _____ _____    ______ ____
ROOT
ATOM      1  C   UNL     1       3.762   6.563  19.227  0.00  0.00    +0.000 C 
ENDROOT
BRANCH   1  10
ATOM      2  C   UNL     1       2.971   4.536  17.951  0.00  0.00    +0.000 A 
ATOM      3  N   UNL     1       3.302   3.819  16.904  0.00  0.00    +0.000 NA
ATOM      4  C   UNL     1       4.498   4.293  16.482  0.00  0.00    +0.000 A 
ATOM      5  C   UNL     1       5.285   3.743  15.459  0.00  0.00    +0.000 A 
ATOM      6  C   UNL     1       6.527   4.289  15.191  0.00  0.00    +0.000 A 
ATOM      7  C   UNL     1       6.943   5.407  15.900  0.00  0.00    +0.000 A 
ATOM      8  C   UNL     1       6.146   6.050  16.893  0.00  0.00    +0.000 A 
ATOM      9  C   UNL     1       4.910   5.419  17.207  0.00  0.00    +0.000 A 
ATOM     10  N   UNL     1       3.868   5.589  18.135  0.00  0.00    +0.000 N 
BRANCH   2  11
ATOM     11  C   UNL     1       1.794   4.183  18.813  0.00  0.00    +0.000 C 
BRANCH  11  12
ATOM     12  C   UNL     1       1.891   2.717  19.274  0.00  0.00    +0.000 C 
BRANCH  12  14
ATOM     13  C   UNL     1       2.156   3.573  21.619  0.00  0.00    +0.000 C 
ATOM     14  C   UNL     1       1.484   2.533  20.734  0.00  0.00    +0.000 C 
ENDBRANCH  12  14
ENDBRANCH  11  12
ENDBRANCH   2  11
BRANCH   8  15
ATOM     15  C   UNL     1       6.728   7.332  17.446  0.00  0.00    +0.000 C 
BRANCH  15  16
ATOM     16  C   UNL     1       7.989   7.057  18.273  0.00  0.00    +0.000 C 
ATOM     17 CL   UNL     1       7.700   5.757  19.453  0.00  0.00    +0.000 Cl
ENDBRANCH  15  16
ENDBRANCH   8  15
ENDBRANCH   1  10
BRANCH   1  18
ATOM     18  C   UNL     1       2.591   7.511  19.059  0.00  0.00    +0.000 A 
ATOM     19  C   UNL     1       2.282   8.117  17.836  0.00  0.00    +0.000 A 
ATOM     20  C   UNL     1       1.328   9.146  17.759  0.00  0.00    +0.000 A 
ATOM     21  C   UNL     1       0.704   9.636  18.914  0.00  0.00    +0.000 A 
ATOM     22  C   UNL     1       0.889   8.896  20.092  0.00  0.00    +0.000 A 
ATOM     23  C   UNL     1       1.794   7.837  20.156  0.00  0.00    +0.000 A 
BRANCH  21  24
ATOM     24  C   UNL     1      -0.007  10.938  18.978  0.00  0.00    +0.000 A 
ATOM     25  C   UNL     1      -1.418  10.934  19.107  0.00  0.00    +0.000 A 
ATOM     26  C   UNL     1      -2.155  12.099  19.340  0.00  0.00    +0.000 A 
ATOM     27  C   UNL     1      -1.508  13.323  19.416  0.00  0.00    +0.000 A 
ATOM     28  C   UNL     1      -0.128  13.376  19.250  0.00  0.00    +0.000 A 
ATOM     29  C   UNL     1       0.631  12.204  19.047  0.00  0.00    +0.000 A 
BRANCH  29  30
ATOM     30  C   UNL     1       2.095  12.456  18.933  0.00  0.00    +0.000 C 
ATOM     31  O   UNL     1       2.707  12.207  17.903  0.00  0.00    +0.000 OA
BRANCH  30  32
ATOM     32  O   UNL     1       2.675  13.063  19.981  0.00  0.00    +0.000 OA
ATOM     33  H   UNL     1       3.464  12.621  20.345  0.00  0.00    +0.000 HD
ENDBRANCH  30  32
ENDBRANCH  29  30
ENDBRANCH  21  24
ENDBRANCH   1  18
TORSDOF 10
ENDMDL
MODEL 6
REMARK VINA RESULT:      -7.9      1.521      1.928
REMARK  Name = 
REMARK  11 active torsions:
REMARK  status: ('A' for Active; 'I' for Inactive)
REMARK    1  A    between atoms: C_1  and  C_2
REMARK    2  A    between atoms: C_2  and  C_3
REMARK    3  A    between atoms: C_3  and  C_4
REMARK    4  A    between atoms: C_4  and  C_5
REMARK    5  A    between atoms: C_11  and  C_12
REMARK    6  A    between atoms: C_12  and  C_13
REMARK    7  A    between atoms: N_16  and  C_17
REMARK    8  A    between atoms: C_17  and  C_18
REMARK    9  A    between atoms: C_21  and  C_22
REMARK   10  A    between atoms: C_27  and  C_28
REMARK   11  A    between atoms: C_28  and  O_30
REMARK                            x       y       z     vdW  Elec       q    Type
REMARK                         _______ _______ _______ _____ _____    ______ ____
ROOT
ATOM      1  C   UNL     1       4.214   5.393  19.493  0.00  0.00    +0.000 C 
ENDROOT
BRANCH   1  10
ATOM      2  C   UNL     1       3.667   3.518  17.899  0.00  0.00    +0.000 A 
ATOM      3  N   UNL     1       3.903   3.153  16.662  0.00  0.00    +0.000 NA
ATOM      4  C   UNL     1       4.808   4.034  16.172  0.00  0.00    +0.000 A 
ATOM      5  C   UNL     1       5.437   3.956  14.921  0.00  0.00    +0.000 A 
ATOM      6  C   UNL     1       6.403   4.888  14.589  0.00  0.00    +0.000 A 
ATOM      7  C   UNL     1       6.688   5.916  15.476  0.00  0.00    +0.000 A 
ATOM      8  C   UNL     1       6.019   6.084  16.724  0.00  0.00    +0.000 A 
ATOM      9  C   UNL     1       5.090   5.065  17.078  0.00  0.00    +0.000 A 
ATOM     10  N   UNL     1       4.292   4.731  18.187  0.00  0.00    +0.000 N 
BRANCH   2  11
ATOM     11  C   UNL     1       2.857   2.668  18.834  0.00  0.00    +0.000 C 
BRANCH  11  12
ATOM     12  C   UNL     1       1.365   3.040  18.735  0.00  0.00    +0.000 C 
BRANCH  12  14
ATOM     13  C   UNL     1       1.545   2.644  21.208  0.00  0.00    +0.000 C 
ATOM     14  C   UNL     1       0.599   2.735  20.020  0.00  0.00    +0.000 C 
ENDBRANCH  12  14
ENDBRANCH  11  12
ENDBRANCH   2  11
BRANCH   8  15
ATOM     15  C   UNL     1       6.380   7.345  17.478  0.00  0.00    +0.000 C 
BRANCH  15  16
ATOM     16  C   UNL     1       7.855   7.337  17.897  0.00  0.00    +0.000 C 
ATOM     17 CL   UNL     1       8.434   8.991  18.202  0.00  0.00    +0.000 Cl
ENDBRANCH  15  16
ENDBRANCH   8  15
ENDBRANCH   1  10
BRANCH   1  18
ATOM     18  C   UNL     1       3.013   6.311  19.617  0.00  0.00    +0.000 A 
ATOM     19  C   UNL     1       2.860   7.460  18.833  0.00  0.00    +0.000 A 
ATOM     20  C   UNL     1       1.851   8.399  19.115  0.00  0.00    +0.000 A 
ATOM     21  C   UNL     1       1.010   8.239  20.225  0.00  0.00    +0.000 A 
ATOM     22  C   UNL     1       1.060   6.999  20.880  0.00  0.00    +0.000 A 
ATOM     23  C   UNL     1       2.025   6.043  20.563  0.00  0.00    +0.000 A 
BRANCH  21  24
ATOM     24  C   UNL     1       0.196   9.335  20.806  0.00  0.00    +0.000 A 
ATOM     25  C   UNL     1       0.045   9.395  22.213  0.00  0.00    +0.000 A 
ATOM     26  C   UNL     1      -0.561  10.478  22.859  0.00  0.00    +0.000 A 
ATOM     27  C   UNL     1      -1.075  11.527  22.115  0.00  0.00    +0.000 A 
ATOM     28  C   UNL     1      -0.988  11.486  20.727  0.00  0.00    +0.000 A 
ATOM     29  C   UNL     1      -0.350  10.415  20.065  0.00  0.00    +0.000 A 
BRANCH  29  30
ATOM     30  C   UNL     1      -0.319  10.568  18.583  0.00  0.00    +0.000 C 
ATOM     31  O   UNL     1      -1.108   9.970  17.864  0.00  0.00    +0.000 OA
BRANCH  30  32
ATOM     32  O   UNL     1       0.551  11.469  18.098  0.00  0.00    +0.000 OA
ATOM     33  H   UNL     1       1.493  11.225  18.156  0.00  0.00    +0.000 HD
ENDBRANCH  30  32
ENDBRANCH  29  30
ENDBRANCH  21  24
ENDBRANCH   1  18
TORSDOF 10
ENDMDL
MODEL 7
REMARK VINA RESULT:      -7.8      1.579      2.322
REMARK  Name = 
REMARK  11 active torsions:
REMARK  status: ('A' for Active; 'I' for Inactive)
REMARK    1  A    between atoms: C_1  and  C_2
REMARK    2  A    between atoms: C_2  and  C_3
REMARK    3  A    between atoms: C_3  and  C_4
REMARK    4  A    between atoms: C_4  and  C_5
REMARK    5  A    between atoms: C_11  and  C_12
REMARK    6  A    between atoms: C_12  and  C_13
REMARK    7  A    between atoms: N_16  and  C_17
REMARK    8  A    between atoms: C_17  and  C_18
REMARK    9  A    between atoms: C_21  and  C_22
REMARK   10  A    between atoms: C_27  and  C_28
REMARK   11  A    between atoms: C_28  and  O_30
REMARK                            x       y       z     vdW  Elec       q    Type
REMARK                         _______ _______ _______ _____ _____    ______ ____
ROOT
ATOM      1  C   UNL     1       3.527   5.896  19.343  0.00  0.00    +0.000 C 
ENDROOT
BRANCH   1  10
ATOM      2  C   UNL     1       2.854   4.158  17.645  0.00  0.00    +0.000 A 
ATOM      3  N   UNL     1       3.248   3.681  16.489  0.00  0.00    +0.000 NA
ATOM      4  C   UNL     1       4.444   4.260  16.226  0.00  0.00    +0.000 A 
ATOM      5  C   UNL     1       5.287   3.952  15.149  0.00  0.00    +0.000 A 
ATOM      6  C   UNL     1       6.519   4.572  15.054  0.00  0.00    +0.000 A 
ATOM      7  C   UNL     1       6.871   5.529  15.995  0.00  0.00    +0.000 A 
ATOM      8  C   UNL     1       6.016   5.934  17.062  0.00  0.00    +0.000 A 
ATOM      9  C   UNL     1       4.789   5.222  17.184  0.00  0.00    +0.000 A 
ATOM     10  N   UNL     1       3.708   5.172  18.081  0.00  0.00    +0.000 N 
BRANCH   2  11
ATOM     11  C   UNL     1       1.657   3.607  18.363  0.00  0.00    +0.000 C 
BRANCH  11  12
ATOM     12  C   UNL     1       2.095   2.566  19.411  0.00  0.00    +0.000 C 
BRANCH  12  14
ATOM     13  C   UNL     1       4.474   2.183  20.117  0.00  0.00    +0.000 C 
ATOM     14  C   UNL     1       3.420   1.898  19.055  0.00  0.00    +0.000 C 
ENDBRANCH  12  14
ENDBRANCH  11  12
ENDBRANCH   2  11
BRANCH   8  15
ATOM     15  C   UNL     1       6.533   7.088  17.891  0.00  0.00    +0.000 C 
BRANCH  15  16
ATOM     16  C   UNL     1       7.945   6.805  18.416  0.00  0.00    +0.000 C 
ATOM     17 CL   UNL     1       7.906   5.578  19.705  0.00  0.00    +0.000 Cl
ENDBRANCH  15  16
ENDBRANCH   8  15
ENDBRANCH   1  10
BRANCH   1  18
ATOM     18  C   UNL     1       2.756   7.191  19.175  0.00  0.00    +0.000 A 
ATOM     19  C   UNL     1       1.970   7.737  20.197  0.00  0.00    +0.000 A 
ATOM     20  C   UNL     1       1.105   8.817  19.945  0.00  0.00    +0.000 A 
ATOM     21  C   UNL     1       0.961   9.336  18.651  0.00  0.00    +0.000 A 
ATOM     22  C   UNL     1       1.887   8.900  17.690  0.00  0.00    +0.000 A 
ATOM     23  C   UNL     1       2.786   7.867  17.956  0.00  0.00    +0.000 A 
BRANCH  21  24
ATOM     24  C   UNL     1      -0.175  10.192  18.229  0.00  0.00    +0.000 A 
ATOM     25  C   UNL     1      -1.341   9.569  17.719  0.00  0.00    +0.000 A 
ATOM     26  C   UNL     1      -2.517  10.277  17.453  0.00  0.00    +0.000 A 
ATOM     27  C   UNL     1      -2.558  11.648  17.651  0.00  0.00    +0.000 A 
ATOM     28  C   UNL     1      -1.421  12.306  18.108  0.00  0.00    +0.000 A 
ATOM     29  C   UNL     1      -0.238  11.598  18.411  0.00  0.00    +0.000 A 
BRANCH  29  30
ATOM     30  C   UNL     1       0.858  12.467  18.926  0.00  0.00    +0.000 C 
ATOM     31  O   UNL     1       0.982  12.696  20.121  0.00  0.00    +0.000 OA
BRANCH  30  32
ATOM     32  O   UNL     1       1.752  12.892  18.018  0.00  0.00    +0.000 OA
ATOM     33  H   UNL     1       2.157  13.762  18.195  0.00  0.00    +0.000 HD
ENDBRANCH  30  32
ENDBRANCH  29  30
ENDBRANCH  21  24
ENDBRANCH   1  18
TORSDOF 10
ENDMDL
MODEL 8
REMARK VINA RESULT:      -7.7      1.605      2.484
REMARK  Name = 
REMARK  11 active torsions:
REMARK  status: ('A' for Active; 'I' for Inactive)
REMARK    1  A    between atoms: C_1  and  C_2
REMARK    2  A    between atoms: C_2  and  C_3
REMARK    3  A    between atoms: C_3  and  C_4
REMARK    4  A    between atoms: C_4  and  C_5
REMARK    5  A    between atoms: C_11  and  C_12
REMARK    6  A    between atoms: C_12  and  C_13
REMARK    7  A    between atoms: N_16  and  C_17
REMARK    8  A    between atoms: C_17  and  C_18
REMARK    9  A    between atoms: C_21  and  C_22
REMARK   10  A    between atoms: C_27  and  C_28
REMARK   11  A    between atoms: C_28  and  O_30
REMARK                            x       y       z     vdW  Elec       q    Type
REMARK                         _______ _______ _______ _____ _____    ______ ____
ROOT
ATOM      1  C   UNL     1       3.072   6.697  19.864  0.00  0.00    +0.000 C 
ENDROOT
BRANCH   1  10
ATOM      2  C   UNL     1       2.052   4.586  18.936  0.00  0.00    +0.000 A 
ATOM      3  N   UNL     1       2.200   3.760  17.928  0.00  0.00    +0.000 NA
ATOM      4  C   UNL     1       3.325   4.148  17.281  0.00  0.00    +0.000 A 
ATOM      5  C   UNL     1       3.930   3.475  16.210  0.00  0.00    +0.000 A 
ATOM      6  C   UNL     1       5.125   3.950  15.699  0.00  0.00    +0.000 A 
ATOM      7  C   UNL     1       5.669   5.116  16.219  0.00  0.00    +0.000 A 
ATOM      8  C   UNL     1       5.050   5.879  17.253  0.00  0.00    +0.000 A 
ATOM      9  C   UNL     1       3.866   5.324  17.816  0.00  0.00    +0.000 A 
ATOM     10  N   UNL     1       2.987   5.620  18.872  0.00  0.00    +0.000 N 
BRANCH   2  11
ATOM     11  C   UNL     1       1.019   4.359  20.001  0.00  0.00    +0.000 C 
BRANCH  11  12
ATOM     12  C   UNL     1       1.168   2.947  20.597  0.00  0.00    +0.000 C 
BRANCH  12  14
ATOM     13  C   UNL     1       3.567   2.317  20.987  0.00  0.00    +0.000 C 
ATOM     14  C   UNL     1       2.295   2.859  21.623  0.00  0.00    +0.000 C 
ENDBRANCH  12  14
ENDBRANCH  11  12
ENDBRANCH   2  11
BRANCH   8  15
ATOM     15  C   UNL     1       5.735   7.188  17.577  0.00  0.00    +0.000 C 
BRANCH  15  16
ATOM     16  C   UNL     1       7.261   7.047  17.505  0.00  0.00    +0.000 C 
ATOM     17 CL   UNL     1       8.054   8.611  17.808  0.00  0.00    +0.000 Cl
ENDBRANCH  15  16
ENDBRANCH   8  15
ENDBRANCH   1  10
BRANCH   1  18
ATOM     18  C   UNL     1       2.159   7.865  19.545  0.00  0.00    +0.000 A 
ATOM     19  C   UNL     1       1.305   8.435  20.497  0.00  0.00    +0.000 A 
ATOM     20  C   UNL     1       0.325   9.370  20.121  0.00  0.00    +0.000 A 
ATOM     21  C   UNL     1       0.135   9.711  18.775  0.00  0.00    +0.000 A 
ATOM     22  C   UNL     1       1.114   9.274  17.870  0.00  0.00    +0.000 A 
ATOM     23  C   UNL     1       2.122   8.390  18.254  0.00  0.00    +0.000 A 
BRANCH  21  24
ATOM     24  C   UNL     1      -1.088  10.374  18.258  0.00  0.00    +0.000 A 
ATOM     25  C   UNL     1      -1.745   9.807  17.139  0.00  0.00    +0.000 A 
ATOM     26  C   UNL     1      -2.988  10.262  16.686  0.00  0.00    +0.000 A 
ATOM     27  C   UNL     1      -3.604  11.332  17.315  0.00  0.00    +0.000 A 
ATOM     28  C   UNL     1      -2.971  11.947  18.391  0.00  0.00    +0.000 A 
ATOM     29  C   UNL     1      -1.732  11.476  18.878  0.00  0.00    +0.000 A 
BRANCH  29  30
ATOM     30  C   UNL     1      -1.232  12.235  20.059  0.00  0.00    +0.000 C 
ATOM     31  O   UNL     1      -0.436  13.155  19.935  0.00  0.00    +0.000 OA
BRANCH  30  32
ATOM     32  O   UNL     1      -1.781  11.917  21.243  0.00  0.00    +0.000 OA
ATOM     33  H   UNL     1      -1.322  11.224  21.752  0.00  0.00    +0.000 HD
ENDBRANCH  30  32
ENDBRANCH  29  30
ENDBRANCH  21  24
ENDBRANCH   1  18
TORSDOF 10
ENDMDL
MODEL 9
REMARK VINA RESULT:      -7.6      1.845      4.113
REMARK  Name = 
REMARK  11 active torsions:
REMARK  status: ('A' for Active; 'I' for Inactive)
REMARK    1  A    between atoms: C_1  and  C_2
REMARK    2  A    between atoms: C_2  and  C_3
REMARK    3  A    between atoms: C_3  and  C_4
REMARK    4  A    between atoms: C_4  and  C_5
REMARK    5  A    between atoms: C_11  and  C_12
REMARK    6  A    between atoms: C_12  and  C_13
REMARK    7  A    between atoms: N_16  and  C_17
REMARK    8  A    between atoms: C_17  and  C_18
REMARK    9  A    between atoms: C_21  and  C_22
REMARK   10  A    between atoms: C_27  and  C_28
REMARK   11  A    between atoms: C_28  and  O_30
REMARK                            x       y       z     vdW  Elec       q    Type
REMARK                         _______ _______ _______ _____ _____    ______ ____
ROOT
ATOM      1  C   UNL     1       3.878   6.365  19.465  0.00  0.00    +0.000 C 
ENDROOT
BRANCH   1  10
ATOM      2  C   UNL     1       4.607   5.098  17.411  0.00  0.00    +0.000 A 
ATOM      3  N   UNL     1       4.368   3.965  16.794  0.00  0.00    +0.000 NA
ATOM      4  C   UNL     1       3.328   3.390  17.445  0.00  0.00    +0.000 A 
ATOM      5  C   UNL     1       2.660   2.220  17.055  0.00  0.00    +0.000 A 
ATOM      6  C   UNL     1       1.560   1.795  17.777  0.00  0.00    +0.000 A 
ATOM      7  C   UNL     1       1.176   2.503  18.908  0.00  0.00    +0.000 A 
ATOM      8  C   UNL     1       1.871   3.651  19.389  0.00  0.00    +0.000 A 
ATOM      9  C   UNL     1       2.948   4.115  18.582  0.00  0.00    +0.000 A 
ATOM     10  N   UNL     1       3.833   5.207  18.566  0.00  0.00    +0.000 N 
BRANCH   2  11
ATOM     11  C   UNL     1       5.569   6.111  16.861  0.00  0.00    +0.000 C 
BRANCH  11  12
ATOM     12  C   UNL     1       7.014   5.730  17.232  0.00  0.00    +0.000 C 
BRANCH  12  14
ATOM     13  C   UNL     1       7.825   8.070  17.644  0.00  0.00    +0.000 C 
ATOM     14  C   UNL     1       7.631   6.686  18.249  0.00  0.00    +0.000 C 
ENDBRANCH  12  14
ENDBRANCH  11  12
ENDBRANCH   2  11
BRANCH   8  15
ATOM     15  C   UNL     1       1.373   4.190  20.712  0.00  0.00    +0.000 C 
BRANCH  15  16
ATOM     16  C   UNL     1       1.576   3.169  21.838  0.00  0.00    +0.000 C 
ATOM     17 CL   UNL     1       3.110   2.292  21.629  0.00  0.00    +0.000 Cl
ENDBRANCH  15  16
ENDBRANCH   8  15
ENDBRANCH   1  10
BRANCH   1  18
ATOM     18  C   UNL     1       2.775   7.368  19.189  0.00  0.00    +0.000 A 
ATOM     19  C   UNL     1       2.601   7.971  17.938  0.00  0.00    +0.000 A 
ATOM     20  C   UNL     1       1.709   9.046  17.771  0.00  0.00    +0.000 A 
ATOM     21  C   UNL     1       1.016   9.582  18.865  0.00  0.00    +0.000 A 
ATOM     22  C   UNL     1       1.064   8.850  20.061  0.00  0.00    +0.000 A 
ATOM     23  C   UNL     1       1.905   7.748  20.211  0.00  0.00    +0.000 A 
BRANCH  21  24
ATOM     24  C   UNL     1       0.369  10.918  18.856  0.00  0.00    +0.000 A 
ATOM     25  C   UNL     1       1.092  12.025  19.362  0.00  0.00    +0.000 A 
ATOM     26  C   UNL     1       0.633  13.341  19.244  0.00  0.00    +0.000 A 
ATOM     27  C   UNL     1      -0.591  13.595  18.646  0.00  0.00    +0.000 A 
ATOM     28  C   UNL     1      -1.354  12.531  18.175  0.00  0.00    +0.000 A 
ATOM     29  C   UNL     1      -0.887  11.202  18.259  0.00  0.00    +0.000 A 
BRANCH  29  30
ATOM     30  C   UNL     1      -1.823  10.205  17.666  0.00  0.00    +0.000 C 
ATOM     31  O   UNL     1      -2.709   9.687  18.333  0.00  0.00    +0.000 OA
BRANCH  30  32
ATOM     32  O   UNL     1      -1.701   9.991  16.346  0.00  0.00    +0.000 OA
ATOM     33  H   UNL     1      -0.796   9.816  16.026  0.00  0.00    +0.000 HD
ENDBRANCH  30  32
ENDBRANCH  29  30
ENDBRANCH  21  24
ENDBRANCH   1  18
TORSDOF 10
ENDMDL
