MODEL 1
REMARK VINA RESULT:      -7.7      0.000      0.000
REMARK  Name = 
REMARK  10 active torsions:
REMARK  status: ('A' for Active; 'I' for Inactive)
REMARK    1  A    between atoms: C_1  and  O_2
REMARK    2  A    between atoms: O_2  and  C_3
REMARK    3  A    between atoms: C_7  and  C_8
REMARK    4  A    between atoms: N_9  and  C_10
REMARK    5  A    between atoms: C_15  and  N_16
REMARK    6  A    between atoms: N_16  and  C_17
REMARK    7  A    between atoms: C_25  and  O_26
REMARK    8  A    between atoms: O_26  and  C_27
REMARK    9  A    between atoms: C_28  and  O_29
REMARK   10  A    between atoms: O_29  and  C_30
REMARK                            x       y       z     vdW  Elec       q    Type
REMARK                         _______ _______ _______ _____ _____    ______ ____
ROOT
ATOM      1  C   UNL     1       3.144   7.615  17.462  0.00  0.00    +0.000 C 
ATOM      2  N   UNL     1       4.191   6.956  17.867  0.00  0.00    +0.000 NA
ENDROOT
BRANCH   1   7
ATOM      3  C   UNL     1      -0.412  12.062  19.360  0.00  0.00    +0.000 A 
ATOM      4  C   UNL     1       0.612  11.624  18.506  0.00  0.00    +0.000 A 
ATOM      5  C   UNL     1       1.206  10.368  18.698  0.00  0.00    +0.000 A 
ATOM      6  N   UNL     1       2.110   9.764  17.840  0.00  0.00    +0.000 NA
ATOM      7  C   UNL     1       2.397   8.554  18.275  0.00  0.00    +0.000 A 
ATOM      8  S   UNL     1       1.745   8.136  19.792  0.00  0.00    +0.000 S 
ATOM      9  C   UNL     1       0.841   9.619  19.815  0.00  0.00    +0.000 A 
ATOM     10  C   UNL     1      -0.120  10.060  20.759  0.00  0.00    +0.000 A 
ATOM     11  C   UNL     1      -0.767  11.298  20.497  0.00  0.00    +0.000 A 
BRANCH   3  13
ATOM     12  C   UNL     1      -0.343  14.445  19.299  0.00  0.00    +0.000 C 
ATOM     13  O   UNL     1      -1.079  13.235  19.121  0.00  0.00    +0.000 OA
ENDBRANCH   3  13
BRANCH  10  14
ATOM     14  O   UNL     1      -0.336   9.197  21.800  0.00  0.00    +0.000 OA
ATOM     15  C   UNL     1       0.266   9.425  23.058  0.00  0.00    +0.000 C 
ENDBRANCH  10  14
BRANCH  11  16
ATOM     16  O   UNL     1      -1.817  11.608  21.331  0.00  0.00    +0.000 OA
ATOM     17  C   UNL     1      -1.617  12.474  22.436  0.00  0.00    +0.000 C 
ENDBRANCH  11  16
ENDBRANCH   1   7
BRANCH   2  18
ATOM     18  C   UNL     1       4.719   5.970  16.990  0.00  0.00    +0.000 A 
ATOM     19  C   UNL     1       5.133   6.309  15.693  0.00  0.00    +0.000 A 
ATOM     20  C   UNL     1       5.639   5.348  14.826  0.00  0.00    +0.000 A 
ATOM     21  C   UNL     1       5.686   4.043  15.273  0.00  0.00    +0.000 A 
ATOM     22  N   UNL     1       5.286   3.664  16.497  0.00  0.00    +0.000 NA
ATOM     23  C   UNL     1       4.789   4.605  17.346  0.00  0.00    +0.000 A 
BRANCH  23  24
ATOM     24  N   UNL     1       4.413   4.203  18.645  0.00  0.00    +0.000 N 
ATOM     25  H   UNL     1       5.169   4.240  19.315  0.00  0.00    +0.000 HD
BRANCH  24  26
ATOM     26  C   UNL     1       3.139   3.837  19.104  0.00  0.00    +0.000 A 
ATOM     27  C   UNL     1       2.721   4.159  20.402  0.00  0.00    +0.000 A 
ATOM     28  C   UNL     1       1.439   3.842  20.855  0.00  0.00    +0.000 A 
ATOM     29  C   UNL     1       0.564   3.150  20.026  0.00  0.00    +0.000 A 
ATOM     30  C   UNL     1       0.984   2.754  18.758  0.00  0.00    +0.000 A 
ATOM     31  C   UNL     1       2.266   3.093  18.301  0.00  0.00    +0.000 A 
ENDBRANCH  24  26
ENDBRANCH  23  24
ENDBRANCH   2  18
TORSDOF 7
ENDMDL
MODEL 2
REMARK VINA RESULT:      -7.6      3.488      8.547
REMARK  Name = 
REMARK  10 active torsions:
REMARK  status: ('A' for Active; 'I' for Inactive)
REMARK    1  A    between atoms: C_1  and  O_2
REMARK    2  A    between atoms: O_2  and  C_3
REMARK    3  A    between atoms: C_7  and  C_8
REMARK    4  A    between atoms: N_9  and  C_10
REMARK    5  A    between atoms: C_15  and  N_16
REMARK    6  A    between atoms: N_16  and  C_17
REMARK    7  A    between atoms: C_25  and  O_26
REMARK    8  A    between atoms: O_26  and  C_27
REMARK    9  A    between atoms: C_28  and  O_29
REMARK   10  A    between atoms: O_29  and  C_30
REMARK                            x       y       z     vdW  Elec       q    Type
REMARK                         _______ _______ _______ _____ _____    ______ ____
ROOT
ATOM      1  C   UNL     1       1.667   9.880  18.398  0.00  0.00    +0.000 C 
ATOM      2  N   UNL     1       1.169  10.524  19.414  0.00  0.00    +0.000 NA
ENDROOT
BRANCH   1   7
ATOM      3  C   UNL     1       4.938   4.883  17.801  0.00  0.00    +0.000 A 
ATOM      4  C   UNL     1       4.401   6.043  17.223  0.00  0.00    +0.000 A 
ATOM      5  C   UNL     1       3.447   6.805  17.914  0.00  0.00    +0.000 A 
ATOM      6  N   UNL     1       2.960   8.040  17.520  0.00  0.00    +0.000 NA
ATOM      7  C   UNL     1       2.149   8.514  18.443  0.00  0.00    +0.000 A 
ATOM      8  S   UNL     1       1.797   7.461  19.736  0.00  0.00    +0.000 S 
ATOM      9  C   UNL     1       2.963   6.325  19.130  0.00  0.00    +0.000 A 
ATOM     10  C   UNL     1       3.405   5.110  19.711  0.00  0.00    +0.000 A 
ATOM     11  C   UNL     1       4.431   4.400  19.031  0.00  0.00    +0.000 A 
BRANCH   3  13
ATOM     12  C   UNL     1       7.276   4.683  17.379  0.00  0.00    +0.000 C 
ATOM     13  O   UNL     1       5.950   4.190  17.189  0.00  0.00    +0.000 OA
ENDBRANCH   3  13
BRANCH  10  14
ATOM     14  O   UNL     1       2.804   4.793  20.900  0.00  0.00    +0.000 OA
ATOM     15  C   UNL     1       1.657   3.968  20.927  0.00  0.00    +0.000 C 
ENDBRANCH  10  14
BRANCH  11  16
ATOM     16  O   UNL     1       4.962   3.326  19.709  0.00  0.00    +0.000 OA
ATOM     17  C   UNL     1       4.389   2.038  19.561  0.00  0.00    +0.000 C 
ENDBRANCH  11  16
ENDBRANCH   1   7
BRANCH   2  18
ATOM     18  C   UNL     1       0.876  11.902  19.232  0.00  0.00    +0.000 A 
ATOM     19  C   UNL     1       1.898  12.862  19.240  0.00  0.00    +0.000 A 
ATOM     20  C   UNL     1       1.617  14.213  19.075  0.00  0.00    +0.000 A 
ATOM     21  C   UNL     1       0.294  14.580  18.939  0.00  0.00    +0.000 A 
ATOM     22  N   UNL     1      -0.723  13.703  18.943  0.00  0.00    +0.000 NA
ATOM     23  C   UNL     1      -0.448  12.380  19.106  0.00  0.00    +0.000 A 
BRANCH  23  24
ATOM     24  N   UNL     1      -1.520  11.464  19.065  0.00  0.00    +0.000 N 
ATOM     25  H   UNL     1      -1.738  11.055  19.963  0.00  0.00    +0.000 HD
BRANCH  24  26
ATOM     26  C   UNL     1      -2.328  11.123  17.970  0.00  0.00    +0.000 A 
ATOM     27  C   UNL     1      -1.863  10.257  16.971  0.00  0.00    +0.000 A 
ATOM     28  C   UNL     1      -2.673   9.874  15.902  0.00  0.00    +0.000 A 
ATOM     29  C   UNL     1      -3.957  10.393  15.787  0.00  0.00    +0.000 A 
ATOM     30  C   UNL     1      -4.416  11.314  16.727  0.00  0.00    +0.000 A 
ATOM     31  C   UNL     1      -3.604  11.679  17.812  0.00  0.00    +0.000 A 
ENDBRANCH  24  26
ENDBRANCH  23  24
ENDBRANCH   2  18
TORSDOF 7
ENDMDL
MODEL 3
REMARK VINA RESULT:      -7.5      1.445      2.534
REMARK  Name = 
REMARK  10 active torsions:
REMARK  status: ('A' for Active; 'I' for Inactive)
REMARK    1  A    between atoms: C_1  and  O_2
REMARK    2  A    between atoms: O_2  and  C_3
REMARK    3  A    between atoms: C_7  and  C_8
REMARK    4  A    between atoms: N_9  and  C_10
REMARK    5  A    between atoms: C_15  and  N_16
REMARK    6  A    between atoms: N_16  and  C_17
REMARK    7  A    between atoms: C_25  and  O_26
REMARK    8  A    between atoms: O_26  and  C_27
REMARK    9  A    between atoms: C_28  and  O_29
REMARK   10  A    between atoms: O_29  and  C_30
REMARK                            x       y       z     vdW  Elec       q    Type
REMARK                         _______ _______ _______ _____ _____    ______ ____
ROOT
ATOM      1  C   UNL     1       3.013   7.324  18.783  0.00  0.00    +0.000 C 
ATOM      2  N   UNL     1       3.150   6.873  17.570  0.00  0.00    +0.000 NA
ENDROOT
BRANCH   1   7
ATOM      3  C   UNL     1      -0.454  11.064  21.948  0.00  0.00    +0.000 A 
ATOM      4  C   UNL     1       0.255   9.855  21.875  0.00  0.00    +0.000 A 
ATOM      5  C   UNL     1       0.767   9.406  20.649  0.00  0.00    +0.000 A 
ATOM      6  N   UNL     1       1.606   8.318  20.475  0.00  0.00    +0.000 NA
ATOM      7  C   UNL     1       1.969   8.233  19.211  0.00  0.00    +0.000 A 
ATOM      8  S   UNL     1       1.214   9.327  18.146  0.00  0.00    +0.000 S 
ATOM      9  C   UNL     1       0.461  10.123  19.494  0.00  0.00    +0.000 A 
ATOM     10  C   UNL     1      -0.330  11.299  19.503  0.00  0.00    +0.000 A 
ATOM     11  C   UNL     1      -0.767  11.778  20.768  0.00  0.00    +0.000 A 
BRANCH   3  13
ATOM     12  C   UNL     1      -2.269  11.575  23.408  0.00  0.00    +0.000 C 
ATOM     13  O   UNL     1      -0.864  11.572  23.153  0.00  0.00    +0.000 OA
ENDBRANCH   3  13
BRANCH  10  14
ATOM     14  O   UNL     1      -0.538  11.858  18.270  0.00  0.00    +0.000 OA
ATOM     15  C   UNL     1      -1.783  11.710  17.616  0.00  0.00    +0.000 C 
ENDBRANCH  10  14
BRANCH  11  16
ATOM     16  O   UNL     1      -1.376  13.013  20.758  0.00  0.00    +0.000 OA
ATOM     17  C   UNL     1      -0.595  14.193  20.839  0.00  0.00    +0.000 C 
ENDBRANCH  11  16
ENDBRANCH   1   7
BRANCH   2  18
ATOM     18  C   UNL     1       4.311   6.103  17.288  0.00  0.00    +0.000 A 
ATOM     19  C   UNL     1       5.539   6.726  17.022  0.00  0.00    +0.000 A 
ATOM     20  C   UNL     1       6.676   5.980  16.733  0.00  0.00    +0.000 A 
ATOM     21  C   UNL     1       6.546   4.607  16.683  0.00  0.00    +0.000 A 
ATOM     22  N   UNL     1       5.389   3.964  16.911  0.00  0.00    +0.000 NA
ATOM     23  C   UNL     1       4.276   4.694  17.193  0.00  0.00    +0.000 A 
BRANCH  23  24
ATOM     24  N   UNL     1       3.077   4.006  17.475  0.00  0.00    +0.000 N 
ATOM     25  H   UNL     1       2.562   3.734  16.649  0.00  0.00    +0.000 HD
BRANCH  24  26
ATOM     26  C   UNL     1       2.576   3.613  18.725  0.00  0.00    +0.000 A 
ATOM     27  C   UNL     1       3.418   3.052  19.695  0.00  0.00    +0.000 A 
ATOM     28  C   UNL     1       2.941   2.701  20.959  0.00  0.00    +0.000 A 
ATOM     29  C   UNL     1       1.593   2.861  21.259  0.00  0.00    +0.000 A 
ATOM     30  C   UNL     1       0.723   3.347  20.285  0.00  0.00    +0.000 A 
ATOM     31  C   UNL     1       1.212   3.718  19.023  0.00  0.00    +0.000 A 
ENDBRANCH  24  26
ENDBRANCH  23  24
ENDBRANCH   2  18
TORSDOF 7
ENDMDL
MODEL 4
REMARK VINA RESULT:      -7.5      1.975      4.102
REMARK  Name = 
REMARK  10 active torsions:
REMARK  status: ('A' for Active; 'I' for Inactive)
REMARK    1  A    between atoms: C_1  and  O_2
REMARK    2  A    between atoms: O_2  and  C_3
REMARK    3  A    between atoms: C_7  and  C_8
REMARK    4  A    between atoms: N_9  and  C_10
REMARK    5  A    between atoms: C_15  and  N_16
REMARK    6  A    between atoms: N_16  and  C_17
REMARK    7  A    between atoms: C_25  and  O_26
REMARK    8  A    between atoms: O_26  and  C_27
REMARK    9  A    between atoms: C_28  and  O_29
REMARK   10  A    between atoms: O_29  and  C_30
REMARK                            x       y       z     vdW  Elec       q    Type
REMARK                         _______ _______ _______ _____ _____    ______ ____
ROOT
ATOM      1  C   UNL     1       1.480   7.140  20.734  0.00  0.00    +0.000 C 
ATOM      2  N   UNL     1       2.258   6.581  19.853  0.00  0.00    +0.000 NA
ENDROOT
BRANCH   1   7
ATOM      3  C   UNL     1       0.157  12.872  19.543  0.00  0.00    +0.000 A 
ATOM      4  C   UNL     1       0.848  11.702  19.195  0.00  0.00    +0.000 A 
ATOM      5  C   UNL     1       0.907  10.621  20.087  0.00  0.00    +0.000 A 
ATOM      6  N   UNL     1       1.423   9.367  19.803  0.00  0.00    +0.000 NA
ATOM      7  C   UNL     1       1.237   8.566  20.832  0.00  0.00    +0.000 A 
ATOM      8  S   UNL     1       0.597   9.292  22.234  0.00  0.00    +0.000 S 
ATOM      9  C   UNL     1       0.365  10.776  21.361  0.00  0.00    +0.000 A 
ATOM     10  C   UNL     1      -0.262  11.972  21.793  0.00  0.00    +0.000 A 
ATOM     11  C   UNL     1      -0.381  13.022  20.843  0.00  0.00    +0.000 A 
BRANCH   3  13
ATOM     12  C   UNL     1       0.979  14.927  18.655  0.00  0.00    +0.000 C 
ATOM     13  O   UNL     1      -0.005  13.893  18.643  0.00  0.00    +0.000 OA
ENDBRANCH   3  13
BRANCH  10  14
ATOM     14  O   UNL     1      -0.720  11.943  23.084  0.00  0.00    +0.000 OA
ATOM     15  C   UNL     1      -2.084  11.691  23.355  0.00  0.00    +0.000 C 
ENDBRANCH  10  14
BRANCH  11  16
ATOM     16  O   UNL     1      -1.149  14.095  21.236  0.00  0.00    +0.000 OA
ATOM     17  C   UNL     1      -0.576  15.138  22.005  0.00  0.00    +0.000 C 
ENDBRANCH  11  16
ENDBRANCH   1   7
BRANCH   2  18
ATOM     18  C   UNL     1       2.496   5.187  19.986  0.00  0.00    +0.000 A 
ATOM     19  C   UNL     1       1.835   4.435  20.969  0.00  0.00    +0.000 A 
ATOM     20  C   UNL     1       2.073   3.073  21.114  0.00  0.00    +0.000 A 
ATOM     21  C   UNL     1       3.008   2.494  20.280  0.00  0.00    +0.000 A 
ATOM     22  N   UNL     1       3.681   3.172  19.337  0.00  0.00    +0.000 NA
ATOM     23  C   UNL     1       3.450   4.506  19.196  0.00  0.00    +0.000 A 
BRANCH  23  24
ATOM     24  N   UNL     1       4.130   5.199  18.173  0.00  0.00    +0.000 N 
ATOM     25  H   UNL     1       3.577   5.333  17.337  0.00  0.00    +0.000 HD
BRANCH  24  26
ATOM     26  C   UNL     1       5.415   5.760  18.212  0.00  0.00    +0.000 A 
ATOM     27  C   UNL     1       5.809   6.726  17.277  0.00  0.00    +0.000 A 
ATOM     28  C   UNL     1       7.067   7.327  17.333  0.00  0.00    +0.000 A 
ATOM     29  C   UNL     1       7.978   6.932  18.306  0.00  0.00    +0.000 A 
ATOM     30  C   UNL     1       7.636   5.920  19.201  0.00  0.00    +0.000 A 
ATOM     31  C   UNL     1       6.362   5.335  19.152  0.00  0.00    +0.000 A 
ENDBRANCH  24  26
ENDBRANCH  23  24
ENDBRANCH   2  18
TORSDOF 7
ENDMDL
MODEL 5
REMARK VINA RESULT:      -7.5      1.697      3.530
REMARK  Name = 
REMARK  10 active torsions:
REMARK  status: ('A' for Active; 'I' for Inactive)
REMARK    1  A    between atoms: C_1  and  O_2
REMARK    2  A    between atoms: O_2  and  C_3
REMARK    3  A    between atoms: C_7  and  C_8
REMARK    4  A    between atoms: N_9  and  C_10
REMARK    5  A    between atoms: C_15  and  N_16
REMARK    6  A    between atoms: N_16  and  C_17
REMARK    7  A    between atoms: C_25  and  O_26
REMARK    8  A    between atoms: O_26  and  C_27
REMARK    9  A    between atoms: C_28  and  O_29
REMARK   10  A    between atoms: O_29  and  C_30
REMARK                            x       y       z     vdW  Elec       q    Type
REMARK                         _______ _______ _______ _____ _____    ______ ____
ROOT
ATOM      1  C   UNL     1       2.208   6.570  19.109  0.00  0.00    +0.000 C 
ATOM      2  N   UNL     1       2.697   5.642  19.879  0.00  0.00    +0.000 NA
ENDROOT
BRANCH   1   7
ATOM      3  C   UNL     1       0.241  12.233  19.403  0.00  0.00    +0.000 A 
ATOM      4  C   UNL     1       0.920  11.233  18.690  0.00  0.00    +0.000 A 
ATOM      5  C   UNL     1       1.254  10.022  19.313  0.00  0.00    +0.000 A 
ATOM      6  N   UNL     1       1.782   8.908  18.681  0.00  0.00    +0.000 NA
ATOM      7  C   UNL     1       1.891   7.917  19.542  0.00  0.00    +0.000 A 
ATOM      8  S   UNL     1       1.531   8.297  21.162  0.00  0.00    +0.000 S 
ATOM      9  C   UNL     1       1.002   9.879  20.676  0.00  0.00    +0.000 A 
ATOM     10  C   UNL     1       0.405  10.897  21.461  0.00  0.00    +0.000 A 
ATOM     11  C   UNL     1       0.000  12.082  20.789  0.00  0.00    +0.000 A 
BRANCH   3  13
ATOM     12  C   UNL     1       0.689  14.499  18.808  0.00  0.00    +0.000 C 
ATOM     13  O   UNL     1      -0.191  13.376  18.781  0.00  0.00    +0.000 OA
ENDBRANCH   3  13
BRANCH  10  14
ATOM     14  O   UNL     1       0.251  10.581  22.785  0.00  0.00    +0.000 OA
ATOM     15  C   UNL     1      -0.876   9.849  23.222  0.00  0.00    +0.000 C 
ENDBRANCH  10  14
BRANCH  11  16
ATOM     16  O   UNL     1      -0.736  12.970  21.540  0.00  0.00    +0.000 OA
ATOM     17  C   UNL     1      -2.149  12.865  21.584  0.00  0.00    +0.000 C 
ENDBRANCH  11  16
ENDBRANCH   1   7
BRANCH   2  18
ATOM     18  C   UNL     1       2.817   4.337  19.330  0.00  0.00    +0.000 A 
ATOM     19  C   UNL     1       1.683   3.629  18.905  0.00  0.00    +0.000 A 
ATOM     20  C   UNL     1       1.790   2.347  18.379  0.00  0.00    +0.000 A 
ATOM     21  C   UNL     1       3.048   1.781  18.323  0.00  0.00    +0.000 A 
ATOM     22  N   UNL     1       4.162   2.408  18.734  0.00  0.00    +0.000 NA
ATOM     23  C   UNL     1       4.057   3.663  19.250  0.00  0.00    +0.000 A 
BRANCH  23  24
ATOM     24  N   UNL     1       5.238   4.329  19.637  0.00  0.00    +0.000 N 
ATOM     25  H   UNL     1       5.586   4.044  20.542  0.00  0.00    +0.000 HD
BRANCH  24  26
ATOM     26  C   UNL     1       5.991   5.257  18.902  0.00  0.00    +0.000 A 
ATOM     27  C   UNL     1       7.229   5.714  19.371  0.00  0.00    +0.000 A 
ATOM     28  C   UNL     1       8.011   6.600  18.627  0.00  0.00    +0.000 A 
ATOM     29  C   UNL     1       7.539   7.085  17.413  0.00  0.00    +0.000 A 
ATOM     30  C   UNL     1       6.278   6.701  16.960  0.00  0.00    +0.000 A 
ATOM     31  C   UNL     1       5.507   5.794  17.702  0.00  0.00    +0.000 A 
ENDBRANCH  24  26
ENDBRANCH  23  24
ENDBRANCH   2  18
TORSDOF 7
ENDMDL
MODEL 6
REMARK VINA RESULT:      -7.4      1.141      2.635
REMARK  Name = 
REMARK  10 active torsions:
REMARK  status: ('A' for Active; 'I' for Inactive)
REMARK    1  A    between atoms: C_1  and  O_2
REMARK    2  A    between atoms: O_2  and  C_3
REMARK    3  A    between atoms: C_7  and  C_8
REMARK    4  A    between atoms: N_9  and  C_10
REMARK    5  A    between atoms: C_15  and  N_16
REMARK    6  A    between atoms: N_16  and  C_17
REMARK    7  A    between atoms: C_25  and  O_26
REMARK    8  A    between atoms: O_26  and  C_27
REMARK    9  A    between atoms: C_28  and  O_29
REMARK   10  A    between atoms: O_29  and  C_30
REMARK                            x       y       z     vdW  Elec       q    Type
REMARK                         _______ _______ _______ _____ _____    ______ ____
ROOT
ATOM      1  C   UNL     1       3.026   7.385  17.503  0.00  0.00    +0.000 C 
ATOM      2  N   UNL     1       4.162   6.896  17.909  0.00  0.00    +0.000 NA
ENDROOT
BRANCH   1   7
ATOM      3  C   UNL     1       0.279  10.280  21.986  0.00  0.00    +0.000 A 
ATOM      4  C   UNL     1       0.713   9.068  21.426  0.00  0.00    +0.000 A 
ATOM      5  C   UNL     1       1.183   9.026  20.105  0.00  0.00    +0.000 A 
ATOM      6  N   UNL     1       1.776   7.934  19.494  0.00  0.00    +0.000 NA
ATOM      7  C   UNL     1       2.180   8.265  18.285  0.00  0.00    +0.000 A 
ATOM      8  S   UNL     1       1.739   9.822  17.754  0.00  0.00    +0.000 S 
ATOM      9  C   UNL     1       1.103  10.182  19.330  0.00  0.00    +0.000 A 
ATOM     10  C   UNL     1       0.585  11.406  19.822  0.00  0.00    +0.000 A 
ATOM     11  C   UNL     1       0.193  11.444  21.187  0.00  0.00    +0.000 A 
BRANCH   3  13
ATOM     12  C   UNL     1       0.320   9.280  24.151  0.00  0.00    +0.000 C 
ATOM     13  O   UNL     1      -0.077  10.361  23.307  0.00  0.00    +0.000 OA
ENDBRANCH   3  13
BRANCH  10  14
ATOM     14  O   UNL     1       0.572  12.428  18.909  0.00  0.00    +0.000 OA
ATOM     15  C   UNL     1      -0.623  12.773  18.237  0.00  0.00    +0.000 C 
ENDBRANCH  10  14
BRANCH  11  16
ATOM     16  O   UNL     1      -0.133  12.688  21.678  0.00  0.00    +0.000 OA
ATOM     17  C   UNL     1      -1.492  13.075  21.790  0.00  0.00    +0.000 C 
ENDBRANCH  11  16
ENDBRANCH   1   7
BRANCH   2  18
ATOM     18  C   UNL     1       4.795   5.938  17.072  0.00  0.00    +0.000 A 
ATOM     19  C   UNL     1       5.249   6.289  15.793  0.00  0.00    +0.000 A 
ATOM     20  C   UNL     1       5.859   5.354  14.964  0.00  0.00    +0.000 A 
ATOM     21  C   UNL     1       5.967   4.059  15.431  0.00  0.00    +0.000 A 
ATOM     22  N   UNL     1       5.532   3.668  16.639  0.00  0.00    +0.000 NA
ATOM     23  C   UNL     1       4.935   4.583  17.450  0.00  0.00    +0.000 A 
BRANCH  23  24
ATOM     24  N   UNL     1       4.521   4.171  18.734  0.00  0.00    +0.000 N 
ATOM     25  H   UNL     1       5.267   4.164  19.417  0.00  0.00    +0.000 HD
BRANCH  24  26
ATOM     26  C   UNL     1       3.226   3.850  19.166  0.00  0.00    +0.000 A 
ATOM     27  C   UNL     1       2.450   2.906  18.480  0.00  0.00    +0.000 A 
ATOM     28  C   UNL     1       1.179   2.542  18.927  0.00  0.00    +0.000 A 
ATOM     29  C   UNL     1       0.638   3.158  20.050  0.00  0.00    +0.000 A 
ATOM     30  C   UNL     1       1.361   4.153  20.706  0.00  0.00    +0.000 A 
ATOM     31  C   UNL     1       2.647   4.499  20.264  0.00  0.00    +0.000 A 
ENDBRANCH  24  26
ENDBRANCH  23  24
ENDBRANCH   2  18
TORSDOF 7
ENDMDL
MODEL 7
REMARK VINA RESULT:      -7.4      1.437      2.548
REMARK  Name = 
REMARK  10 active torsions:
REMARK  status: ('A' for Active; 'I' for Inactive)
REMARK    1  A    between atoms: C_1  and  O_2
REMARK    2  A    between atoms: O_2  and  C_3
REMARK    3  A    between atoms: C_7  and  C_8
REMARK    4  A    between atoms: N_9  and  C_10
REMARK    5  A    between atoms: C_15  and  N_16
REMARK    6  A    between atoms: N_16  and  C_17
REMARK    7  A    between atoms: C_25  and  O_26
REMARK    8  A    between atoms: O_26  and  C_27
REMARK    9  A    between atoms: C_28  and  O_29
REMARK   10  A    between atoms: O_29  and  C_30
REMARK                            x       y       z     vdW  Elec       q    Type
REMARK                         _______ _______ _______ _____ _____    ______ ____
ROOT
ATOM      1  C   UNL     1       2.876   7.830  17.644  0.00  0.00    +0.000 C 
ATOM      2  N   UNL     1       4.055   7.437  18.030  0.00  0.00    +0.000 NA
ENDROOT
BRANCH   1   7
ATOM      3  C   UNL     1       0.047  11.075  21.827  0.00  0.00    +0.000 A 
ATOM      4  C   UNL     1       0.384   9.815  21.308  0.00  0.00    +0.000 A 
ATOM      5  C   UNL     1       0.984   9.706  20.045  0.00  0.00    +0.000 A 
ATOM      6  N   UNL     1       1.498   8.544  19.494  0.00  0.00    +0.000 NA
ATOM      7  C   UNL     1       2.067   8.813  18.337  0.00  0.00    +0.000 A 
ATOM      8  S   UNL     1       1.882  10.409  17.772  0.00  0.00    +0.000 S 
ATOM      9  C   UNL     1       1.131  10.856  19.273  0.00  0.00    +0.000 A 
ATOM     10  C   UNL     1       0.720  12.139  19.714  0.00  0.00    +0.000 A 
ATOM     11  C   UNL     1       0.192  12.235  21.030  0.00  0.00    +0.000 A 
BRANCH   3  13
ATOM     12  C   UNL     1      -1.855  11.242  23.256  0.00  0.00    +0.000 C 
ATOM     13  O   UNL     1      -0.436  11.210  23.102  0.00  0.00    +0.000 OA
ENDBRANCH   3  13
BRANCH  10  14
ATOM     14  O   UNL     1       0.931  13.148  18.812  0.00  0.00    +0.000 OA
ATOM     15  C   UNL     1       2.100  13.940  18.881  0.00  0.00    +0.000 C 
ENDBRANCH  10  14
BRANCH  11  16
ATOM     16  O   UNL     1      -0.028  13.514  21.490  0.00  0.00    +0.000 OA
ATOM     17  C   UNL     1      -1.253  14.170  21.213  0.00  0.00    +0.000 C 
ENDBRANCH  11  16
ENDBRANCH   1   7
BRANCH   2  18
ATOM     18  C   UNL     1       4.650   6.363  17.315  0.00  0.00    +0.000 A 
ATOM     19  C   UNL     1       5.006   6.507  15.966  0.00  0.00    +0.000 A 
ATOM     20  C   UNL     1       5.577   5.456  15.256  0.00  0.00    +0.000 A 
ATOM     21  C   UNL     1       5.748   4.256  15.916  0.00  0.00    +0.000 A 
ATOM     22  N   UNL     1       5.406   4.061  17.200  0.00  0.00    +0.000 NA
ATOM     23  C   UNL     1       4.846   5.089  17.894  0.00  0.00    +0.000 A 
BRANCH  23  24
ATOM     24  N   UNL     1       4.533   4.886  19.254  0.00  0.00    +0.000 N 
ATOM     25  H   UNL     1       5.218   5.270  19.890  0.00  0.00    +0.000 HD
BRANCH  24  26
ATOM     26  C   UNL     1       3.384   4.293  19.800  0.00  0.00    +0.000 A 
ATOM     27  C   UNL     1       3.375   2.940  20.165  0.00  0.00    +0.000 A 
ATOM     28  C   UNL     1       2.255   2.350  20.753  0.00  0.00    +0.000 A 
ATOM     29  C   UNL     1       1.099   3.099  20.942  0.00  0.00    +0.000 A 
ATOM     30  C   UNL     1       1.060   4.426  20.519  0.00  0.00    +0.000 A 
ATOM     31  C   UNL     1       2.196   5.019  19.948  0.00  0.00    +0.000 A 
ENDBRANCH  24  26
ENDBRANCH  23  24
ENDBRANCH   2  18
TORSDOF 7
ENDMDL
MODEL 8
REMARK VINA RESULT:      -7.4      1.775      3.989
REMARK  Name = 
REMARK  10 active torsions:
REMARK  status: ('A' for Active; 'I' for Inactive)
REMARK    1  A    between atoms: C_1  and  O_2
REMARK    2  A    between atoms: O_2  and  C_3
REMARK    3  A    between atoms: C_7  and  C_8
REMARK    4  A    between atoms: N_9  and  C_10
REMARK    5  A    between atoms: C_15  and  N_16
REMARK    6  A    between atoms: N_16  and  C_17
REMARK    7  A    between atoms: C_25  and  O_26
REMARK    8  A    between atoms: O_26  and  C_27
REMARK    9  A    between atoms: C_28  and  O_29
REMARK   10  A    between atoms: O_29  and  C_30
REMARK                            x       y       z     vdW  Elec       q    Type
REMARK                         _______ _______ _______ _____ _____    ______ ____
ROOT
ATOM      1  C   UNL     1       1.310   7.154  20.903  0.00  0.00    +0.000 C 
ATOM      2  N   UNL     1       1.978   6.544  19.968  0.00  0.00    +0.000 NA
ENDROOT
BRANCH   1   7
ATOM      3  C   UNL     1       0.304  12.928  19.612  0.00  0.00    +0.000 A 
ATOM      4  C   UNL     1       0.964  11.727  19.310  0.00  0.00    +0.000 A 
ATOM      5  C   UNL     1       0.924  10.651  20.208  0.00  0.00    +0.000 A 
ATOM      6  N   UNL     1       1.401   9.375  19.960  0.00  0.00    +0.000 NA
ATOM      7  C   UNL     1       1.123   8.589  20.980  0.00  0.00    +0.000 A 
ATOM      8  S   UNL     1       0.436   9.351  22.340  0.00  0.00    +0.000 S 
ATOM      9  C   UNL     1       0.318  10.838  21.449  0.00  0.00    +0.000 A 
ATOM     10  C   UNL     1      -0.280  12.063  21.839  0.00  0.00    +0.000 A 
ATOM     11  C   UNL     1      -0.299  13.111  20.879  0.00  0.00    +0.000 A 
BRANCH   3  13
ATOM     12  C   UNL     1       1.327  14.872  18.683  0.00  0.00    +0.000 C 
ATOM     13  O   UNL     1       0.238  13.949  18.699  0.00  0.00    +0.000 OA
ENDBRANCH   3  13
BRANCH  10  14
ATOM     14  O   UNL     1      -0.812  12.063  23.101  0.00  0.00    +0.000 OA
ATOM     15  C   UNL     1      -2.199  11.874  23.295  0.00  0.00    +0.000 C 
ENDBRANCH  10  14
BRANCH  11  16
ATOM     16  O   UNL     1      -1.042  14.218  21.222  0.00  0.00    +0.000 OA
ATOM     17  C   UNL     1      -0.440  15.287  21.932  0.00  0.00    +0.000 C 
ENDBRANCH  11  16
ENDBRANCH   1   7
BRANCH   2  18
ATOM     18  C   UNL     1       2.184   5.146  20.120  0.00  0.00    +0.000 A 
ATOM     19  C   UNL     1       1.183   4.327  20.663  0.00  0.00    +0.000 A 
ATOM     20  C   UNL     1       1.382   2.961  20.827  0.00  0.00    +0.000 A 
ATOM     21  C   UNL     1       2.611   2.445  20.469  0.00  0.00    +0.000 A 
ATOM     22  N   UNL     1       3.607   3.188  19.963  0.00  0.00    +0.000 NA
ATOM     23  C   UNL     1       3.414   4.526  19.803  0.00  0.00    +0.000 A 
BRANCH  23  24
ATOM     24  N   UNL     1       4.452   5.289  19.230  0.00  0.00    +0.000 N 
ATOM     25  H   UNL     1       5.010   5.789  19.908  0.00  0.00    +0.000 HD
BRANCH  24  26
ATOM     26  C   UNL     1       4.822   5.372  17.879  0.00  0.00    +0.000 A 
ATOM     27  C   UNL     1       5.290   4.246  17.189  0.00  0.00    +0.000 A 
ATOM     28  C   UNL     1       5.617   4.304  15.833  0.00  0.00    +0.000 A 
ATOM     29  C   UNL     1       5.526   5.512  15.151  0.00  0.00    +0.000 A 
ATOM     30  C   UNL     1       5.134   6.662  15.835  0.00  0.00    +0.000 A 
ATOM     31  C   UNL     1       4.787   6.593  17.193  0.00  0.00    +0.000 A 
ENDBRANCH  24  26
ENDBRANCH  23  24
ENDBRANCH   2  18
TORSDOF 7
ENDMDL
MODEL 9
REMARK VINA RESULT:      -7.4      1.444      2.589
REMARK  Name = 
REMARK  10 active torsions:
REMARK  status: ('A' for Active; 'I' for Inactive)
REMARK    1  A    between atoms: C_1  and  O_2
REMARK    2  A    between atoms: O_2  and  C_3
REMARK    3  A    between atoms: C_7  and  C_8
REMARK    4  A    between atoms: N_9  and  C_10
REMARK    5  A    between atoms: C_15  and  N_16
REMARK    6  A    between atoms: N_16  and  C_17
REMARK    7  A    between atoms: C_25  and  O_26
REMARK    8  A    between atoms: O_26  and  C_27
REMARK    9  A    between atoms: C_28  and  O_29
REMARK   10  A    between atoms: O_29  and  C_30
REMARK                            x       y       z     vdW  Elec       q    Type
REMARK                         _______ _______ _______ _____ _____    ______ ____
ROOT
ATOM      1  C   UNL     1       3.179   7.615  17.851  0.00  0.00    +0.000 C 
ATOM      2  N   UNL     1       3.645   6.525  18.389  0.00  0.00    +0.000 NA
ENDROOT
BRANCH   1   7
ATOM      3  C   UNL     1      -0.004  10.754  21.855  0.00  0.00    +0.000 A 
ATOM      4  C   UNL     1       0.530   9.523  21.444  0.00  0.00    +0.000 A 
ATOM      5  C   UNL     1       1.086   9.383  20.164  0.00  0.00    +0.000 A 
ATOM      6  N   UNL     1       1.775   8.275  19.701  0.00  0.00    +0.000 NA
ATOM      7  C   UNL     1       2.238   8.513  18.491  0.00  0.00    +0.000 A 
ATOM      8  S   UNL     1       1.748   9.982  17.783  0.00  0.00    +0.000 S 
ATOM      9  C   UNL     1       0.993  10.452  19.275  0.00  0.00    +0.000 A 
ATOM     10  C   UNL     1       0.379  11.684  19.611  0.00  0.00    +0.000 A 
ATOM     11  C   UNL     1      -0.102  11.829  20.940  0.00  0.00    +0.000 A 
BRANCH   3  13
ATOM     12  C   UNL     1      -1.839  11.222  23.305  0.00  0.00    +0.000 C 
ATOM     13  O   UNL     1      -0.449  10.940  23.138  0.00  0.00    +0.000 OA
ENDBRANCH   3  13
BRANCH  10  14
ATOM     14  O   UNL     1       0.368  12.611  18.603  0.00  0.00    +0.000 OA
ATOM     15  C   UNL     1       1.448  13.510  18.443  0.00  0.00    +0.000 C 
ENDBRANCH  10  14
BRANCH  11  16
ATOM     16  O   UNL     1      -0.527  13.092  21.285  0.00  0.00    +0.000 OA
ATOM     17  C   UNL     1       0.379  14.013  21.868  0.00  0.00    +0.000 C 
ENDBRANCH  11  16
ENDBRANCH   1   7
BRANCH   2  18
ATOM     18  C   UNL     1       4.448   5.686  17.570  0.00  0.00    +0.000 A 
ATOM     19  C   UNL     1       5.677   6.137  17.067  0.00  0.00    +0.000 A 
ATOM     20  C   UNL     1       6.463   5.327  16.255  0.00  0.00    +0.000 A 
ATOM     21  C   UNL     1       5.974   4.077  15.932  0.00  0.00    +0.000 A 
ATOM     22  N   UNL     1       4.797   3.606  16.372  0.00  0.00    +0.000 NA
ATOM     23  C   UNL     1       4.027   4.399  17.166  0.00  0.00    +0.000 A 
BRANCH  23  24
ATOM     24  N   UNL     1       2.812   3.877  17.658  0.00  0.00    +0.000 N 
ATOM     25  H   UNL     1       2.113   3.734  16.942  0.00  0.00    +0.000 HD
BRANCH  24  26
ATOM     26  C   UNL     1       2.505   3.485  18.970  0.00  0.00    +0.000 A 
ATOM     27  C   UNL     1       1.218   3.662  19.493  0.00  0.00    +0.000 A 
ATOM     28  C   UNL     1       0.887   3.233  20.779  0.00  0.00    +0.000 A 
ATOM     29  C   UNL     1       1.860   2.659  21.588  0.00  0.00    +0.000 A 
ATOM     30  C   UNL     1       3.166   2.539  21.116  0.00  0.00    +0.000 A 
ATOM     31  C   UNL     1       3.488   2.953  19.815  0.00  0.00    +0.000 A 
ENDBRANCH  24  26
ENDBRANCH  23  24
ENDBRANCH   2  18
TORSDOF 7
ENDMDL
