MODEL 1
REMARK VINA RESULT:      -7.2      0.000      0.000
REMARK  Name = 
REMARK  8 active torsions:
REMARK  status: ('A' for Active; 'I' for Inactive)
REMARK    1  A    between atoms: C_1  and  C_2
REMARK    2  A    between atoms: C_2  and  N_3
REMARK    3  A    between atoms: N_3  and  C_4
REMARK    4  A    between atoms: N_3  and  C_17
REMARK    5  A    between atoms: C_4  and  C_5
REMARK    6  A    between atoms: C_5  and  N_6
REMARK    7  A    between atoms: N_9  and  C_10
REMARK    8  A    between atoms: C_21  and  C_22
REMARK                            x       y       z     vdW  Elec       q    Type
REMARK                         _______ _______ _______ _____ _____    ______ ____
ROOT
ATOM      1  N   UNL     1       2.692   4.798  21.321  0.00  0.00    +0.000 N 
ATOM      2  C   UNL     1       1.943   5.660  20.557  0.00  0.00    +0.000 C 
ATOM      3  O   UNL     1       0.983   5.289  19.892  0.00  0.00    +0.000 OA
ATOM      4  N   UNL     1       2.449   6.943  20.590  0.00  0.00    +0.000 N 
ATOM      5  H   UNL     1       2.973   5.181  22.212  0.00  0.00    +0.000 HD
ATOM      6  H   UNL     1       3.457   6.987  20.675  0.00  0.00    +0.000 HD
ENDROOT
BRANCH   4   7
ATOM      7  C   UNL     1       1.855   7.982  19.826  0.00  0.00    +0.000 A 
ATOM      8  C   UNL     1       2.179   8.142  18.473  0.00  0.00    +0.000 A 
ATOM      9  C   UNL     1       1.634   9.190  17.730  0.00  0.00    +0.000 A 
ATOM     10  C   UNL     1       0.762  10.092  18.336  0.00  0.00    +0.000 A 
ATOM     11  C   UNL     1       0.419   9.935  19.680  0.00  0.00    +0.000 A 
ATOM     12  C   UNL     1       0.952   8.874  20.419  0.00  0.00    +0.000 A 
ATOM     13 CL   UNL     1       0.538   8.747  22.093  0.00  0.00    +0.000 Cl
ENDBRANCH   4   7
BRANCH   1  14
ATOM     14  C   UNL     1       2.343   3.373  21.313  0.00  0.00    +0.000 C 
BRANCH  14  15
ATOM     15  C   UNL     1       3.330   2.509  20.492  0.00  0.00    +0.000 C 
BRANCH  15  16
ATOM     16  N   UNL     1       3.261   2.814  19.051  0.00  0.00    +0.000 N 
BRANCH  16  17
ATOM     17  C   UNL     1       4.143   3.727  18.457  0.00  0.00    +0.000 A 
ATOM     18  C   UNL     1       3.958   4.185  17.137  0.00  0.00    +0.000 A 
ATOM     19  C   UNL     1       4.835   5.078  16.514  0.00  0.00    +0.000 A 
ATOM     20  C   UNL     1       5.942   5.560  17.200  0.00  0.00    +0.000 A 
ATOM     21  C   UNL     1       6.166   5.148  18.510  0.00  0.00    +0.000 A 
ATOM     22  C   UNL     1       7.359   5.655  19.272  0.00  0.00    +0.000 C 
ATOM     23  C   UNL     1       5.273   4.244  19.120  0.00  0.00    +0.000 A 
ENDBRANCH  16  17
BRANCH  16  25
ATOM     24  C   UNL     1       0.787   2.189  18.762  0.00  0.00    +0.000 C 
ATOM     25  C   UNL     1       2.199   2.232  18.206  0.00  0.00    +0.000 C 
ENDBRANCH  16  25
ENDBRANCH  15  16
ENDBRANCH  14  15
ENDBRANCH   1  14
TORSDOF 6
ENDMDL
MODEL 2
REMARK VINA RESULT:      -7.2      0.696      1.510
REMARK  Name = 
REMARK  8 active torsions:
REMARK  status: ('A' for Active; 'I' for Inactive)
REMARK    1  A    between atoms: C_1  and  C_2
REMARK    2  A    between atoms: C_2  and  N_3
REMARK    3  A    between atoms: N_3  and  C_4
REMARK    4  A    between atoms: N_3  and  C_17
REMARK    5  A    between atoms: C_4  and  C_5
REMARK    6  A    between atoms: C_5  and  N_6
REMARK    7  A    between atoms: N_9  and  C_10
REMARK    8  A    between atoms: C_21  and  C_22
REMARK                            x       y       z     vdW  Elec       q    Type
REMARK                         _______ _______ _______ _____ _____    ______ ____
ROOT
ATOM      1  N   UNL     1       2.550   4.615  21.230  0.00  0.00    +0.000 N 
ATOM      2  C   UNL     1       2.064   5.491  20.290  0.00  0.00    +0.000 C 
ATOM      3  O   UNL     1       1.573   5.118  19.231  0.00  0.00    +0.000 OA
ATOM      4  N   UNL     1       2.261   6.804  20.665  0.00  0.00    +0.000 N 
ATOM      5  H   UNL     1       2.341   4.880  22.182  0.00  0.00    +0.000 HD
ATOM      6  H   UNL     1       3.106   6.957  21.202  0.00  0.00    +0.000 HD
ENDROOT
BRANCH   4   7
ATOM      7  C   UNL     1       1.880   7.872  19.811  0.00  0.00    +0.000 A 
ATOM      8  C   UNL     1       2.426   7.985  18.526  0.00  0.00    +0.000 A 
ATOM      9  C   UNL     1       2.089   9.058  17.701  0.00  0.00    +0.000 A 
ATOM     10  C   UNL     1       1.205  10.034  18.156  0.00  0.00    +0.000 A 
ATOM     11  C   UNL     1       0.641   9.927  19.429  0.00  0.00    +0.000 A 
ATOM     12  C   UNL     1       0.965   8.840  20.248  0.00  0.00    +0.000 A 
ATOM     13 CL   UNL     1       0.283   8.773  21.835  0.00  0.00    +0.000 Cl
ENDBRANCH   4   7
BRANCH   1  14
ATOM     14  C   UNL     1       2.505   3.178  20.937  0.00  0.00    +0.000 C 
BRANCH  14  15
ATOM     15  C   UNL     1       3.853   2.620  20.419  0.00  0.00    +0.000 C 
BRANCH  15  16
ATOM     16  N   UNL     1       4.052   2.906  18.986  0.00  0.00    +0.000 N 
BRANCH  16  17
ATOM     17  C   UNL     1       4.817   4.001  18.561  0.00  0.00    +0.000 A 
ATOM     18  C   UNL     1       5.832   4.554  19.368  0.00  0.00    +0.000 A 
ATOM     19  C   UNL     1       6.595   5.659  18.977  0.00  0.00    +0.000 A 
ATOM     20  C   UNL     1       6.373   6.257  17.744  0.00  0.00    +0.000 A 
ATOM     21  C   UNL     1       5.389   5.745  16.904  0.00  0.00    +0.000 A 
ATOM     22  C   UNL     1       5.130   6.377  15.564  0.00  0.00    +0.000 C 
ATOM     23  C   UNL     1       4.628   4.632  17.316  0.00  0.00    +0.000 A 
ENDBRANCH  16  17
BRANCH  16  25
ATOM     24  C   UNL     1       1.874   1.906  18.065  0.00  0.00    +0.000 C 
ATOM     25  C   UNL     1       3.376   2.096  17.953  0.00  0.00    +0.000 C 
ENDBRANCH  16  25
ENDBRANCH  15  16
ENDBRANCH  14  15
ENDBRANCH   1  14
TORSDOF 6
ENDMDL
MODEL 3
REMARK VINA RESULT:      -7.1      5.470      7.228
REMARK  Name = 
REMARK  8 active torsions:
REMARK  status: ('A' for Active; 'I' for Inactive)
REMARK    1  A    between atoms: C_1  and  C_2
REMARK    2  A    between atoms: C_2  and  N_3
REMARK    3  A    between atoms: N_3  and  C_4
REMARK    4  A    between atoms: N_3  and  C_17
REMARK    5  A    between atoms: C_4  and  C_5
REMARK    6  A    between atoms: C_5  and  N_6
REMARK    7  A    between atoms: N_9  and  C_10
REMARK    8  A    between atoms: C_21  and  C_22
REMARK                            x       y       z     vdW  Elec       q    Type
REMARK                         _______ _______ _______ _____ _____    ______ ____
ROOT
ATOM      1  N   UNL     1       8.603   8.111  18.833  0.00  0.00    +0.000 N 
ATOM      2  C   UNL     1       8.796   9.468  18.741  0.00  0.00    +0.000 C 
ATOM      3  O   UNL     1       8.277  10.151  17.866  0.00  0.00    +0.000 OA
ATOM      4  N   UNL     1       9.677   9.925  19.698  0.00  0.00    +0.000 N 
ATOM      5  H   UNL     1       8.500   7.777  19.780  0.00  0.00    +0.000 HD
ATOM      6  H   UNL     1      10.404   9.262  19.939  0.00  0.00    +0.000 HD
ENDROOT
BRANCH   4   7
ATOM      7  C   UNL     1      10.058  11.291  19.748  0.00  0.00    +0.000 A 
ATOM      8  C   UNL     1      10.931  11.821  18.789  0.00  0.00    +0.000 A 
ATOM      9  C   UNL     1      11.345  13.151  18.861  0.00  0.00    +0.000 A 
ATOM     10  C   UNL     1      10.893  13.965  19.896  0.00  0.00    +0.000 A 
ATOM     11  C   UNL     1      10.011  13.455  20.851  0.00  0.00    +0.000 A 
ATOM     12  C   UNL     1       9.582  12.126  20.768  0.00  0.00    +0.000 A 
ATOM     13 CL   UNL     1       8.529  11.522  21.998  0.00  0.00    +0.000 Cl
ENDBRANCH   4   7
BRANCH   1  14
ATOM     14  C   UNL     1       7.766   7.454  17.823  0.00  0.00    +0.000 C 
BRANCH  14  15
ATOM     15  C   UNL     1       7.429   5.984  18.174  0.00  0.00    +0.000 C 
BRANCH  15  16
ATOM     16  N   UNL     1       6.448   5.405  17.238  0.00  0.00    +0.000 N 
BRANCH  16  17
ATOM     17  C   UNL     1       5.073   5.439  17.511  0.00  0.00    +0.000 A 
ATOM     18  C   UNL     1       4.321   4.258  17.671  0.00  0.00    +0.000 A 
ATOM     19  C   UNL     1       2.945   4.263  17.923  0.00  0.00    +0.000 A 
ATOM     20  C   UNL     1       2.262   5.467  18.033  0.00  0.00    +0.000 A 
ATOM     21  C   UNL     1       2.959   6.664  17.894  0.00  0.00    +0.000 A 
ATOM     22  C   UNL     1       2.241   7.979  18.008  0.00  0.00    +0.000 C 
ATOM     23  C   UNL     1       4.345   6.638  17.637  0.00  0.00    +0.000 A 
ENDBRANCH  16  17
BRANCH  16  25
ATOM     24  C   UNL     1       6.184   4.999  14.717  0.00  0.00    +0.000 C 
ATOM     25  C   UNL     1       6.892   4.692  16.024  0.00  0.00    +0.000 C 
ENDBRANCH  16  25
ENDBRANCH  15  16
ENDBRANCH  14  15
ENDBRANCH   1  14
TORSDOF 6
ENDMDL
MODEL 4
REMARK VINA RESULT:      -7.1      3.524      6.037
REMARK  Name = 
REMARK  8 active torsions:
REMARK  status: ('A' for Active; 'I' for Inactive)
REMARK    1  A    between atoms: C_1  and  C_2
REMARK    2  A    between atoms: C_2  and  N_3
REMARK    3  A    between atoms: N_3  and  C_4
REMARK    4  A    between atoms: N_3  and  C_17
REMARK    5  A    between atoms: C_4  and  C_5
REMARK    6  A    between atoms: C_5  and  N_6
REMARK    7  A    between atoms: N_9  and  C_10
REMARK    8  A    between atoms: C_21  and  C_22
REMARK                            x       y       z     vdW  Elec       q    Type
REMARK                         _______ _______ _______ _____ _____    ______ ____
ROOT
ATOM      1  N   UNL     1       6.260   3.868  17.656  0.00  0.00    +0.000 N 
ATOM      2  C   UNL     1       5.293   4.046  18.616  0.00  0.00    +0.000 C 
ATOM      3  O   UNL     1       5.359   4.927  19.465  0.00  0.00    +0.000 OA
ATOM      4  N   UNL     1       4.307   3.084  18.532  0.00  0.00    +0.000 N 
ATOM      5  H   UNL     1       5.892   3.634  16.745  0.00  0.00    +0.000 HD
ATOM      6  H   UNL     1       4.639   2.181  18.218  0.00  0.00    +0.000 HD
ENDROOT
BRANCH   4   7
ATOM      7  C   UNL     1       3.238   3.052  19.465  0.00  0.00    +0.000 A 
ATOM      8  C   UNL     1       2.027   3.696  19.181  0.00  0.00    +0.000 A 
ATOM      9  C   UNL     1       0.990   3.706  20.114  0.00  0.00    +0.000 A 
ATOM     10  C   UNL     1       1.156   3.074  21.344  0.00  0.00    +0.000 A 
ATOM     11  C   UNL     1       2.351   2.415  21.635  0.00  0.00    +0.000 A 
ATOM     12  C   UNL     1       3.384   2.390  20.692  0.00  0.00    +0.000 A 
ATOM     13 CL   UNL     1       4.865   1.605  21.113  0.00  0.00    +0.000 Cl
ENDBRANCH   4   7
BRANCH   1  14
ATOM     14  C   UNL     1       7.431   4.751  17.671  0.00  0.00    +0.000 C 
BRANCH  14  15
ATOM     15  C   UNL     1       7.306   5.944  16.692  0.00  0.00    +0.000 C 
BRANCH  15  16
ATOM     16  N   UNL     1       6.251   5.722  15.687  0.00  0.00    +0.000 N 
BRANCH  16  17
ATOM     17  C   UNL     1       6.543   5.157  14.437  0.00  0.00    +0.000 A 
ATOM     18  C   UNL     1       7.707   5.501  13.722  0.00  0.00    +0.000 A 
ATOM     19  C   UNL     1       8.012   4.968  12.465  0.00  0.00    +0.000 A 
ATOM     20  C   UNL     1       7.154   4.052  11.872  0.00  0.00    +0.000 A 
ATOM     21  C   UNL     1       5.995   3.668  12.540  0.00  0.00    +0.000 A 
ATOM     22  C   UNL     1       5.051   2.678  11.916  0.00  0.00    +0.000 C 
ATOM     23  C   UNL     1       5.704   4.219  13.804  0.00  0.00    +0.000 A 
ENDBRANCH  16  17
BRANCH  16  25
ATOM     24  C   UNL     1       4.636   7.209  17.017  0.00  0.00    +0.000 C 
ATOM     25  C   UNL     1       4.867   6.173  15.932  0.00  0.00    +0.000 C 
ENDBRANCH  16  25
ENDBRANCH  15  16
ENDBRANCH  14  15
ENDBRANCH   1  14
TORSDOF 6
ENDMDL
MODEL 5
REMARK VINA RESULT:      -7.1      3.165      5.489
REMARK  Name = 
REMARK  8 active torsions:
REMARK  status: ('A' for Active; 'I' for Inactive)
REMARK    1  A    between atoms: C_1  and  C_2
REMARK    2  A    between atoms: C_2  and  N_3
REMARK    3  A    between atoms: N_3  and  C_4
REMARK    4  A    between atoms: N_3  and  C_17
REMARK    5  A    between atoms: C_4  and  C_5
REMARK    6  A    between atoms: C_5  and  N_6
REMARK    7  A    between atoms: N_9  and  C_10
REMARK    8  A    between atoms: C_21  and  C_22
REMARK                            x       y       z     vdW  Elec       q    Type
REMARK                         _______ _______ _______ _____ _____    ______ ____
ROOT
ATOM      1  N   UNL     1       5.606   3.093  16.310  0.00  0.00    +0.000 N 
ATOM      2  C   UNL     1       4.411   3.348  16.940  0.00  0.00    +0.000 C 
ATOM      3  O   UNL     1       3.526   4.023  16.428  0.00  0.00    +0.000 OA
ATOM      4  N   UNL     1       4.380   2.812  18.210  0.00  0.00    +0.000 N 
ATOM      5  H   UNL     1       5.945   2.152  16.443  0.00  0.00    +0.000 HD
ATOM      6  H   UNL     1       5.278   2.803  18.676  0.00  0.00    +0.000 HD
ENDROOT
BRANCH   4   7
ATOM      7  C   UNL     1       3.256   3.004  19.056  0.00  0.00    +0.000 A 
ATOM      8  C   UNL     1       2.243   2.038  19.123  0.00  0.00    +0.000 A 
ATOM      9  C   UNL     1       1.115   2.245  19.917  0.00  0.00    +0.000 A 
ATOM     10  C   UNL     1       0.985   3.422  20.649  0.00  0.00    +0.000 A 
ATOM     11  C   UNL     1       1.993   4.387  20.603  0.00  0.00    +0.000 A 
ATOM     12  C   UNL     1       3.133   4.172  19.821  0.00  0.00    +0.000 A 
ATOM     13 CL   UNL     1       4.333   5.414  19.756  0.00  0.00    +0.000 Cl
ENDBRANCH   4   7
BRANCH   1  14
ATOM     14  C   UNL     1       5.837   3.680  14.985  0.00  0.00    +0.000 C 
BRANCH  14  15
ATOM     15  C   UNL     1       6.862   4.840  15.004  0.00  0.00    +0.000 C 
BRANCH  15  16
ATOM     16  N   UNL     1       6.391   5.977  15.814  0.00  0.00    +0.000 N 
BRANCH  16  17
ATOM     17  C   UNL     1       7.096   6.404  16.949  0.00  0.00    +0.000 A 
ATOM     18  C   UNL     1       7.391   5.527  18.011  0.00  0.00    +0.000 A 
ATOM     19  C   UNL     1       8.074   5.932  19.163  0.00  0.00    +0.000 A 
ATOM     20  C   UNL     1       8.499   7.247  19.293  0.00  0.00    +0.000 A 
ATOM     21  C   UNL     1       8.242   8.153  18.269  0.00  0.00    +0.000 A 
ATOM     22  C   UNL     1       8.691   9.583  18.389  0.00  0.00    +0.000 C 
ATOM     23  C   UNL     1       7.550   7.727  17.117  0.00  0.00    +0.000 A 
ENDBRANCH  16  17
BRANCH  16  25
ATOM     24  C   UNL     1       4.300   7.202  16.663  0.00  0.00    +0.000 C 
ATOM     25  C   UNL     1       5.111   6.647  15.506  0.00  0.00    +0.000 C 
ENDBRANCH  16  25
ENDBRANCH  15  16
ENDBRANCH  14  15
ENDBRANCH   1  14
TORSDOF 6
ENDMDL
MODEL 6
REMARK VINA RESULT:      -7.1      2.487      3.555
REMARK  Name = 
REMARK  8 active torsions:
REMARK  status: ('A' for Active; 'I' for Inactive)
REMARK    1  A    between atoms: C_1  and  C_2
REMARK    2  A    between atoms: C_2  and  N_3
REMARK    3  A    between atoms: N_3  and  C_4
REMARK    4  A    between atoms: N_3  and  C_17
REMARK    5  A    between atoms: C_4  and  C_5
REMARK    6  A    between atoms: C_5  and  N_6
REMARK    7  A    between atoms: N_9  and  C_10
REMARK    8  A    between atoms: C_21  and  C_22
REMARK                            x       y       z     vdW  Elec       q    Type
REMARK                         _______ _______ _______ _____ _____    ______ ____
ROOT
ATOM      1  N   UNL     1       2.148   7.847  19.003  0.00  0.00    +0.000 N 
ATOM      2  C   UNL     1       1.764   9.062  18.487  0.00  0.00    +0.000 C 
ATOM      3  O   UNL     1       2.052   9.417  17.350  0.00  0.00    +0.000 OA
ATOM      4  N   UNL     1       1.092   9.823  19.420  0.00  0.00    +0.000 N 
ATOM      5  H   UNL     1       1.439   7.401  19.567  0.00  0.00    +0.000 HD
ATOM      6  H   UNL     1       1.408   9.683  20.371  0.00  0.00    +0.000 HD
ENDROOT
BRANCH   4   7
ATOM      7  C   UNL     1       0.653  11.137  19.110  0.00  0.00    +0.000 A 
ATOM      8  C   UNL     1       1.466  12.243  19.389  0.00  0.00    +0.000 A 
ATOM      9  C   UNL     1       1.019  13.538  19.129  0.00  0.00    +0.000 A 
ATOM     10  C   UNL     1      -0.249  13.742  18.591  0.00  0.00    +0.000 A 
ATOM     11  C   UNL     1      -1.065  12.649  18.294  0.00  0.00    +0.000 A 
ATOM     12  C   UNL     1      -0.609  11.349  18.538  0.00  0.00    +0.000 A 
ATOM     13 CL   UNL     1      -1.671  10.027  18.201  0.00  0.00    +0.000 Cl
ENDBRANCH   4   7
BRANCH   1  14
ATOM     14  C   UNL     1       2.959   6.957  18.166  0.00  0.00    +0.000 C 
BRANCH  14  15
ATOM     15  C   UNL     1       2.468   5.489  18.184  0.00  0.00    +0.000 C 
BRANCH  15  16
ATOM     16  N   UNL     1       3.543   4.553  18.560  0.00  0.00    +0.000 N 
BRANCH  16  17
ATOM     17  C   UNL     1       4.754   4.514  17.853  0.00  0.00    +0.000 A 
ATOM     18  C   UNL     1       5.991   4.737  18.490  0.00  0.00    +0.000 A 
ATOM     19  C   UNL     1       7.211   4.724  17.806  0.00  0.00    +0.000 A 
ATOM     20  C   UNL     1       7.239   4.477  16.440  0.00  0.00    +0.000 A 
ATOM     21  C   UNL     1       6.046   4.240  15.763  0.00  0.00    +0.000 A 
ATOM     22  C   UNL     1       6.052   3.972  14.283  0.00  0.00    +0.000 C 
ATOM     23  C   UNL     1       4.827   4.260  16.469  0.00  0.00    +0.000 A 
ENDBRANCH  16  17
BRANCH  16  25
ATOM     24  C   UNL     1       2.105   2.688  19.581  0.00  0.00    +0.000 C 
ATOM     25  C   UNL     1       3.342   3.565  19.638  0.00  0.00    +0.000 C 
ENDBRANCH  16  25
ENDBRANCH  15  16
ENDBRANCH  14  15
ENDBRANCH   1  14
TORSDOF 6
ENDMDL
MODEL 7
REMARK VINA RESULT:      -6.9      0.957      1.658
REMARK  Name = 
REMARK  8 active torsions:
REMARK  status: ('A' for Active; 'I' for Inactive)
REMARK    1  A    between atoms: C_1  and  C_2
REMARK    2  A    between atoms: C_2  and  N_3
REMARK    3  A    between atoms: N_3  and  C_4
REMARK    4  A    between atoms: N_3  and  C_17
REMARK    5  A    between atoms: C_4  and  C_5
REMARK    6  A    between atoms: C_5  and  N_6
REMARK    7  A    between atoms: N_9  and  C_10
REMARK    8  A    between atoms: C_21  and  C_22
REMARK                            x       y       z     vdW  Elec       q    Type
REMARK                         _______ _______ _______ _____ _____    ______ ____
ROOT
ATOM      1  N   UNL     1       2.820   5.194  20.956  0.00  0.00    +0.000 N 
ATOM      2  C   UNL     1       1.861   6.091  20.551  0.00  0.00    +0.000 C 
ATOM      3  O   UNL     1       0.697   5.765  20.346  0.00  0.00    +0.000 OA
ATOM      4  N   UNL     1       2.389   7.349  20.352  0.00  0.00    +0.000 N 
ATOM      5  H   UNL     1       3.458   5.563  21.647  0.00  0.00    +0.000 HD
ATOM      6  H   UNL     1       3.344   7.347  20.015  0.00  0.00    +0.000 HD
ENDROOT
BRANCH   4   7
ATOM      7  C   UNL     1       1.579   8.415  19.880  0.00  0.00    +0.000 A 
ATOM      8  C   UNL     1       1.485   8.683  18.508  0.00  0.00    +0.000 A 
ATOM      9  C   UNL     1       0.727   9.758  18.044  0.00  0.00    +0.000 A 
ATOM     10  C   UNL     1       0.058  10.580  18.948  0.00  0.00    +0.000 A 
ATOM     11  C   UNL     1       0.130  10.316  20.317  0.00  0.00    +0.000 A 
ATOM     12  C   UNL     1       0.876   9.227  20.781  0.00  0.00    +0.000 A 
ATOM     13 CL   UNL     1       0.978   8.966  22.487  0.00  0.00    +0.000 Cl
ENDBRANCH   4   7
BRANCH   1  14
ATOM     14  C   UNL     1       2.439   3.787  21.118  0.00  0.00    +0.000 C 
BRANCH  14  15
ATOM     15  C   UNL     1       3.342   2.816  20.320  0.00  0.00    +0.000 C 
BRANCH  15  16
ATOM     16  N   UNL     1       3.348   3.129  18.879  0.00  0.00    +0.000 N 
BRANCH  16  17
ATOM     17  C   UNL     1       4.478   3.680  18.258  0.00  0.00    +0.000 A 
ATOM     18  C   UNL     1       5.452   4.389  18.988  0.00  0.00    +0.000 A 
ATOM     19  C   UNL     1       6.577   4.967  18.390  0.00  0.00    +0.000 A 
ATOM     20  C   UNL     1       6.776   4.847  17.021  0.00  0.00    +0.000 A 
ATOM     21  C   UNL     1       5.849   4.148  16.254  0.00  0.00    +0.000 A 
ATOM     22  C   UNL     1       6.043   4.007  14.770  0.00  0.00    +0.000 C 
ATOM     23  C   UNL     1       4.720   3.575  16.874  0.00  0.00    +0.000 A 
ENDBRANCH  16  17
BRANCH  16  25
ATOM     24  C   UNL     1       1.430   4.199  17.550  0.00  0.00    +0.000 C 
ATOM     25  C   UNL     1       2.130   2.953  18.063  0.00  0.00    +0.000 C 
ENDBRANCH  16  25
ENDBRANCH  15  16
ENDBRANCH  14  15
ENDBRANCH   1  14
TORSDOF 6
ENDMDL
MODEL 8
REMARK VINA RESULT:      -6.9      2.531      3.693
REMARK  Name = 
REMARK  8 active torsions:
REMARK  status: ('A' for Active; 'I' for Inactive)
REMARK    1  A    between atoms: C_1  and  C_2
REMARK    2  A    between atoms: C_2  and  N_3
REMARK    3  A    between atoms: N_3  and  C_4
REMARK    4  A    between atoms: N_3  and  C_17
REMARK    5  A    between atoms: C_4  and  C_5
REMARK    6  A    between atoms: C_5  and  N_6
REMARK    7  A    between atoms: N_9  and  C_10
REMARK    8  A    between atoms: C_21  and  C_22
REMARK                            x       y       z     vdW  Elec       q    Type
REMARK                         _______ _______ _______ _____ _____    ______ ____
ROOT
ATOM      1  N   UNL     1       2.377   8.250  17.767  0.00  0.00    +0.000 N 
ATOM      2  C   UNL     1       1.565   9.003  18.580  0.00  0.00    +0.000 C 
ATOM      3  O   UNL     1       1.419   8.762  19.773  0.00  0.00    +0.000 OA
ATOM      4  N   UNL     1       0.909   9.990  17.875  0.00  0.00    +0.000 N 
ATOM      5  H   UNL     1       2.904   8.794  17.099  0.00  0.00    +0.000 HD
ATOM      6  H   UNL     1       0.680   9.733  16.923  0.00  0.00    +0.000 HD
ENDROOT
BRANCH   4   7
ATOM      7  C   UNL     1      -0.021  10.850  18.515  0.00  0.00    +0.000 A 
ATOM      8  C   UNL     1       0.402  11.738  19.512  0.00  0.00    +0.000 A 
ATOM      9  C   UNL     1      -0.517  12.551  20.177  0.00  0.00    +0.000 A 
ATOM     10  C   UNL     1      -1.869  12.481  19.854  0.00  0.00    +0.000 A 
ATOM     11  C   UNL     1      -2.303  11.611  18.852  0.00  0.00    +0.000 A 
ATOM     12  C   UNL     1      -1.380  10.809  18.173  0.00  0.00    +0.000 A 
ATOM     13 CL   UNL     1      -1.967   9.711  16.974  0.00  0.00    +0.000 Cl
ENDBRANCH   4   7
BRANCH   1  14
ATOM     14  C   UNL     1       3.071   7.095  18.347  0.00  0.00    +0.000 C 
BRANCH  14  15
ATOM     15  C   UNL     1       2.421   5.742  17.971  0.00  0.00    +0.000 C 
BRANCH  15  16
ATOM     16  N   UNL     1       3.327   4.607  18.223  0.00  0.00    +0.000 N 
BRANCH  16  17
ATOM     17  C   UNL     1       4.597   4.543  17.632  0.00  0.00    +0.000 A 
ATOM     18  C   UNL     1       5.774   4.712  18.387  0.00  0.00    +0.000 A 
ATOM     19  C   UNL     1       7.052   4.675  17.819  0.00  0.00    +0.000 A 
ATOM     20  C   UNL     1       7.201   4.456  16.457  0.00  0.00    +0.000 A 
ATOM     21  C   UNL     1       6.071   4.272  15.666  0.00  0.00    +0.000 A 
ATOM     22  C   UNL     1       6.208   4.035  14.187  0.00  0.00    +0.000 C 
ATOM     23  C   UNL     1       4.792   4.316  16.256  0.00  0.00    +0.000 A 
ENDBRANCH  16  17
BRANCH  16  25
ATOM     24  C   UNL     1       3.026   2.067  18.443  0.00  0.00    +0.000 C 
ATOM     25  C   UNL     1       2.888   3.456  19.038  0.00  0.00    +0.000 C 
ENDBRANCH  16  25
ENDBRANCH  15  16
ENDBRANCH  14  15
ENDBRANCH   1  14
TORSDOF 6
ENDMDL
MODEL 9
REMARK VINA RESULT:      -6.9      5.738      7.396
REMARK  Name = 
REMARK  8 active torsions:
REMARK  status: ('A' for Active; 'I' for Inactive)
REMARK    1  A    between atoms: C_1  and  C_2
REMARK    2  A    between atoms: C_2  and  N_3
REMARK    3  A    between atoms: N_3  and  C_4
REMARK    4  A    between atoms: N_3  and  C_17
REMARK    5  A    between atoms: C_4  and  C_5
REMARK    6  A    between atoms: C_5  and  N_6
REMARK    7  A    between atoms: N_9  and  C_10
REMARK    8  A    between atoms: C_21  and  C_22
REMARK                            x       y       z     vdW  Elec       q    Type
REMARK                         _______ _______ _______ _____ _____    ______ ____
ROOT
ATOM      1  N   UNL     1       8.659   8.169  18.776  0.00  0.00    +0.000 N 
ATOM      2  C   UNL     1       8.681   9.542  18.824  0.00  0.00    +0.000 C 
ATOM      3  O   UNL     1       8.020  10.239  18.063  0.00  0.00    +0.000 OA
ATOM      4  N   UNL     1       9.570  10.006  19.770  0.00  0.00    +0.000 N 
ATOM      5  H   UNL     1       8.668   7.729  19.685  0.00  0.00    +0.000 HD
ATOM      6  H   UNL     1      10.386   9.420  19.891  0.00  0.00    +0.000 HD
ENDROOT
BRANCH   4   7
ATOM      7  C   UNL     1       9.787  11.398  19.947  0.00  0.00    +0.000 A 
ATOM      8  C   UNL     1       9.109  12.101  20.950  0.00  0.00    +0.000 A 
ATOM      9  C   UNL     1       9.284  13.477  21.098  0.00  0.00    +0.000 A 
ATOM     10  C   UNL     1      10.137  14.166  20.239  0.00  0.00    +0.000 A 
ATOM     11  C   UNL     1      10.831  13.476  19.243  0.00  0.00    +0.000 A 
ATOM     12  C   UNL     1      10.669  12.093  19.108  0.00  0.00    +0.000 A 
ATOM     13 CL   UNL     1      11.510  11.287  17.831  0.00  0.00    +0.000 Cl
ENDBRANCH   4   7
BRANCH   1  14
ATOM     14  C   UNL     1       7.834   7.517  17.753  0.00  0.00    +0.000 C 
BRANCH  14  15
ATOM     15  C   UNL     1       7.431   6.070  18.127  0.00  0.00    +0.000 C 
BRANCH  15  16
ATOM     16  N   UNL     1       6.521   5.477  17.130  0.00  0.00    +0.000 N 
BRANCH  16  17
ATOM     17  C   UNL     1       5.148   5.348  17.384  0.00  0.00    +0.000 A 
ATOM     18  C   UNL     1       4.341   6.464  17.679  0.00  0.00    +0.000 A 
ATOM     19  C   UNL     1       2.974   6.360  17.957  0.00  0.00    +0.000 A 
ATOM     20  C   UNL     1       2.353   5.119  17.942  0.00  0.00    +0.000 A 
ATOM     21  C   UNL     1       3.102   3.984  17.646  0.00  0.00    +0.000 A 
ATOM     22  C   UNL     1       2.452   2.628  17.625  0.00  0.00    +0.000 C 
ATOM     23  C   UNL     1       4.479   4.108  17.372  0.00  0.00    +0.000 A 
ENDBRANCH  16  17
BRANCH  16  25
ATOM     24  C   UNL     1       6.191   5.059  14.619  0.00  0.00    +0.000 C 
ATOM     25  C   UNL     1       7.044   4.919  15.867  0.00  0.00    +0.000 C 
ENDBRANCH  16  25
ENDBRANCH  15  16
ENDBRANCH  14  15
ENDBRANCH   1  14
TORSDOF 6
ENDMDL
