MODEL 1
REMARK VINA RESULT:      -7.1      0.000      0.000
REMARK  Name = 
REMARK  6 active torsions:
REMARK  status: ('A' for Active; 'I' for Inactive)
REMARK    1  A    between atoms: C_1  and  C_2
REMARK    2  A    between atoms: C_2  and  C_3
REMARK    3  A    between atoms: C_3  and  C_4
REMARK    4  A    between atoms: C_3  and  N_16
REMARK    5  A    between atoms: N_6  and  C_7
REMARK    6  A    between atoms: C_7  and  C_8
REMARK                            x       y       z     vdW  Elec       q    Type
REMARK                         _______ _______ _______ _____ _____    ______ ____
ROOT
ATOM      1  C   UNL     1       4.910   4.675  16.736  0.00  0.00    +0.000 C 
ATOM      2  O   UNL     1       3.879   5.299  16.992  0.00  0.00    +0.000 OA
ATOM      3  N   UNL     1       4.992   3.311  16.892  0.00  0.00    +0.000 N 
ATOM      4  H   UNL     1       5.859   2.810  16.719  0.00  0.00    +0.000 HD
ENDROOT
BRANCH   1   5
ATOM      5  C   UNL     1       6.160   5.370  16.194  0.00  0.00    +0.000 C 
BRANCH   5   6
ATOM      6  N   UNL     1       6.973   5.834  17.323  0.00  0.00    +0.000 N 
ATOM      7  C   UNL     1       7.532   7.074  17.498  0.00  0.00    +0.000 A 
ATOM      8  C   UNL     1       8.156   7.049  18.722  0.00  0.00    +0.000 A 
ATOM      9  C   UNL     1       7.914   5.754  19.215  0.00  0.00    +0.000 A 
ATOM     10  N   UNL     1       7.187   5.014  18.374  0.00  0.00    +0.000 NA
ENDBRANCH   5   6
BRANCH   5  12
ATOM     11  C   UNL     1       6.396   4.211  13.903  0.00  0.00    +0.000 C 
ATOM     12  C   UNL     1       7.007   4.470  15.273  0.00  0.00    +0.000 C 
ENDBRANCH   5  12
ENDBRANCH   1   5
BRANCH   3  13
ATOM     13  C   UNL     1       3.862   2.539  17.370  0.00  0.00    +0.000 C 
BRANCH  13  14
ATOM     14  C   UNL     1       3.888   2.458  18.852  0.00  0.00    +0.000 A 
ATOM     15  N   UNL     1       4.937   2.259  19.644  0.00  0.00    +0.000 NA
ATOM     16  N   UNL     1       4.516   2.319  20.969  0.00  0.00    +0.000 NA
ATOM     17  C   UNL     1       3.229   2.542  20.935  0.00  0.00    +0.000 A 
ATOM     18  N   UNL     1       2.808   2.607  19.649  0.00  0.00    +0.000 N 
ATOM     19  C   UNL     1       1.390   2.839  19.527  0.00  0.00    +0.000 C 
ATOM     20  C   UNL     1       1.012   3.284  20.958  0.00  0.00    +0.000 C 
ATOM     21  C   UNL     1       2.128   2.741  21.889  0.00  0.00    +0.000 C 
ENDBRANCH  13  14
ENDBRANCH   3  13
TORSDOF 5
ENDMDL
MODEL 2
REMARK VINA RESULT:      -7.1      1.879      3.377
REMARK  Name = 
REMARK  6 active torsions:
REMARK  status: ('A' for Active; 'I' for Inactive)
REMARK    1  A    between atoms: C_1  and  C_2
REMARK    2  A    between atoms: C_2  and  C_3
REMARK    3  A    between atoms: C_3  and  C_4
REMARK    4  A    between atoms: C_3  and  N_16
REMARK    5  A    between atoms: N_6  and  C_7
REMARK    6  A    between atoms: C_7  and  C_8
REMARK                            x       y       z     vdW  Elec       q    Type
REMARK                         _______ _______ _______ _____ _____    ______ ____
ROOT
ATOM      1  C   UNL     1       4.986   5.840  17.151  0.00  0.00    +0.000 C 
ATOM      2  O   UNL     1       4.699   7.022  16.953  0.00  0.00    +0.000 OA
ATOM      3  N   UNL     1       4.036   4.912  17.505  0.00  0.00    +0.000 N 
ATOM      4  H   UNL     1       4.287   3.948  17.708  0.00  0.00    +0.000 HD
ENDROOT
BRANCH   1   5
ATOM      5  C   UNL     1       6.413   5.318  16.985  0.00  0.00    +0.000 C 
BRANCH   5   6
ATOM      6  N   UNL     1       6.612   4.911  15.591  0.00  0.00    +0.000 N 
ATOM      7  C   UNL     1       5.939   3.937  14.899  0.00  0.00    +0.000 A 
ATOM      8  C   UNL     1       6.438   3.957  13.617  0.00  0.00    +0.000 A 
ATOM      9  C   UNL     1       7.401   4.981  13.630  0.00  0.00    +0.000 A 
ATOM     10  N   UNL     1       7.505   5.572  14.823  0.00  0.00    +0.000 NA
ENDBRANCH   5   6
BRANCH   5  12
ATOM     11  C   UNL     1       7.872   6.314  18.863  0.00  0.00    +0.000 C 
ATOM     12  C   UNL     1       7.489   6.345  17.390  0.00  0.00    +0.000 C 
ENDBRANCH   5  12
ENDBRANCH   1   5
BRANCH   3  13
ATOM     13  C   UNL     1       2.643   5.283  17.664  0.00  0.00    +0.000 C 
BRANCH  13  14
ATOM     14  C   UNL     1       1.900   4.200  18.355  0.00  0.00    +0.000 A 
ATOM     15  N   UNL     1       1.152   3.244  17.813  0.00  0.00    +0.000 NA
ATOM     16  N   UNL     1       0.696   2.405  18.824  0.00  0.00    +0.000 NA
ATOM     17  C   UNL     1       1.172   2.884  19.942  0.00  0.00    +0.000 A 
ATOM     18  N   UNL     1       1.895   4.003  19.690  0.00  0.00    +0.000 N 
ATOM     19  C   UNL     1       2.447   4.601  20.880  0.00  0.00    +0.000 C 
ATOM     20  C   UNL     1       2.268   3.474  21.922  0.00  0.00    +0.000 C 
ATOM     21  C   UNL     1       1.145   2.554  21.375  0.00  0.00    +0.000 C 
ENDBRANCH  13  14
ENDBRANCH   3  13
TORSDOF 5
ENDMDL
MODEL 3
REMARK VINA RESULT:      -7.1      1.976      3.421
REMARK  Name = 
REMARK  6 active torsions:
REMARK  status: ('A' for Active; 'I' for Inactive)
REMARK    1  A    between atoms: C_1  and  C_2
REMARK    2  A    between atoms: C_2  and  C_3
REMARK    3  A    between atoms: C_3  and  C_4
REMARK    4  A    between atoms: C_3  and  N_16
REMARK    5  A    between atoms: N_6  and  C_7
REMARK    6  A    between atoms: C_7  and  C_8
REMARK                            x       y       z     vdW  Elec       q    Type
REMARK                         _______ _______ _______ _____ _____    ______ ____
ROOT
ATOM      1  C   UNL     1       5.321   5.734  18.278  0.00  0.00    +0.000 C 
ATOM      2  O   UNL     1       5.236   5.543  19.493  0.00  0.00    +0.000 OA
ATOM      3  N   UNL     1       4.239   6.129  17.527  0.00  0.00    +0.000 N 
ATOM      4  H   UNL     1       4.308   6.242  16.519  0.00  0.00    +0.000 HD
ENDROOT
BRANCH   1   5
ATOM      5  C   UNL     1       6.644   5.576  17.528  0.00  0.00    +0.000 C 
BRANCH   5   6
ATOM      6  N   UNL     1       6.389   4.900  16.252  0.00  0.00    +0.000 N 
ATOM      7  C   UNL     1       6.996   5.136  15.044  0.00  0.00    +0.000 A 
ATOM      8  C   UNL     1       6.466   4.225  14.160  0.00  0.00    +0.000 A 
ATOM      9  C   UNL     1       5.555   3.478  14.927  0.00  0.00    +0.000 A 
ATOM     10  N   UNL     1       5.511   3.875  16.201  0.00  0.00    +0.000 NA
ENDBRANCH   5   6
BRANCH   5  12
ATOM     11  C   UNL     1       8.169   7.434  18.461  0.00  0.00    +0.000 C 
ATOM     12  C   UNL     1       7.365   6.915  17.276  0.00  0.00    +0.000 C 
ENDBRANCH   5  12
ENDBRANCH   1   5
BRANCH   3  13
ATOM     13  C   UNL     1       2.939   6.339  18.133  0.00  0.00    +0.000 C 
BRANCH  13  14
ATOM     14  C   UNL     1       2.251   5.040  18.333  0.00  0.00    +0.000 A 
ATOM     15  N   UNL     1       1.785   4.207  17.408  0.00  0.00    +0.000 NA
ATOM     16  N   UNL     1       1.272   3.078  18.038  0.00  0.00    +0.000 NA
ATOM     17  C   UNL     1       1.435   3.267  19.320  0.00  0.00    +0.000 A 
ATOM     18  N   UNL     1       2.010   4.475  19.536  0.00  0.00    +0.000 N 
ATOM     19  C   UNL     1       2.213   4.765  20.934  0.00  0.00    +0.000 C 
ATOM     20  C   UNL     1       2.007   3.378  21.584  0.00  0.00    +0.000 C 
ATOM     21  C   UNL     1       1.174   2.547  20.575  0.00  0.00    +0.000 C 
ENDBRANCH  13  14
ENDBRANCH   3  13
TORSDOF 5
ENDMDL
MODEL 4
REMARK VINA RESULT:      -7.0      1.556      3.158
REMARK  Name = 
REMARK  6 active torsions:
REMARK  status: ('A' for Active; 'I' for Inactive)
REMARK    1  A    between atoms: C_1  and  C_2
REMARK    2  A    between atoms: C_2  and  C_3
REMARK    3  A    between atoms: C_3  and  C_4
REMARK    4  A    between atoms: C_3  and  N_16
REMARK    5  A    between atoms: N_6  and  C_7
REMARK    6  A    between atoms: C_7  and  C_8
REMARK                            x       y       z     vdW  Elec       q    Type
REMARK                         _______ _______ _______ _____ _____    ______ ____
ROOT
ATOM      1  C   UNL     1       5.902   5.266  18.397  0.00  0.00    +0.000 C 
ATOM      2  O   UNL     1       4.996   5.916  18.919  0.00  0.00    +0.000 OA
ATOM      3  N   UNL     1       6.100   3.935  18.683  0.00  0.00    +0.000 N 
ATOM      4  H   UNL     1       6.876   3.417  18.281  0.00  0.00    +0.000 HD
ENDROOT
BRANCH   1   5
ATOM      5  C   UNL     1       6.850   5.884  17.368  0.00  0.00    +0.000 C 
BRANCH   5   6
ATOM      6  N   UNL     1       6.584   5.285  16.056  0.00  0.00    +0.000 N 
ATOM      7  C   UNL     1       5.407   4.744  15.606  0.00  0.00    +0.000 A 
ATOM      8  C   UNL     1       5.630   4.359  14.305  0.00  0.00    +0.000 A 
ATOM      9  C   UNL     1       6.967   4.713  14.056  0.00  0.00    +0.000 A 
ATOM     10  N   UNL     1       7.550   5.286  15.113  0.00  0.00    +0.000 NA
ENDBRANCH   5   6
BRANCH   5  12
ATOM     11  C   UNL     1       7.976   8.176  17.725  0.00  0.00    +0.000 C 
ATOM     12  C   UNL     1       6.733   7.418  17.276  0.00  0.00    +0.000 C 
ENDBRANCH   5  12
ENDBRANCH   1   5
BRANCH   3  13
ATOM     13  C   UNL     1       5.247   3.233  19.622  0.00  0.00    +0.000 C 
BRANCH  13  14
ATOM     14  C   UNL     1       3.975   2.842  18.964  0.00  0.00    +0.000 A 
ATOM     15  N   UNL     1       3.810   2.099  17.874  0.00  0.00    +0.000 NA
ATOM     16  N   UNL     1       2.448   1.930  17.648  0.00  0.00    +0.000 NA
ATOM     17  C   UNL     1       1.835   2.582  18.600  0.00  0.00    +0.000 A 
ATOM     18  N   UNL     1       2.745   3.175  19.410  0.00  0.00    +0.000 N 
ATOM     19  C   UNL     1       2.144   3.928  20.483  0.00  0.00    +0.000 C 
ATOM     20  C   UNL     1       0.684   3.423  20.453  0.00  0.00    +0.000 C 
ATOM     21  C   UNL     1       0.454   2.846  19.031  0.00  0.00    +0.000 C 
ENDBRANCH  13  14
ENDBRANCH   3  13
TORSDOF 5
ENDMDL
MODEL 5
REMARK VINA RESULT:      -7.0      1.721      3.253
REMARK  Name = 
REMARK  6 active torsions:
REMARK  status: ('A' for Active; 'I' for Inactive)
REMARK    1  A    between atoms: C_1  and  C_2
REMARK    2  A    between atoms: C_2  and  C_3
REMARK    3  A    between atoms: C_3  and  C_4
REMARK    4  A    between atoms: C_3  and  N_16
REMARK    5  A    between atoms: N_6  and  C_7
REMARK    6  A    between atoms: C_7  and  C_8
REMARK                            x       y       z     vdW  Elec       q    Type
REMARK                         _______ _______ _______ _____ _____    ______ ____
ROOT
ATOM      1  C   UNL     1       6.829   5.335  18.667  0.00  0.00    +0.000 C 
ATOM      2  O   UNL     1       7.129   5.577  19.838  0.00  0.00    +0.000 OA
ATOM      3  N   UNL     1       5.941   4.339  18.336  0.00  0.00    +0.000 N 
ATOM      4  H   UNL     1       5.732   4.117  17.366  0.00  0.00    +0.000 HD
ENDROOT
BRANCH   1   5
ATOM      5  C   UNL     1       7.399   6.147  17.504  0.00  0.00    +0.000 C 
BRANCH   5   6
ATOM      6  N   UNL     1       6.853   5.626  16.247  0.00  0.00    +0.000 N 
ATOM      7  C   UNL     1       7.372   4.632  15.457  0.00  0.00    +0.000 A 
ATOM      8  C   UNL     1       6.487   4.460  14.419  0.00  0.00    +0.000 A 
ATOM      9  C   UNL     1       5.462   5.389  14.671  0.00  0.00    +0.000 A 
ATOM     10  N   UNL     1       5.673   6.094  15.786  0.00  0.00    +0.000 NA
ENDBRANCH   5   6
BRANCH   5  12
ATOM     11  C   UNL     1       8.294   8.498  18.069  0.00  0.00    +0.000 C 
ATOM     12  C   UNL     1       7.109   7.657  17.614  0.00  0.00    +0.000 C 
ENDBRANCH   5  12
ENDBRANCH   1   5
BRANCH   3  13
ATOM     13  C   UNL     1       5.313   3.521  19.355  0.00  0.00    +0.000 C 
BRANCH  13  14
ATOM     14  C   UNL     1       4.009   3.006  18.868  0.00  0.00    +0.000 A 
ATOM     15  N   UNL     1       3.777   2.230  17.814  0.00  0.00    +0.000 NA
ATOM     16  N   UNL     1       2.418   1.937  17.765  0.00  0.00    +0.000 NA
ATOM     17  C   UNL     1       1.872   2.551  18.781  0.00  0.00    +0.000 A 
ATOM     18  N   UNL     1       2.820   3.238  19.464  0.00  0.00    +0.000 N 
ATOM     19  C   UNL     1       2.294   3.957  20.598  0.00  0.00    +0.000 C 
ATOM     20  C   UNL     1       0.893   3.324  20.758  0.00  0.00    +0.000 C 
ATOM     21  C   UNL     1       0.539   2.702  19.382  0.00  0.00    +0.000 C 
ENDBRANCH  13  14
ENDBRANCH   3  13
TORSDOF 5
ENDMDL
MODEL 6
REMARK VINA RESULT:      -7.0      2.207      6.570
REMARK  Name = 
REMARK  6 active torsions:
REMARK  status: ('A' for Active; 'I' for Inactive)
REMARK    1  A    between atoms: C_1  and  C_2
REMARK    2  A    between atoms: C_2  and  C_3
REMARK    3  A    between atoms: C_3  and  C_4
REMARK    4  A    between atoms: C_3  and  N_16
REMARK    5  A    between atoms: N_6  and  C_7
REMARK    6  A    between atoms: C_7  and  C_8
REMARK                            x       y       z     vdW  Elec       q    Type
REMARK                         _______ _______ _______ _____ _____    ______ ____
ROOT
ATOM      1  C   UNL     1       2.919   3.976  17.476  0.00  0.00    +0.000 C 
ATOM      2  O   UNL     1       2.250   3.201  16.789  0.00  0.00    +0.000 OA
ATOM      3  N   UNL     1       4.272   4.133  17.286  0.00  0.00    +0.000 N 
ATOM      4  H   UNL     1       4.823   4.742  17.885  0.00  0.00    +0.000 HD
ENDROOT
BRANCH   1   5
ATOM      5  C   UNL     1       2.284   4.842  18.565  0.00  0.00    +0.000 C 
BRANCH   5   6
ATOM      6  N   UNL     1       2.148   4.045  19.788  0.00  0.00    +0.000 N 
ATOM      7  C   UNL     1       1.019   3.859  20.544  0.00  0.00    +0.000 A 
ATOM      8  C   UNL     1       1.369   2.997  21.557  0.00  0.00    +0.000 A 
ATOM      9  C   UNL     1       2.726   2.712  21.325  0.00  0.00    +0.000 A 
ATOM     10  N   UNL     1       3.203   3.337  20.245  0.00  0.00    +0.000 NA
ENDBRANCH   5   6
BRANCH   5  12
ATOM     11  C   UNL     1       2.314   7.177  19.657  0.00  0.00    +0.000 C 
ATOM     12  C   UNL     1       3.081   6.127  18.864  0.00  0.00    +0.000 C 
ENDBRANCH   5  12
ENDBRANCH   1   5
BRANCH   3  13
ATOM     13  C   UNL     1       4.979   3.387  16.264  0.00  0.00    +0.000 C 
BRANCH  13  14
ATOM     14  C   UNL     1       5.989   4.253  15.604  0.00  0.00    +0.000 A 
ATOM     15  N   UNL     1       6.795   5.147  16.167  0.00  0.00    +0.000 NA
ATOM     16  N   UNL     1       7.624   5.683  15.187  0.00  0.00    +0.000 NA
ATOM     17  C   UNL     1       7.286   5.105  14.065  0.00  0.00    +0.000 A 
ATOM     18  N   UNL     1       6.267   4.240  14.283  0.00  0.00    +0.000 N 
ATOM     19  C   UNL     1       5.827   3.568  13.086  0.00  0.00    +0.000 C 
ATOM     20  C   UNL     1       6.981   3.870  12.103  0.00  0.00    +0.000 C 
ATOM     21  C   UNL     1       7.698   5.130  12.654  0.00  0.00    +0.000 C 
ENDBRANCH  13  14
ENDBRANCH   3  13
TORSDOF 5
ENDMDL
MODEL 7
REMARK VINA RESULT:      -7.0      1.984      3.528
REMARK  Name = 
REMARK  6 active torsions:
REMARK  status: ('A' for Active; 'I' for Inactive)
REMARK    1  A    between atoms: C_1  and  C_2
REMARK    2  A    between atoms: C_2  and  C_3
REMARK    3  A    between atoms: C_3  and  C_4
REMARK    4  A    between atoms: C_3  and  N_16
REMARK    5  A    between atoms: N_6  and  C_7
REMARK    6  A    between atoms: C_7  and  C_8
REMARK                            x       y       z     vdW  Elec       q    Type
REMARK                         _______ _______ _______ _____ _____    ______ ____
ROOT
ATOM      1  C   UNL     1       6.618   5.347  18.098  0.00  0.00    +0.000 C 
ATOM      2  O   UNL     1       7.084   4.449  18.803  0.00  0.00    +0.000 OA
ATOM      3  N   UNL     1       5.386   5.903  18.351  0.00  0.00    +0.000 N 
ATOM      4  H   UNL     1       4.991   6.613  17.740  0.00  0.00    +0.000 HD
ENDROOT
BRANCH   1   5
ATOM      5  C   UNL     1       7.392   5.927  16.915  0.00  0.00    +0.000 C 
BRANCH   5   6
ATOM      6  N   UNL     1       6.960   5.253  15.686  0.00  0.00    +0.000 N 
ATOM      7  C   UNL     1       5.818   4.518  15.492  0.00  0.00    +0.000 A 
ATOM      8  C   UNL     1       5.825   4.132  14.173  0.00  0.00    +0.000 A 
ATOM      9  C   UNL     1       7.006   4.686  13.649  0.00  0.00    +0.000 A 
ATOM     10  N   UNL     1       7.696   5.377  14.561  0.00  0.00    +0.000 NA
ENDBRANCH   5   6
BRANCH   5  12
ATOM     11  C   UNL     1       7.973   8.279  17.796  0.00  0.00    +0.000 C 
ATOM     12  C   UNL     1       7.221   7.451  16.762  0.00  0.00    +0.000 C 
ENDBRANCH   5  12
ENDBRANCH   1   5
BRANCH   3  13
ATOM     13  C   UNL     1       4.572   5.455  19.464  0.00  0.00    +0.000 C 
BRANCH  13  14
ATOM     14  C   UNL     1       3.374   4.735  18.965  0.00  0.00    +0.000 A 
ATOM     15  N   UNL     1       2.995   4.550  17.705  0.00  0.00    +0.000 NA
ATOM     16  N   UNL     1       1.847   3.764  17.693  0.00  0.00    +0.000 NA
ATOM     17  C   UNL     1       1.564   3.509  18.943  0.00  0.00    +0.000 A 
ATOM     18  N   UNL     1       2.469   4.113  19.750  0.00  0.00    +0.000 N 
ATOM     19  C   UNL     1       2.217   3.888  21.152  0.00  0.00    +0.000 C 
ATOM     20  C   UNL     1       1.201   2.725  21.116  0.00  0.00    +0.000 C 
ATOM     21  C   UNL     1       0.555   2.760  19.706  0.00  0.00    +0.000 C 
ENDBRANCH  13  14
ENDBRANCH   3  13
TORSDOF 5
ENDMDL
MODEL 8
REMARK VINA RESULT:      -6.9      2.569      6.634
REMARK  Name = 
REMARK  6 active torsions:
REMARK  status: ('A' for Active; 'I' for Inactive)
REMARK    1  A    between atoms: C_1  and  C_2
REMARK    2  A    between atoms: C_2  and  C_3
REMARK    3  A    between atoms: C_3  and  C_4
REMARK    4  A    between atoms: C_3  and  N_16
REMARK    5  A    between atoms: N_6  and  C_7
REMARK    6  A    between atoms: C_7  and  C_8
REMARK                            x       y       z     vdW  Elec       q    Type
REMARK                         _______ _______ _______ _____ _____    ______ ____
ROOT
ATOM      1  C   UNL     1       4.393   5.286  17.924  0.00  0.00    +0.000 C 
ATOM      2  O   UNL     1       5.235   5.522  18.793  0.00  0.00    +0.000 OA
ATOM      3  N   UNL     1       4.678   4.500  16.832  0.00  0.00    +0.000 N 
ATOM      4  H   UNL     1       3.991   4.346  16.098  0.00  0.00    +0.000 HD
ENDROOT
BRANCH   1   5
ATOM      5  C   UNL     1       2.965   5.824  18.016  0.00  0.00    +0.000 C 
BRANCH   5   6
ATOM      6  N   UNL     1       2.144   4.867  18.765  0.00  0.00    +0.000 N 
ATOM      7  C   UNL     1       1.758   4.944  20.078  0.00  0.00    +0.000 A 
ATOM      8  C   UNL     1       0.960   3.848  20.312  0.00  0.00    +0.000 A 
ATOM      9  C   UNL     1       0.917   3.173  19.079  0.00  0.00    +0.000 A 
ATOM     10  N   UNL     1       1.626   3.793  18.132  0.00  0.00    +0.000 NA
ENDBRANCH   5   6
BRANCH   5  12
ATOM     11  C   UNL     1       2.018   8.220  17.921  0.00  0.00    +0.000 C 
ATOM     12  C   UNL     1       2.879   7.215  18.675  0.00  0.00    +0.000 C 
ENDBRANCH   5  12
ENDBRANCH   1   5
BRANCH   3  13
ATOM     13  C   UNL     1       5.990   3.910  16.650  0.00  0.00    +0.000 C 
BRANCH  13  14
ATOM     14  C   UNL     1       6.666   4.518  15.477  0.00  0.00    +0.000 A 
ATOM     15  N   UNL     1       7.615   5.449  15.470  0.00  0.00    +0.000 NA
ATOM     16  N   UNL     1       8.008   5.678  14.155  0.00  0.00    +0.000 NA
ATOM     17  C   UNL     1       7.279   4.889  13.411  0.00  0.00    +0.000 A 
ATOM     18  N   UNL     1       6.427   4.181  14.192  0.00  0.00    +0.000 N 
ATOM     19  C   UNL     1       5.576   3.291  13.441  0.00  0.00    +0.000 C 
ATOM     20  C   UNL     1       6.272   3.266  12.062  0.00  0.00    +0.000 C 
ATOM     21  C   UNL     1       7.129   4.557  11.987  0.00  0.00    +0.000 C 
ENDBRANCH  13  14
ENDBRANCH   3  13
TORSDOF 5
ENDMDL
MODEL 9
REMARK VINA RESULT:      -6.7      1.955      3.352
REMARK  Name = 
REMARK  6 active torsions:
REMARK  status: ('A' for Active; 'I' for Inactive)
REMARK    1  A    between atoms: C_1  and  C_2
REMARK    2  A    between atoms: C_2  and  C_3
REMARK    3  A    between atoms: C_3  and  C_4
REMARK    4  A    between atoms: C_3  and  N_16
REMARK    5  A    between atoms: N_6  and  C_7
REMARK    6  A    between atoms: C_7  and  C_8
REMARK                            x       y       z     vdW  Elec       q    Type
REMARK                         _______ _______ _______ _____ _____    ______ ____
ROOT
ATOM      1  C   UNL     1       6.734   5.307  18.634  0.00  0.00    +0.000 C 
ATOM      2  O   UNL     1       7.085   5.503  19.799  0.00  0.00    +0.000 OA
ATOM      3  N   UNL     1       5.789   4.363  18.309  0.00  0.00    +0.000 N 
ATOM      4  H   UNL     1       5.537   4.178  17.342  0.00  0.00    +0.000 HD
ENDROOT
BRANCH   1   5
ATOM      5  C   UNL     1       7.302   6.123  17.473  0.00  0.00    +0.000 C 
BRANCH   5   6
ATOM      6  N   UNL     1       6.794   5.574  16.212  0.00  0.00    +0.000 N 
ATOM      7  C   UNL     1       7.312   4.536  15.482  0.00  0.00    +0.000 A 
ATOM      8  C   UNL     1       6.469   4.355  14.411  0.00  0.00    +0.000 A 
ATOM      9  C   UNL     1       5.466   5.325  14.584  0.00  0.00    +0.000 A 
ATOM     10  N   UNL     1       5.651   6.063  15.682  0.00  0.00    +0.000 NA
ENDBRANCH   5   6
BRANCH   5  12
ATOM     11  C   UNL     1       8.158   8.522  17.877  0.00  0.00    +0.000 C 
ATOM     12  C   UNL     1       6.967   7.625  17.562  0.00  0.00    +0.000 C 
ENDBRANCH   5  12
ENDBRANCH   1   5
BRANCH   3  13
ATOM     13  C   UNL     1       5.158   3.547  19.328  0.00  0.00    +0.000 C 
BRANCH  13  14
ATOM     14  C   UNL     1       3.793   4.052  19.616  0.00  0.00    +0.000 A 
ATOM     15  N   UNL     1       3.435   5.272  20.006  0.00  0.00    +0.000 NA
ATOM     16  N   UNL     1       2.048   5.325  20.097  0.00  0.00    +0.000 NA
ATOM     17  C   UNL     1       1.614   4.136  19.771  0.00  0.00    +0.000 A 
ATOM     18  N   UNL     1       2.663   3.324  19.495  0.00  0.00    +0.000 N 
ATOM     19  C   UNL     1       2.265   1.985  19.137  0.00  0.00    +0.000 C 
ATOM     20  C   UNL     1       0.753   2.159  18.867  0.00  0.00    +0.000 C 
ATOM     21  C   UNL     1       0.325   3.445  19.620  0.00  0.00    +0.000 C 
ENDBRANCH  13  14
ENDBRANCH   3  13
TORSDOF 5
ENDMDL
