MODEL 1
REMARK VINA RESULT:      -7.1      0.000      0.000
REMARK  Name = 
REMARK  5 active torsions:
REMARK  status: ('A' for Active; 'I' for Inactive)
REMARK    1  A    between atoms: C_1  and  C_2
REMARK    2  A    between atoms: C_4  and  C_5
REMARK    3  A    between atoms: C_6  and  C_7
REMARK    4  A    between atoms: C_9  and  N_10
REMARK    5  A    between atoms: N_10  and  C_11
REMARK                            x       y       z     vdW  Elec       q    Type
REMARK                         _______ _______ _______ _____ _____    ______ ____
ROOT
ATOM      1  N   UNL     1       5.501   4.945  18.436  0.00  0.00    +0.000 N 
ATOM      2  H   UNL     1       6.354   4.858  18.973  0.00  0.00    +0.000 HD
ENDROOT
BRANCH   1   3
ATOM      3  C   UNL     1       5.644   4.677  17.064  0.00  0.00    +0.000 A 
ATOM      4  C   UNL     1       4.688   3.917  16.374  0.00  0.00    +0.000 A 
ATOM      5  C   UNL     1       4.836   3.670  15.004  0.00  0.00    +0.000 A 
ATOM      6  C   UNL     1       5.946   4.165  14.321  0.00  0.00    +0.000 A 
ATOM      7  C   UNL     1       6.901   4.919  15.002  0.00  0.00    +0.000 A 
ATOM      8  C   UNL     1       6.757   5.153  16.363  0.00  0.00    +0.000 A 
ATOM      9  O   UNL     1       8.009   5.463  14.407  0.00  0.00    +0.000 OA
ATOM     10  C   UNL     1       7.889   5.465  12.983  0.00  0.00    +0.000 C 
ATOM     11  C   UNL     1       7.348   4.138  12.477  0.00  0.00    +0.000 C 
ATOM     12  O   UNL     1       6.030   3.889  12.981  0.00  0.00    +0.000 OA
ENDBRANCH   1   3
BRANCH   1  19
ATOM     13  C   UNL     1       1.933   7.946  19.466  0.00  0.00    +0.000 C 
ATOM     14  C   UNL     1       2.517   6.578  19.640  0.00  0.00    +0.000 A 
ATOM     15  C   UNL     1       1.876   5.609  20.393  0.00  0.00    +0.000 A 
ATOM     16  C   UNL     1       2.470   4.350  20.523  0.00  0.00    +0.000 A 
ATOM     17  C   UNL     1       1.778   3.286  21.330  0.00  0.00    +0.000 C 
ATOM     18  C   UNL     1       3.704   4.113  19.883  0.00  0.00    +0.000 A 
ATOM     19  C   UNL     1       4.298   5.136  19.139  0.00  0.00    +0.000 A 
ATOM     20  N   UNL     1       3.694   6.345  19.024  0.00  0.00    +0.000 NA
BRANCH  18  21
ATOM     21  C   UNL     1       4.343   2.834  19.986  0.00  0.00    +0.000 C 
ATOM     22  N   UNL     1       4.854   1.803  20.090  0.00  0.00    +0.000 NA
ENDBRANCH  18  21
ENDBRANCH   1  19
TORSDOF 3
ENDMDL
MODEL 2
REMARK VINA RESULT:      -7.1      4.099      7.290
REMARK  Name = 
REMARK  5 active torsions:
REMARK  status: ('A' for Active; 'I' for Inactive)
REMARK    1  A    between atoms: C_1  and  C_2
REMARK    2  A    between atoms: C_4  and  C_5
REMARK    3  A    between atoms: C_6  and  C_7
REMARK    4  A    between atoms: C_9  and  N_10
REMARK    5  A    between atoms: N_10  and  C_11
REMARK                            x       y       z     vdW  Elec       q    Type
REMARK                         _______ _______ _______ _____ _____    ______ ____
ROOT
ATOM      1  N   UNL     1       2.933   6.561  19.709  0.00  0.00    +0.000 N 
ATOM      2  H   UNL     1       3.611   6.652  20.454  0.00  0.00    +0.000 HD
ENDROOT
BRANCH   1   3
ATOM      3  C   UNL     1       2.189   7.725  19.450  0.00  0.00    +0.000 A 
ATOM      4  C   UNL     1       2.088   8.243  18.152  0.00  0.00    +0.000 A 
ATOM      5  C   UNL     1       1.331   9.395  17.906  0.00  0.00    +0.000 A 
ATOM      6  C   UNL     1       0.688  10.045  18.958  0.00  0.00    +0.000 A 
ATOM      7  C   UNL     1       0.787   9.537  20.253  0.00  0.00    +0.000 A 
ATOM      8  C   UNL     1       1.546   8.400  20.495  0.00  0.00    +0.000 A 
ATOM      9  O   UNL     1       0.170  10.096  21.341  0.00  0.00    +0.000 OA
ATOM     10  C   UNL     1      -0.841  11.026  20.948  0.00  0.00    +0.000 C 
ATOM     11  C   UNL     1      -0.350  11.925  19.825  0.00  0.00    +0.000 C 
ATOM     12  O   UNL     1      -0.038  11.167  18.650  0.00  0.00    +0.000 OA
ENDBRANCH   1   3
BRANCH   1  19
ATOM     13  C   UNL     1       0.775   2.415  18.733  0.00  0.00    +0.000 C 
ATOM     14  C   UNL     1       1.899   3.354  18.419  0.00  0.00    +0.000 A 
ATOM     15  C   UNL     1       2.823   3.070  17.427  0.00  0.00    +0.000 A 
ATOM     16  C   UNL     1       3.853   3.981  17.180  0.00  0.00    +0.000 A 
ATOM     17  C   UNL     1       4.856   3.689  16.098  0.00  0.00    +0.000 C 
ATOM     18  C   UNL     1       3.916   5.159  17.954  0.00  0.00    +0.000 A 
ATOM     19  C   UNL     1       2.953   5.383  18.941  0.00  0.00    +0.000 A 
ATOM     20  N   UNL     1       1.959   4.484  19.153  0.00  0.00    +0.000 NA
BRANCH  18  21
ATOM     21  C   UNL     1       4.953   6.123  17.728  0.00  0.00    +0.000 C 
ATOM     22  N   UNL     1       5.774   6.912  17.537  0.00  0.00    +0.000 NA
ENDBRANCH  18  21
ENDBRANCH   1  19
TORSDOF 3
ENDMDL
MODEL 3
REMARK VINA RESULT:      -7.1      4.141      7.237
REMARK  Name = 
REMARK  5 active torsions:
REMARK  status: ('A' for Active; 'I' for Inactive)
REMARK    1  A    between atoms: C_1  and  C_2
REMARK    2  A    between atoms: C_4  and  C_5
REMARK    3  A    between atoms: C_6  and  C_7
REMARK    4  A    between atoms: C_9  and  N_10
REMARK    5  A    between atoms: N_10  and  C_11
REMARK                            x       y       z     vdW  Elec       q    Type
REMARK                         _______ _______ _______ _____ _____    ______ ____
ROOT
ATOM      1  N   UNL     1       2.837   6.644  19.708  0.00  0.00    +0.000 N 
ATOM      2  H   UNL     1       3.242   6.562  20.632  0.00  0.00    +0.000 HD
ENDROOT
BRANCH   1   3
ATOM      3  C   UNL     1       2.097   7.821  19.497  0.00  0.00    +0.000 A 
ATOM      4  C   UNL     1       1.951   8.360  18.212  0.00  0.00    +0.000 A 
ATOM      5  C   UNL     1       1.198   9.524  18.014  0.00  0.00    +0.000 A 
ATOM      6  C   UNL     1       0.604  10.164  19.101  0.00  0.00    +0.000 A 
ATOM      7  C   UNL     1       0.748   9.633  20.382  0.00  0.00    +0.000 A 
ATOM      8  C   UNL     1       1.503   8.485  20.576  0.00  0.00    +0.000 A 
ATOM      9  O   UNL     1       0.180  10.181  21.502  0.00  0.00    +0.000 OA
ATOM     10  C   UNL     1      -0.836  11.128  21.164  0.00  0.00    +0.000 C 
ATOM     11  C   UNL     1      -0.379  12.040  20.037  0.00  0.00    +0.000 C 
ATOM     12  O   UNL     1      -0.121  11.298  18.839  0.00  0.00    +0.000 OA
ENDBRANCH   1   3
BRANCH   1  19
ATOM     13  C   UNL     1       5.667   5.656  15.992  0.00  0.00    +0.000 C 
ATOM     14  C   UNL     1       4.606   5.170  16.930  0.00  0.00    +0.000 A 
ATOM     15  C   UNL     1       4.100   3.884  16.845  0.00  0.00    +0.000 A 
ATOM     16  C   UNL     1       3.108   3.486  17.746  0.00  0.00    +0.000 A 
ATOM     17  C   UNL     1       2.558   2.088  17.671  0.00  0.00    +0.000 C 
ATOM     18  C   UNL     1       2.657   4.411  18.710  0.00  0.00    +0.000 A 
ATOM     19  C   UNL     1       3.209   5.695  18.739  0.00  0.00    +0.000 A 
ATOM     20  N   UNL     1       4.176   6.051  17.858  0.00  0.00    +0.000 NA
BRANCH  18  21
ATOM     21  C   UNL     1       1.646   4.041  19.656  0.00  0.00    +0.000 C 
ATOM     22  N   UNL     1       0.840   3.724  20.421  0.00  0.00    +0.000 NA
ENDBRANCH  18  21
ENDBRANCH   1  19
TORSDOF 3
ENDMDL
MODEL 4
REMARK VINA RESULT:      -7.0      4.042      7.211
REMARK  Name = 
REMARK  5 active torsions:
REMARK  status: ('A' for Active; 'I' for Inactive)
REMARK    1  A    between atoms: C_1  and  C_2
REMARK    2  A    between atoms: C_4  and  C_5
REMARK    3  A    between atoms: C_6  and  C_7
REMARK    4  A    between atoms: C_9  and  N_10
REMARK    5  A    between atoms: N_10  and  C_11
REMARK                            x       y       z     vdW  Elec       q    Type
REMARK                         _______ _______ _______ _____ _____    ______ ____
ROOT
ATOM      1  N   UNL     1       3.289   6.086  18.827  0.00  0.00    +0.000 N 
ATOM      2  H   UNL     1       3.093   5.366  19.511  0.00  0.00    +0.000 HD
ENDROOT
BRANCH   1   3
ATOM      3  C   UNL     1       2.522   7.255  18.974  0.00  0.00    +0.000 A 
ATOM      4  C   UNL     1       2.280   8.100  17.882  0.00  0.00    +0.000 A 
ATOM      5  C   UNL     1       1.502   9.254  18.039  0.00  0.00    +0.000 A 
ATOM      6  C   UNL     1       0.980   9.579  19.290  0.00  0.00    +0.000 A 
ATOM      7  C   UNL     1       1.220   8.744  20.381  0.00  0.00    +0.000 A 
ATOM      8  C   UNL     1       2.000   7.606  20.224  0.00  0.00    +0.000 A 
ATOM      9  O   UNL     1       0.728   8.972  21.639  0.00  0.00    +0.000 OA
ATOM     10  C   UNL     1      -0.319   9.944  21.621  0.00  0.00    +0.000 C 
ATOM     11  C   UNL     1       0.046  11.126  20.738  0.00  0.00    +0.000 C 
ATOM     12  O   UNL     1       0.227  10.721  19.376  0.00  0.00    +0.000 OA
ENDBRANCH   1   3
BRANCH   1  19
ATOM     13  C   UNL     1       7.591   7.653  17.476  0.00  0.00    +0.000 C 
ATOM     14  C   UNL     1       6.515   6.626  17.304  0.00  0.00    +0.000 A 
ATOM     15  C   UNL     1       6.649   5.581  16.406  0.00  0.00    +0.000 A 
ATOM     16  C   UNL     1       5.610   4.654  16.286  0.00  0.00    +0.000 A 
ATOM     17  C   UNL     1       5.749   3.508  15.322  0.00  0.00    +0.000 C 
ATOM     18  C   UNL     1       4.459   4.818  17.084  0.00  0.00    +0.000 A 
ATOM     19  C   UNL     1       4.387   5.897  17.969  0.00  0.00    +0.000 A 
ATOM     20  N   UNL     1       5.415   6.777  18.071  0.00  0.00    +0.000 NA
BRANCH  18  21
ATOM     21  C   UNL     1       3.374   3.886  16.997  0.00  0.00    +0.000 C 
ATOM     22  N   UNL     1       2.505   3.126  16.944  0.00  0.00    +0.000 NA
ENDBRANCH  18  21
ENDBRANCH   1  19
TORSDOF 3
ENDMDL
MODEL 5
REMARK VINA RESULT:      -7.0      3.831      6.137
REMARK  Name = 
REMARK  5 active torsions:
REMARK  status: ('A' for Active; 'I' for Inactive)
REMARK    1  A    between atoms: C_1  and  C_2
REMARK    2  A    between atoms: C_4  and  C_5
REMARK    3  A    between atoms: C_6  and  C_7
REMARK    4  A    between atoms: C_9  and  N_10
REMARK    5  A    between atoms: N_10  and  C_11
REMARK                            x       y       z     vdW  Elec       q    Type
REMARK                         _______ _______ _______ _____ _____    ______ ____
ROOT
ATOM      1  N   UNL     1       2.419   7.534  20.558  0.00  0.00    +0.000 N 
ATOM      2  H   UNL     1       3.319   7.775  20.952  0.00  0.00    +0.000 HD
ENDROOT
BRANCH   1   3
ATOM      3  C   UNL     1       2.288   6.186  20.180  0.00  0.00    +0.000 A 
ATOM      4  C   UNL     1       1.195   5.420  20.609  0.00  0.00    +0.000 A 
ATOM      5  C   UNL     1       1.069   4.082  20.213  0.00  0.00    +0.000 A 
ATOM      6  C   UNL     1       2.044   3.500  19.403  0.00  0.00    +0.000 A 
ATOM      7  C   UNL     1       3.135   4.256  18.977  0.00  0.00    +0.000 A 
ATOM      8  C   UNL     1       3.261   5.579  19.379  0.00  0.00    +0.000 A 
ATOM      9  O   UNL     1       4.125   3.773  18.163  0.00  0.00    +0.000 OA
ATOM     10  C   UNL     1       3.736   2.550  17.535  0.00  0.00    +0.000 C 
ATOM     11  C   UNL     1       3.066   1.615  18.529  0.00  0.00    +0.000 C 
ATOM     12  O   UNL     1       1.861   2.188  19.050  0.00  0.00    +0.000 OA
ENDBRANCH   1   3
BRANCH   1  19
ATOM     13  C   UNL     1      -0.760   9.817  23.293  0.00  0.00    +0.000 C 
ATOM     14  C   UNL     1      -0.153   9.659  21.933  0.00  0.00    +0.000 A 
ATOM     15  C   UNL     1      -0.557  10.442  20.866  0.00  0.00    +0.000 A 
ATOM     16  C   UNL     1       0.042  10.248  19.618  0.00  0.00    +0.000 A 
ATOM     17  C   UNL     1      -0.381  11.100  18.453  0.00  0.00    +0.000 C 
ATOM     18  C   UNL     1       1.038   9.257  19.491  0.00  0.00    +0.000 A 
ATOM     19  C   UNL     1       1.398   8.500  20.609  0.00  0.00    +0.000 A 
ATOM     20  N   UNL     1       0.805   8.716  21.809  0.00  0.00    +0.000 NA
BRANCH  18  21
ATOM     21  C   UNL     1       1.683   9.030  18.231  0.00  0.00    +0.000 C 
ATOM     22  N   UNL     1       2.201   8.827  17.219  0.00  0.00    +0.000 NA
ENDBRANCH  18  21
ENDBRANCH   1  19
TORSDOF 3
ENDMDL
MODEL 6
REMARK VINA RESULT:      -6.9      0.946      1.708
REMARK  Name = 
REMARK  5 active torsions:
REMARK  status: ('A' for Active; 'I' for Inactive)
REMARK    1  A    between atoms: C_1  and  C_2
REMARK    2  A    between atoms: C_4  and  C_5
REMARK    3  A    between atoms: C_6  and  C_7
REMARK    4  A    between atoms: C_9  and  N_10
REMARK    5  A    between atoms: N_10  and  C_11
REMARK                            x       y       z     vdW  Elec       q    Type
REMARK                         _______ _______ _______ _____ _____    ______ ____
ROOT
ATOM      1  N   UNL     1       5.641   3.920  17.958  0.00  0.00    +0.000 N 
ATOM      2  H   UNL     1       6.040   3.076  18.348  0.00  0.00    +0.000 HD
ENDROOT
BRANCH   1   3
ATOM      3  C   UNL     1       6.186   4.306  16.720  0.00  0.00    +0.000 A 
ATOM      4  C   UNL     1       7.125   5.344  16.638  0.00  0.00    +0.000 A 
ATOM      5  C   UNL     1       7.670   5.708  15.400  0.00  0.00    +0.000 A 
ATOM      6  C   UNL     1       7.267   5.050  14.239  0.00  0.00    +0.000 A 
ATOM      7  C   UNL     1       6.331   4.019  14.315  0.00  0.00    +0.000 A 
ATOM      8  C   UNL     1       5.785   3.667  15.542  0.00  0.00    +0.000 A 
ATOM      9  O   UNL     1       5.896   3.303  13.230  0.00  0.00    +0.000 OA
ATOM     10  C   UNL     1       6.749   3.495  12.101  0.00  0.00    +0.000 C 
ATOM     11  C   UNL     1       7.109   4.962  11.930  0.00  0.00    +0.000 C 
ATOM     12  O   UNL     1       7.839   5.453  13.061  0.00  0.00    +0.000 OA
ENDBRANCH   1   3
BRANCH   1  19
ATOM     13  C   UNL     1       2.450   7.470  18.016  0.00  0.00    +0.000 C 
ATOM     14  C   UNL     1       2.914   6.185  18.628  0.00  0.00    +0.000 A 
ATOM     15  C   UNL     1       2.240   5.605  19.690  0.00  0.00    +0.000 A 
ATOM     16  C   UNL     1       2.721   4.406  20.223  0.00  0.00    +0.000 A 
ATOM     17  C   UNL     1       1.992   3.761  21.369  0.00  0.00    +0.000 C 
ATOM     18  C   UNL     1       3.880   3.831  19.662  0.00  0.00    +0.000 A 
ATOM     19  C   UNL     1       4.513   4.470  18.593  0.00  0.00    +0.000 A 
ATOM     20  N   UNL     1       4.019   5.628  18.090  0.00  0.00    +0.000 NA
BRANCH  18  21
ATOM     21  C   UNL     1       4.403   2.599  20.176  0.00  0.00    +0.000 C 
ATOM     22  N   UNL     1       4.839   1.617  20.600  0.00  0.00    +0.000 NA
ENDBRANCH  18  21
ENDBRANCH   1  19
TORSDOF 3
ENDMDL
MODEL 7
REMARK VINA RESULT:      -6.9      4.050      7.108
REMARK  Name = 
REMARK  5 active torsions:
REMARK  status: ('A' for Active; 'I' for Inactive)
REMARK    1  A    between atoms: C_1  and  C_2
REMARK    2  A    between atoms: C_4  and  C_5
REMARK    3  A    between atoms: C_6  and  C_7
REMARK    4  A    between atoms: C_9  and  N_10
REMARK    5  A    between atoms: N_10  and  C_11
REMARK                            x       y       z     vdW  Elec       q    Type
REMARK                         _______ _______ _______ _____ _____    ______ ____
ROOT
ATOM      1  N   UNL     1       2.906   6.591  20.169  0.00  0.00    +0.000 N 
ATOM      2  H   UNL     1       3.554   6.555  20.946  0.00  0.00    +0.000 HD
ENDROOT
BRANCH   1   3
ATOM      3  C   UNL     1       1.944   7.613  20.257  0.00  0.00    +0.000 A 
ATOM      4  C   UNL     1       1.049   7.669  21.334  0.00  0.00    +0.000 A 
ATOM      5  C   UNL     1       0.105   8.701  21.416  0.00  0.00    +0.000 A 
ATOM      6  C   UNL     1       0.040   9.668  20.414  0.00  0.00    +0.000 A 
ATOM      7  C   UNL     1       0.926   9.615  19.339  0.00  0.00    +0.000 A 
ATOM      8  C   UNL     1       1.854   8.586  19.255  0.00  0.00    +0.000 A 
ATOM      9  O   UNL     1       0.949  10.535  18.324  0.00  0.00    +0.000 OA
ATOM     10  C   UNL     1       0.219  11.713  18.670  0.00  0.00    +0.000 C 
ATOM     11  C   UNL     1      -1.106  11.362  19.327  0.00  0.00    +0.000 C 
ATOM     12  O   UNL     1      -0.905  10.652  20.555  0.00  0.00    +0.000 OA
ENDBRANCH   1   3
BRANCH   1  19
ATOM     13  C   UNL     1       5.254   6.078  16.044  0.00  0.00    +0.000 C 
ATOM     14  C   UNL     1       4.323   5.469  17.046  0.00  0.00    +0.000 A 
ATOM     15  C   UNL     1       3.818   4.190  16.881  0.00  0.00    +0.000 A 
ATOM     16  C   UNL     1       2.950   3.675  17.847  0.00  0.00    +0.000 A 
ATOM     17  C   UNL     1       2.403   2.283  17.684  0.00  0.00    +0.000 C 
ATOM     18  C   UNL     1       2.616   4.479  18.957  0.00  0.00    +0.000 A 
ATOM     19  C   UNL     1       3.160   5.762  19.062  0.00  0.00    +0.000 A 
ATOM     20  N   UNL     1       4.006   6.232  18.113  0.00  0.00    +0.000 NA
BRANCH  18  21
ATOM     21  C   UNL     1       1.734   3.986  19.974  0.00  0.00    +0.000 C 
ATOM     22  N   UNL     1       1.037   3.596  20.808  0.00  0.00    +0.000 NA
ENDBRANCH  18  21
ENDBRANCH   1  19
TORSDOF 3
ENDMDL
MODEL 8
REMARK VINA RESULT:      -6.9      4.532      7.048
REMARK  Name = 
REMARK  5 active torsions:
REMARK  status: ('A' for Active; 'I' for Inactive)
REMARK    1  A    between atoms: C_1  and  C_2
REMARK    2  A    between atoms: C_4  and  C_5
REMARK    3  A    between atoms: C_6  and  C_7
REMARK    4  A    between atoms: C_9  and  N_10
REMARK    5  A    between atoms: N_10  and  C_11
REMARK                            x       y       z     vdW  Elec       q    Type
REMARK                         _______ _______ _______ _____ _____    ______ ____
ROOT
ATOM      1  N   UNL     1       3.180   6.996  17.496  0.00  0.00    +0.000 N 
ATOM      2  H   UNL     1       3.028   7.035  16.497  0.00  0.00    +0.000 HD
ENDROOT
BRANCH   1   3
ATOM      3  C   UNL     1       2.419   7.916  18.239  0.00  0.00    +0.000 A 
ATOM      4  C   UNL     1       1.967   9.111  17.662  0.00  0.00    +0.000 A 
ATOM      5  C   UNL     1       1.198  10.011  18.409  0.00  0.00    +0.000 A 
ATOM      6  C   UNL     1       0.893   9.730  19.741  0.00  0.00    +0.000 A 
ATOM      7  C   UNL     1       1.342   8.545  20.321  0.00  0.00    +0.000 A 
ATOM      8  C   UNL     1       2.113   7.660  19.580  0.00  0.00    +0.000 A 
ATOM      9  O   UNL     1       1.071   8.178  21.613  0.00  0.00    +0.000 OA
ATOM     10  C   UNL     1       0.011   8.960  22.166  0.00  0.00    +0.000 C 
ATOM     11  C   UNL     1       0.184  10.432  21.831  0.00  0.00    +0.000 C 
ATOM     12  O   UNL     1       0.135  10.652  20.416  0.00  0.00    +0.000 OA
ENDBRANCH   1   3
BRANCH   1  19
ATOM     13  C   UNL     1       7.402   5.705  19.314  0.00  0.00    +0.000 C 
ATOM     14  C   UNL     1       6.017   5.286  18.925  0.00  0.00    +0.000 A 
ATOM     15  C   UNL     1       5.578   3.986  19.106  0.00  0.00    +0.000 A 
ATOM     16  C   UNL     1       4.277   3.651  18.722  0.00  0.00    +0.000 A 
ATOM     17  C   UNL     1       3.784   2.244  18.923  0.00  0.00    +0.000 C 
ATOM     18  C   UNL     1       3.458   4.652  18.160  0.00  0.00    +0.000 A 
ATOM     19  C   UNL     1       3.964   5.944  18.002  0.00  0.00    +0.000 A 
ATOM     20  N   UNL     1       5.228   6.242  18.393  0.00  0.00    +0.000 NA
BRANCH  18  21
ATOM     21  C   UNL     1       2.114   4.352  17.758  0.00  0.00    +0.000 C 
ATOM     22  N   UNL     1       1.035   4.121  17.416  0.00  0.00    +0.000 NA
ENDBRANCH  18  21
ENDBRANCH   1  19
TORSDOF 3
ENDMDL
MODEL 9
REMARK VINA RESULT:      -6.9      1.201      1.895
REMARK  Name = 
REMARK  5 active torsions:
REMARK  status: ('A' for Active; 'I' for Inactive)
REMARK    1  A    between atoms: C_1  and  C_2
REMARK    2  A    between atoms: C_4  and  C_5
REMARK    3  A    between atoms: C_6  and  C_7
REMARK    4  A    between atoms: C_9  and  N_10
REMARK    5  A    between atoms: N_10  and  C_11
REMARK                            x       y       z     vdW  Elec       q    Type
REMARK                         _______ _______ _______ _____ _____    ______ ____
ROOT
ATOM      1  N   UNL     1       5.387   4.096  18.896  0.00  0.00    +0.000 N 
ATOM      2  H   UNL     1       5.955   3.517  19.501  0.00  0.00    +0.000 HD
ENDROOT
BRANCH   1   3
ATOM      3  C   UNL     1       5.998   4.446  17.679  0.00  0.00    +0.000 A 
ATOM      4  C   UNL     1       7.025   5.399  17.637  0.00  0.00    +0.000 A 
ATOM      5  C   UNL     1       7.635   5.728  16.420  0.00  0.00    +0.000 A 
ATOM      6  C   UNL     1       7.209   5.120  15.239  0.00  0.00    +0.000 A 
ATOM      7  C   UNL     1       6.186   4.174  15.275  0.00  0.00    +0.000 A 
ATOM      8  C   UNL     1       5.577   3.858  16.482  0.00  0.00    +0.000 A 
ATOM      9  O   UNL     1       5.721   3.511  14.170  0.00  0.00    +0.000 OA
ATOM     10  C   UNL     1       6.620   3.641  13.067  0.00  0.00    +0.000 C 
ATOM     11  C   UNL     1       7.111   5.072  12.926  0.00  0.00    +0.000 C 
ATOM     12  O   UNL     1       7.848   5.485  14.083  0.00  0.00    +0.000 OA
ENDBRANCH   1   3
BRANCH   1  19
ATOM     13  C   UNL     1       2.117   7.265  20.331  0.00  0.00    +0.000 C 
ATOM     14  C   UNL     1       2.411   5.851  19.938  0.00  0.00    +0.000 A 
ATOM     15  C   UNL     1       1.416   4.888  19.906  0.00  0.00    +0.000 A 
ATOM     16  C   UNL     1       1.750   3.582  19.534  0.00  0.00    +0.000 A 
ATOM     17  C   UNL     1       0.676   2.530  19.485  0.00  0.00    +0.000 C 
ATOM     18  C   UNL     1       3.090   3.292  19.206  0.00  0.00    +0.000 A 
ATOM     19  C   UNL     1       4.045   4.311  19.261  0.00  0.00    +0.000 A 
ATOM     20  N   UNL     1       3.691   5.571  19.617  0.00  0.00    +0.000 NA
BRANCH  18  21
ATOM     21  C   UNL     1       3.473   1.968  18.813  0.00  0.00    +0.000 C 
ATOM     22  N   UNL     1       3.794   0.909  18.481  0.00  0.00    +0.000 NA
ENDBRANCH  18  21
ENDBRANCH   1  19
TORSDOF 3
ENDMDL
