MODEL 1
REMARK VINA RESULT:      -7.1      0.000      0.000
REMARK  Name = 
REMARK  8 active torsions:
REMARK  status: ('A' for Active; 'I' for Inactive)
REMARK    1  A    between atoms: C_1  and  C_2
REMARK    2  A    between atoms: C_4  and  C_5
REMARK    3  A    between atoms: C_6  and  C_7
REMARK    4  A    between atoms: C_7  and  C_9
REMARK    5  A    between atoms: C_10  and  C_11
REMARK    6  A    between atoms: C_13  and  C_14
REMARK    7  A    between atoms: N_15  and  O_16
REMARK    8  A    between atoms: C_17  and  C_18
REMARK                            x       y       z     vdW  Elec       q    Type
REMARK                         _______ _______ _______ _____ _____    ______ ____
ROOT
ATOM      1  C   UNL     1       5.768   4.915  18.836  0.00  0.00    +0.000 C 
ATOM      2  O   UNL     1       6.534   5.036  19.793  0.00  0.00    +0.000 OA
ENDROOT
BRANCH   1   8
ATOM      3  C   UNL     1       0.293   3.243  20.104  0.00  0.00    +0.000 C 
ATOM      4  C   UNL     1       1.692   3.663  19.764  0.00  0.00    +0.000 A 
ATOM      5  C   UNL     1       1.964   4.932  19.263  0.00  0.00    +0.000 A 
ATOM      6  C   UNL     1       3.275   5.332  18.943  0.00  0.00    +0.000 A 
ATOM      7  C   UNL     1       3.446   6.744  18.433  0.00  0.00    +0.000 C 
ATOM      8  C   UNL     1       4.362   4.429  19.138  0.00  0.00    +0.000 A 
ATOM      9  C   UNL     1       4.091   3.158  19.708  0.00  0.00    +0.000 A 
ATOM     10  C   UNL     1       5.121   2.133  20.106  0.00  0.00    +0.000 C 
ATOM     11  C   UNL     1       2.755   2.785  19.966  0.00  0.00    +0.000 A 
ENDBRANCH   1   8
BRANCH   1  12
ATOM     12  C   UNL     1       6.237   5.149  17.491  0.00  0.00    +0.000 A 
ATOM     13  C   UNL     1       7.043   6.188  17.032  0.00  0.00    +0.000 A 
ATOM     14  C   UNL     1       7.577   7.375  17.747  0.00  0.00    +0.000 C 
ATOM     15  N   UNL     1       7.427   5.974  15.726  0.00  0.00    +0.000 NA
ATOM     16  C   UNL     1       6.805   4.876  15.350  0.00  0.00    +0.000 A 
ATOM     17  C   UNL     1       6.993   4.171  14.061  0.00  0.00    +0.000 C 
ATOM     18  N   UNL     1       5.981   4.430  16.354  0.00  0.00    +0.000 N 
BRANCH  18  19
ATOM     19  O   UNL     1       5.055   3.401  16.241  0.00  0.00    +0.000 OA
ATOM     20  H   UNL     1       5.393   2.940  15.460  0.00  0.00    +0.000 HD
ENDBRANCH  18  19
ENDBRANCH   1  12
TORSDOF 3
ENDMDL
MODEL 2
REMARK VINA RESULT:      -7.1      0.136      2.019
REMARK  Name = 
REMARK  8 active torsions:
REMARK  status: ('A' for Active; 'I' for Inactive)
REMARK    1  A    between atoms: C_1  and  C_2
REMARK    2  A    between atoms: C_4  and  C_5
REMARK    3  A    between atoms: C_6  and  C_7
REMARK    4  A    between atoms: C_7  and  C_9
REMARK    5  A    between atoms: C_10  and  C_11
REMARK    6  A    between atoms: C_13  and  C_14
REMARK    7  A    between atoms: N_15  and  O_16
REMARK    8  A    between atoms: C_17  and  C_18
REMARK                            x       y       z     vdW  Elec       q    Type
REMARK                         _______ _______ _______ _____ _____    ______ ____
ROOT
ATOM      1  C   UNL     1       5.752   5.002  18.869  0.00  0.00    +0.000 C 
ATOM      2  O   UNL     1       6.554   5.070  19.802  0.00  0.00    +0.000 OA
ENDROOT
BRANCH   1   8
ATOM      3  C   UNL     1       0.265   3.351  20.109  0.00  0.00    +0.000 C 
ATOM      4  C   UNL     1       1.670   3.779  19.807  0.00  0.00    +0.000 A 
ATOM      5  C   UNL     1       2.744   2.912  19.980  0.00  0.00    +0.000 A 
ATOM      6  C   UNL     1       4.065   3.310  19.699  0.00  0.00    +0.000 A 
ATOM      7  C   UNL     1       5.141   2.270  19.900  0.00  0.00    +0.000 C 
ATOM      8  C   UNL     1       4.324   4.628  19.216  0.00  0.00    +0.000 A 
ATOM      9  C   UNL     1       3.221   5.490  18.981  0.00  0.00    +0.000 A 
ATOM     10  C   UNL     1       3.290   6.858  18.354  0.00  0.00    +0.000 C 
ATOM     11  C   UNL     1       1.921   5.063  19.326  0.00  0.00    +0.000 A 
ENDBRANCH   1   8
BRANCH   1  12
ATOM     12  C   UNL     1       6.198   5.189  17.508  0.00  0.00    +0.000 A 
ATOM     13  C   UNL     1       7.006   6.204  17.002  0.00  0.00    +0.000 A 
ATOM     14  C   UNL     1       7.566   7.407  17.669  0.00  0.00    +0.000 C 
ATOM     15  N   UNL     1       7.362   5.945  15.696  0.00  0.00    +0.000 NA
ATOM     16  C   UNL     1       6.721   4.843  15.367  0.00  0.00    +0.000 A 
ATOM     17  C   UNL     1       6.877   4.096  14.097  0.00  0.00    +0.000 C 
ATOM     18  N   UNL     1       5.913   4.438  16.400  0.00  0.00    +0.000 N 
BRANCH  18  19
ATOM     19  O   UNL     1       4.974   3.416  16.337  0.00  0.00    +0.000 OA
ATOM     20  H   UNL     1       4.987   3.217  15.389  0.00  0.00    +0.000 HD
ENDBRANCH  18  19
ENDBRANCH   1  12
TORSDOF 3
ENDMDL
MODEL 3
REMARK VINA RESULT:      -7.0      2.497      5.584
REMARK  Name = 
REMARK  8 active torsions:
REMARK  status: ('A' for Active; 'I' for Inactive)
REMARK    1  A    between atoms: C_1  and  C_2
REMARK    2  A    between atoms: C_4  and  C_5
REMARK    3  A    between atoms: C_6  and  C_7
REMARK    4  A    between atoms: C_7  and  C_9
REMARK    5  A    between atoms: C_10  and  C_11
REMARK    6  A    between atoms: C_13  and  C_14
REMARK    7  A    between atoms: N_15  and  O_16
REMARK    8  A    between atoms: C_17  and  C_18
REMARK                            x       y       z     vdW  Elec       q    Type
REMARK                         _______ _______ _______ _____ _____    ______ ____
ROOT
ATOM      1  C   UNL     1       4.665   4.224  19.179  0.00  0.00    +0.000 C 
ATOM      2  O   UNL     1       5.206   3.405  19.923  0.00  0.00    +0.000 OA
ENDROOT
BRANCH   1   8
ATOM      3  C   UNL     1       7.078   4.855  13.873  0.00  0.00    +0.000 C 
ATOM      4  C   UNL     1       6.454   4.709  15.228  0.00  0.00    +0.000 A 
ATOM      5  C   UNL     1       5.229   4.072  15.396  0.00  0.00    +0.000 A 
ATOM      6  C   UNL     1       4.639   3.932  16.667  0.00  0.00    +0.000 A 
ATOM      7  C   UNL     1       3.320   3.197  16.723  0.00  0.00    +0.000 C 
ATOM      8  C   UNL     1       5.304   4.444  17.821  0.00  0.00    +0.000 A 
ATOM      9  C   UNL     1       6.582   5.038  17.656  0.00  0.00    +0.000 A 
ATOM     10  C   UNL     1       7.484   5.511  18.766  0.00  0.00    +0.000 C 
ATOM     11  C   UNL     1       7.109   5.199  16.357  0.00  0.00    +0.000 A 
ENDBRANCH   1   8
BRANCH   1  12
ATOM     12  C   UNL     1       3.529   4.987  19.637  0.00  0.00    +0.000 A 
ATOM     13  C   UNL     1       2.541   4.598  20.538  0.00  0.00    +0.000 A 
ATOM     14  C   UNL     1       2.318   3.295  21.214  0.00  0.00    +0.000 C 
ATOM     15  N   UNL     1       1.725   5.661  20.864  0.00  0.00    +0.000 NA
ATOM     16  C   UNL     1       2.138   6.664  20.119  0.00  0.00    +0.000 A 
ATOM     17  C   UNL     1       1.650   8.061  20.198  0.00  0.00    +0.000 C 
ATOM     18  N   UNL     1       3.141   6.250  19.278  0.00  0.00    +0.000 N 
BRANCH  18  19
ATOM     19  O   UNL     1       3.688   6.999  18.244  0.00  0.00    +0.000 OA
ATOM     20  H   UNL     1       2.910   7.130  17.684  0.00  0.00    +0.000 HD
ENDBRANCH  18  19
ENDBRANCH   1  12
TORSDOF 3
ENDMDL
MODEL 4
REMARK VINA RESULT:      -6.9      2.390      4.072
REMARK  Name = 
REMARK  8 active torsions:
REMARK  status: ('A' for Active; 'I' for Inactive)
REMARK    1  A    between atoms: C_1  and  C_2
REMARK    2  A    between atoms: C_4  and  C_5
REMARK    3  A    between atoms: C_6  and  C_7
REMARK    4  A    between atoms: C_7  and  C_9
REMARK    5  A    between atoms: C_10  and  C_11
REMARK    6  A    between atoms: C_13  and  C_14
REMARK    7  A    between atoms: N_15  and  O_16
REMARK    8  A    between atoms: C_17  and  C_18
REMARK                            x       y       z     vdW  Elec       q    Type
REMARK                         _______ _______ _______ _____ _____    ______ ____
ROOT
ATOM      1  C   UNL     1       3.318   5.610  18.185  0.00  0.00    +0.000 C 
ATOM      2  O   UNL     1       2.655   4.842  17.487  0.00  0.00    +0.000 OA
ENDROOT
BRANCH   1   8
ATOM      3  C   UNL     1       0.200   8.929  21.877  0.00  0.00    +0.000 C 
ATOM      4  C   UNL     1       1.012   8.085  20.941  0.00  0.00    +0.000 A 
ATOM      5  C   UNL     1       1.270   6.746  21.213  0.00  0.00    +0.000 A 
ATOM      6  C   UNL     1       2.031   5.950  20.336  0.00  0.00    +0.000 A 
ATOM      7  C   UNL     1       2.219   4.503  20.728  0.00  0.00    +0.000 C 
ATOM      8  C   UNL     1       2.552   6.513  19.133  0.00  0.00    +0.000 A 
ATOM      9  C   UNL     1       2.235   7.862  18.827  0.00  0.00    +0.000 A 
ATOM     10  C   UNL     1       2.582   8.580  17.549  0.00  0.00    +0.000 C 
ATOM     11  C   UNL     1       1.510   8.633  19.760  0.00  0.00    +0.000 A 
ENDBRANCH   1   8
BRANCH   1  12
ATOM     12  C   UNL     1       4.752   5.686  18.027  0.00  0.00    +0.000 A 
ATOM     13  C   UNL     1       5.469   6.186  16.943  0.00  0.00    +0.000 A 
ATOM     14  C   UNL     1       4.995   6.698  15.632  0.00  0.00    +0.000 C 
ATOM     15  N   UNL     1       6.815   6.258  17.235  0.00  0.00    +0.000 NA
ATOM     16  C   UNL     1       6.945   5.734  18.435  0.00  0.00    +0.000 A 
ATOM     17  C   UNL     1       8.192   5.697  19.234  0.00  0.00    +0.000 C 
ATOM     18  N   UNL     1       5.734   5.265  18.882  0.00  0.00    +0.000 N 
BRANCH  18  19
ATOM     19  O   UNL     1       5.536   4.506  20.028  0.00  0.00    +0.000 OA
ATOM     20  H   UNL     1       6.439   4.467  20.377  0.00  0.00    +0.000 HD
ENDBRANCH  18  19
ENDBRANCH   1  12
TORSDOF 3
ENDMDL
MODEL 5
REMARK VINA RESULT:      -6.9      2.511      5.556
REMARK  Name = 
REMARK  8 active torsions:
REMARK  status: ('A' for Active; 'I' for Inactive)
REMARK    1  A    between atoms: C_1  and  C_2
REMARK    2  A    between atoms: C_4  and  C_5
REMARK    3  A    between atoms: C_6  and  C_7
REMARK    4  A    between atoms: C_7  and  C_9
REMARK    5  A    between atoms: C_10  and  C_11
REMARK    6  A    between atoms: C_13  and  C_14
REMARK    7  A    between atoms: N_15  and  O_16
REMARK    8  A    between atoms: C_17  and  C_18
REMARK                            x       y       z     vdW  Elec       q    Type
REMARK                         _______ _______ _______ _____ _____    ______ ____
ROOT
ATOM      1  C   UNL     1       4.621   4.165  19.277  0.00  0.00    +0.000 C 
ATOM      2  O   UNL     1       5.175   3.400  20.068  0.00  0.00    +0.000 OA
ENDROOT
BRANCH   1   8
ATOM      3  C   UNL     1       7.055   4.858  13.988  0.00  0.00    +0.000 C 
ATOM      4  C   UNL     1       6.440   4.666  15.342  0.00  0.00    +0.000 A 
ATOM      5  C   UNL     1       7.060   5.142  16.492  0.00  0.00    +0.000 A 
ATOM      6  C   UNL     1       6.486   4.964  17.766  0.00  0.00    +0.000 A 
ATOM      7  C   UNL     1       7.241   5.550  18.935  0.00  0.00    +0.000 C 
ATOM      8  C   UNL     1       5.237   4.287  17.895  0.00  0.00    +0.000 A 
ATOM      9  C   UNL     1       4.576   3.857  16.715  0.00  0.00    +0.000 A 
ATOM     10  C   UNL     1       3.199   3.250  16.648  0.00  0.00    +0.000 C 
ATOM     11  C   UNL     1       5.214   4.015  15.467  0.00  0.00    +0.000 A 
ENDBRANCH   1   8
BRANCH   1  12
ATOM     12  C   UNL     1       3.493   4.962  19.699  0.00  0.00    +0.000 A 
ATOM     13  C   UNL     1       2.484   4.613  20.593  0.00  0.00    +0.000 A 
ATOM     14  C   UNL     1       2.225   3.331  21.296  0.00  0.00    +0.000 C 
ATOM     15  N   UNL     1       1.685   5.699  20.880  0.00  0.00    +0.000 NA
ATOM     16  C   UNL     1       2.129   6.676  20.118  0.00  0.00    +0.000 A 
ATOM     17  C   UNL     1       1.667   8.084  20.157  0.00  0.00    +0.000 C 
ATOM     18  N   UNL     1       3.136   6.223  19.303  0.00  0.00    +0.000 N 
BRANCH  18  19
ATOM     19  O   UNL     1       3.714   6.936  18.261  0.00  0.00    +0.000 OA
ATOM     20  H   UNL     1       4.468   6.367  18.049  0.00  0.00    +0.000 HD
ENDBRANCH  18  19
ENDBRANCH   1  12
TORSDOF 3
ENDMDL
MODEL 6
REMARK VINA RESULT:      -6.8      2.412      5.381
REMARK  Name = 
REMARK  8 active torsions:
REMARK  status: ('A' for Active; 'I' for Inactive)
REMARK    1  A    between atoms: C_1  and  C_2
REMARK    2  A    between atoms: C_4  and  C_5
REMARK    3  A    between atoms: C_6  and  C_7
REMARK    4  A    between atoms: C_7  and  C_9
REMARK    5  A    between atoms: C_10  and  C_11
REMARK    6  A    between atoms: C_13  and  C_14
REMARK    7  A    between atoms: N_15  and  O_16
REMARK    8  A    between atoms: C_17  and  C_18
REMARK                            x       y       z     vdW  Elec       q    Type
REMARK                         _______ _______ _______ _____ _____    ______ ____
ROOT
ATOM      1  C   UNL     1       5.080   5.140  18.927  0.00  0.00    +0.000 C 
ATOM      2  O   UNL     1       5.938   4.951  19.790  0.00  0.00    +0.000 OA
ENDROOT
BRANCH   1   8
ATOM      3  C   UNL     1       6.513   3.962  13.365  0.00  0.00    +0.000 C 
ATOM      4  C   UNL     1       6.157   4.251  14.792  0.00  0.00    +0.000 A 
ATOM      5  C   UNL     1       6.798   5.258  15.508  0.00  0.00    +0.000 A 
ATOM      6  C   UNL     1       6.467   5.533  16.849  0.00  0.00    +0.000 A 
ATOM      7  C   UNL     1       7.214   6.668  17.509  0.00  0.00    +0.000 C 
ATOM      8  C   UNL     1       5.449   4.776  17.501  0.00  0.00    +0.000 A 
ATOM      9  C   UNL     1       4.753   3.793  16.750  0.00  0.00    +0.000 A 
ATOM     10  C   UNL     1       3.568   2.994  17.228  0.00  0.00    +0.000 C 
ATOM     11  C   UNL     1       5.154   3.520  15.425  0.00  0.00    +0.000 A 
ENDBRANCH   1   8
BRANCH   1  12
ATOM     12  C   UNL     1       3.822   5.761  19.270  0.00  0.00    +0.000 A 
ATOM     13  C   UNL     1       2.838   5.284  20.132  0.00  0.00    +0.000 A 
ATOM     14  C   UNL     1       2.748   3.998  20.869  0.00  0.00    +0.000 C 
ATOM     15  N   UNL     1       1.866   6.238  20.345  0.00  0.00    +0.000 NA
ATOM     16  C   UNL     1       2.189   7.251  19.568  0.00  0.00    +0.000 A 
ATOM     17  C   UNL     1       1.512   8.569  19.537  0.00  0.00    +0.000 C 
ATOM     18  N   UNL     1       3.292   6.938  18.814  0.00  0.00    +0.000 N 
BRANCH  18  19
ATOM     19  O   UNL     1       3.802   7.703  17.773  0.00  0.00    +0.000 OA
ATOM     20  H   UNL     1       3.259   7.390  17.036  0.00  0.00    +0.000 HD
ENDBRANCH  18  19
ENDBRANCH   1  12
TORSDOF 3
ENDMDL
MODEL 7
REMARK VINA RESULT:      -6.8      2.256      5.349
REMARK  Name = 
REMARK  8 active torsions:
REMARK  status: ('A' for Active; 'I' for Inactive)
REMARK    1  A    between atoms: C_1  and  C_2
REMARK    2  A    between atoms: C_4  and  C_5
REMARK    3  A    between atoms: C_6  and  C_7
REMARK    4  A    between atoms: C_7  and  C_9
REMARK    5  A    between atoms: C_10  and  C_11
REMARK    6  A    between atoms: C_13  and  C_14
REMARK    7  A    between atoms: N_15  and  O_16
REMARK    8  A    between atoms: C_17  and  C_18
REMARK                            x       y       z     vdW  Elec       q    Type
REMARK                         _______ _______ _______ _____ _____    ______ ____
ROOT
ATOM      1  C   UNL     1       5.405   4.813  18.880  0.00  0.00    +0.000 C 
ATOM      2  O   UNL     1       6.282   4.862  19.743  0.00  0.00    +0.000 OA
ENDROOT
BRANCH   1   8
ATOM      3  C   UNL     1       7.178   4.799  13.291  0.00  0.00    +0.000 C 
ATOM      4  C   UNL     1       6.736   4.791  14.723  0.00  0.00    +0.000 A 
ATOM      5  C   UNL     1       7.259   5.689  15.647  0.00  0.00    +0.000 A 
ATOM      6  C   UNL     1       6.848   5.685  16.994  0.00  0.00    +0.000 A 
ATOM      7  C   UNL     1       7.469   6.729  17.893  0.00  0.00    +0.000 C 
ATOM      8  C   UNL     1       5.866   4.749  17.436  0.00  0.00    +0.000 A 
ATOM      9  C   UNL     1       5.288   3.875  16.479  0.00  0.00    +0.000 A 
ATOM     10  C   UNL     1       4.153   2.918  16.732  0.00  0.00    +0.000 C 
ATOM     11  C   UNL     1       5.769   3.883  15.152  0.00  0.00    +0.000 A 
ENDBRANCH   1   8
BRANCH   1  12
ATOM     12  C   UNL     1       4.012   4.901  19.248  0.00  0.00    +0.000 A 
ATOM     13  C   UNL     1       3.106   5.912  18.938  0.00  0.00    +0.000 A 
ATOM     14  C   UNL     1       3.311   7.201  18.230  0.00  0.00    +0.000 C 
ATOM     15  N   UNL     1       1.826   5.556  19.309  0.00  0.00    +0.000 NA
ATOM     16  C   UNL     1       1.944   4.393  19.915  0.00  0.00    +0.000 A 
ATOM     17  C   UNL     1       0.825   3.545  20.387  0.00  0.00    +0.000 C 
ATOM     18  N   UNL     1       3.267   4.037  20.004  0.00  0.00    +0.000 N 
BRANCH  18  19
ATOM     19  O   UNL     1       3.765   2.961  20.727  0.00  0.00    +0.000 OA
ATOM     20  H   UNL     1       3.545   3.231  21.630  0.00  0.00    +0.000 HD
ENDBRANCH  18  19
ENDBRANCH   1  12
TORSDOF 3
ENDMDL
MODEL 8
REMARK VINA RESULT:      -6.8      2.280      5.505
REMARK  Name = 
REMARK  8 active torsions:
REMARK  status: ('A' for Active; 'I' for Inactive)
REMARK    1  A    between atoms: C_1  and  C_2
REMARK    2  A    between atoms: C_4  and  C_5
REMARK    3  A    between atoms: C_6  and  C_7
REMARK    4  A    between atoms: C_7  and  C_9
REMARK    5  A    between atoms: C_10  and  C_11
REMARK    6  A    between atoms: C_13  and  C_14
REMARK    7  A    between atoms: N_15  and  O_16
REMARK    8  A    between atoms: C_17  and  C_18
REMARK                            x       y       z     vdW  Elec       q    Type
REMARK                         _______ _______ _______ _____ _____    ______ ____
ROOT
ATOM      1  C   UNL     1       5.325   4.822  18.974  0.00  0.00    +0.000 C 
ATOM      2  O   UNL     1       6.203   4.829  19.838  0.00  0.00    +0.000 OA
ENDROOT
BRANCH   1   8
ATOM      3  C   UNL     1       7.105   4.827  13.388  0.00  0.00    +0.000 C 
ATOM      4  C   UNL     1       6.638   4.837  14.813  0.00  0.00    +0.000 A 
ATOM      5  C   UNL     1       5.687   3.930  15.269  0.00  0.00    +0.000 A 
ATOM      6  C   UNL     1       5.246   3.936  16.606  0.00  0.00    +0.000 A 
ATOM      7  C   UNL     1       4.231   2.884  16.988  0.00  0.00    +0.000 C 
ATOM      8  C   UNL     1       5.782   4.884  17.529  0.00  0.00    +0.000 A 
ATOM      9  C   UNL     1       6.797   5.767  17.077  0.00  0.00    +0.000 A 
ATOM     10  C   UNL     1       7.566   6.737  17.935  0.00  0.00    +0.000 C 
ATOM     11  C   UNL     1       7.170   5.756  15.716  0.00  0.00    +0.000 A 
ENDBRANCH   1   8
BRANCH   1  12
ATOM     12  C   UNL     1       3.931   4.841  19.351  0.00  0.00    +0.000 A 
ATOM     13  C   UNL     1       2.980   5.820  19.070  0.00  0.00    +0.000 A 
ATOM     14  C   UNL     1       3.126   7.134  18.394  0.00  0.00    +0.000 C 
ATOM     15  N   UNL     1       1.719   5.400  19.438  0.00  0.00    +0.000 NA
ATOM     16  C   UNL     1       1.890   4.229  20.013  0.00  0.00    +0.000 A 
ATOM     17  C   UNL     1       0.811   3.322  20.468  0.00  0.00    +0.000 C 
ATOM     18  N   UNL     1       3.228   3.928  20.088  0.00  0.00    +0.000 N 
BRANCH  18  19
ATOM     19  O   UNL     1       3.775   2.856  20.781  0.00  0.00    +0.000 OA
ATOM     20  H   UNL     1       3.045   2.222  20.740  0.00  0.00    +0.000 HD
ENDBRANCH  18  19
ENDBRANCH   1  12
TORSDOF 3
ENDMDL
MODEL 9
REMARK VINA RESULT:      -6.7      1.317      3.192
REMARK  Name = 
REMARK  8 active torsions:
REMARK  status: ('A' for Active; 'I' for Inactive)
REMARK    1  A    between atoms: C_1  and  C_2
REMARK    2  A    between atoms: C_4  and  C_5
REMARK    3  A    between atoms: C_6  and  C_7
REMARK    4  A    between atoms: C_7  and  C_9
REMARK    5  A    between atoms: C_10  and  C_11
REMARK    6  A    between atoms: C_13  and  C_14
REMARK    7  A    between atoms: N_15  and  O_16
REMARK    8  A    between atoms: C_17  and  C_18
REMARK                            x       y       z     vdW  Elec       q    Type
REMARK                         _______ _______ _______ _____ _____    ______ ____
ROOT
ATOM      1  C   UNL     1       4.266   4.175  17.140  0.00  0.00    +0.000 C 
ATOM      2  O   UNL     1       3.724   3.871  16.076  0.00  0.00    +0.000 OA
ENDROOT
BRANCH   1   8
ATOM      3  C   UNL     1       1.205   2.824  21.954  0.00  0.00    +0.000 C 
ATOM      4  C   UNL     1       2.001   3.173  20.733  0.00  0.00    +0.000 A 
ATOM      5  C   UNL     1       2.677   2.197  20.007  0.00  0.00    +0.000 A 
ATOM      6  C   UNL     1       3.426   2.520  18.859  0.00  0.00    +0.000 A 
ATOM      7  C   UNL     1       4.091   1.370  18.140  0.00  0.00    +0.000 C 
ATOM      8  C   UNL     1       3.498   3.874  18.413  0.00  0.00    +0.000 A 
ATOM      9  C   UNL     1       2.757   4.858  19.118  0.00  0.00    +0.000 A 
ATOM     10  C   UNL     1       2.607   6.302  18.719  0.00  0.00    +0.000 C 
ATOM     11  C   UNL     1       2.061   4.493  20.291  0.00  0.00    +0.000 A 
ENDBRANCH   1   8
BRANCH   1  12
ATOM     12  C   UNL     1       5.535   4.863  17.142  0.00  0.00    +0.000 A 
ATOM     13  C   UNL     1       6.320   5.220  16.049  0.00  0.00    +0.000 A 
ATOM     14  C   UNL     1       6.136   4.936  14.602  0.00  0.00    +0.000 C 
ATOM     15  N   UNL     1       7.371   6.023  16.437  0.00  0.00    +0.000 NA
ATOM     16  C   UNL     1       7.295   6.093  17.750  0.00  0.00    +0.000 A 
ATOM     17  C   UNL     1       8.139   6.943  18.622  0.00  0.00    +0.000 C 
ATOM     18  N   UNL     1       6.274   5.298  18.210  0.00  0.00    +0.000 N 
BRANCH  18  19
ATOM     19  O   UNL     1       6.019   5.004  19.543  0.00  0.00    +0.000 OA
ATOM     20  H   UNL     1       6.020   4.036  19.517  0.00  0.00    +0.000 HD
ENDBRANCH  18  19
ENDBRANCH   1  12
TORSDOF 3
ENDMDL
