MODEL 1
REMARK VINA RESULT:      -7.3      0.000      0.000
REMARK  Name = 
REMARK  3 active torsions:
REMARK  status: ('A' for Active; 'I' for Inactive)
REMARK    1  A    between atoms: C_1  and  C_2
REMARK    2  A    between atoms: C_4  and  C_5
REMARK    3  A    between atoms: C_17  and  C_19
REMARK                            x       y       z     vdW  Elec       q    Type
REMARK                         _______ _______ _______ _____ _____    ______ ____
ROOT
ATOM      1  C   UNL     1       2.465   9.471  17.863  0.00  0.00    +0.000 C 
ATOM      2  C   UNL     1       2.648   8.133  18.571  0.00  0.00    +0.000 C 
ATOM      3  C   UNL     1       2.687   7.035  17.478  0.00  0.00    +0.000 C 
ATOM      4  C   UNL     1       3.315   5.751  18.027  0.00  0.00    +0.000 C 
ATOM      5  N   UNL     1       2.742   5.450  19.330  0.00  0.00    +0.000 N 
ATOM      6  N   UNL     1       2.864   4.235  19.897  0.00  0.00    +0.000 NA
ATOM      7  C   UNL     1       2.195   4.425  21.034  0.00  0.00    +0.000 A 
ATOM      8  N   UNL     1       1.619   5.656  21.169  0.00  0.00    +0.000 NA
ATOM      9  C   UNL     1       1.994   6.314  20.096  0.00  0.00    +0.000 A 
ATOM     10  N   UNL     1       1.757   7.658  19.696  0.00  0.00    +0.000 N 
ATOM     11  C   UNL     1       1.046   8.418  20.654  0.00  0.00    +0.000 C 
ATOM     12  O   UNL     1       0.793   8.059  21.806  0.00  0.00    +0.000 OA
ENDROOT
BRANCH  11  13
ATOM     13  C   UNL     1       0.486   9.753  20.330  0.00  0.00    +0.000 A 
ATOM     14  C   UNL     1      -0.642   9.919  19.524  0.00  0.00    +0.000 A 
ATOM     15  C   UNL     1      -1.070  11.203  19.171  0.00  0.00    +0.000 A 
ATOM     16  C   UNL     1      -0.468  12.320  19.745  0.00  0.00    +0.000 A 
ATOM     17 CL   UNL     1      -1.004  13.895  19.315  0.00  0.00    +0.000 Cl
ATOM     18  C   UNL     1       0.555  12.164  20.677  0.00  0.00    +0.000 A 
ATOM     19  C   UNL     1       1.039  10.882  20.958  0.00  0.00    +0.000 A 
ENDBRANCH  11  13
BRANCH   4  20
ATOM     20  C   UNL     1       4.835   5.847  18.053  0.00  0.00    +0.000 A 
ATOM     21  C   UNL     1       5.605   5.420  19.149  0.00  0.00    +0.000 A 
ATOM     22  C   UNL     1       6.992   5.573  19.154  0.00  0.00    +0.000 A 
ATOM     23  C   UNL     1       7.634   6.144  18.060  0.00  0.00    +0.000 A 
ATOM     24  C   UNL     1       6.889   6.572  16.965  0.00  0.00    +0.000 A 
ATOM     25  C   UNL     1       5.502   6.432  16.961  0.00  0.00    +0.000 A 
ENDBRANCH   4  20
TORSDOF 2
ENDMDL
MODEL 2
REMARK VINA RESULT:      -7.1      0.314      1.013
REMARK  Name = 
REMARK  3 active torsions:
REMARK  status: ('A' for Active; 'I' for Inactive)
REMARK    1  A    between atoms: C_1  and  C_2
REMARK    2  A    between atoms: C_4  and  C_5
REMARK    3  A    between atoms: C_17  and  C_19
REMARK                            x       y       z     vdW  Elec       q    Type
REMARK                         _______ _______ _______ _____ _____    ______ ____
ROOT
ATOM      1  C   UNL     1       2.417   9.324  17.835  0.00  0.00    +0.000 C 
ATOM      2  C   UNL     1       2.603   7.987  18.545  0.00  0.00    +0.000 C 
ATOM      3  C   UNL     1       2.514   6.877  17.469  0.00  0.00    +0.000 C 
ATOM      4  C   UNL     1       3.132   5.575  17.986  0.00  0.00    +0.000 C 
ATOM      5  N   UNL     1       2.652   5.311  19.334  0.00  0.00    +0.000 N 
ATOM      6  N   UNL     1       2.770   4.100  19.907  0.00  0.00    +0.000 NA
ATOM      7  C   UNL     1       2.201   4.329  21.089  0.00  0.00    +0.000 A 
ATOM      8  N   UNL     1       1.685   5.583  21.250  0.00  0.00    +0.000 NA
ATOM      9  C   UNL     1       2.000   6.213  20.143  0.00  0.00    +0.000 A 
ATOM     10  N   UNL     1       1.785   7.561  19.743  0.00  0.00    +0.000 N 
ATOM     11  C   UNL     1       1.181   8.359  20.742  0.00  0.00    +0.000 C 
ATOM     12  O   UNL     1       1.005   8.024  21.916  0.00  0.00    +0.000 OA
ENDROOT
BRANCH  11  13
ATOM     13  C   UNL     1       0.649   9.712  20.445  0.00  0.00    +0.000 A 
ATOM     14  C   UNL     1       1.282  10.879  20.875  0.00  0.00    +0.000 A 
ATOM     15  C   UNL     1       0.687  12.125  20.651  0.00  0.00    +0.000 A 
ATOM     16  C   UNL     1      -0.461  12.217  19.866  0.00  0.00    +0.000 A 
ATOM     17 CL   UNL     1      -1.184  13.751  19.586  0.00  0.00    +0.000 Cl
ATOM     18  C   UNL     1      -1.013  11.073  19.295  0.00  0.00    +0.000 A 
ATOM     19  C   UNL     1      -0.466   9.822  19.596  0.00  0.00    +0.000 A 
ENDBRANCH  11  13
BRANCH   4  20
ATOM     20  C   UNL     1       4.652   5.611  17.892  0.00  0.00    +0.000 A 
ATOM     21  C   UNL     1       5.487   5.464  19.014  0.00  0.00    +0.000 A 
ATOM     22  C   UNL     1       6.874   5.554  18.892  0.00  0.00    +0.000 A 
ATOM     23  C   UNL     1       7.452   5.782  17.647  0.00  0.00    +0.000 A 
ATOM     24  C   UNL     1       6.642   5.929  16.524  0.00  0.00    +0.000 A 
ATOM     25  C   UNL     1       5.256   5.851  16.643  0.00  0.00    +0.000 A 
ENDBRANCH   4  20
TORSDOF 2
ENDMDL
MODEL 3
REMARK VINA RESULT:      -6.9      3.094      7.137
REMARK  Name = 
REMARK  3 active torsions:
REMARK  status: ('A' for Active; 'I' for Inactive)
REMARK    1  A    between atoms: C_1  and  C_2
REMARK    2  A    between atoms: C_4  and  C_5
REMARK    3  A    between atoms: C_17  and  C_19
REMARK                            x       y       z     vdW  Elec       q    Type
REMARK                         _______ _______ _______ _____ _____    ______ ____
ROOT
ATOM      1  C   UNL     1       2.437   8.175  17.095  0.00  0.00    +0.000 C 
ATOM      2  C   UNL     1       1.683   8.568  18.360  0.00  0.00    +0.000 C 
ATOM      3  C   UNL     1       1.869  10.093  18.554  0.00  0.00    +0.000 C 
ATOM      4  C   UNL     1       0.802  10.650  19.501  0.00  0.00    +0.000 C 
ATOM      5  N   UNL     1       0.688   9.785  20.666  0.00  0.00    +0.000 N 
ATOM      6  N   UNL     1       0.074  10.187  21.793  0.00  0.00    +0.000 NA
ATOM      7  C   UNL     1       0.223   9.105  22.556  0.00  0.00    +0.000 A 
ATOM      8  N   UNL     1       0.943   8.092  21.989  0.00  0.00    +0.000 NA
ATOM      9  C   UNL     1       1.212   8.518  20.777  0.00  0.00    +0.000 A 
ATOM     10  N   UNL     1       1.886   7.886  19.694  0.00  0.00    +0.000 N 
ATOM     11  C   UNL     1       2.272   6.554  19.968  0.00  0.00    +0.000 C 
ATOM     12  O   UNL     1       1.929   5.897  20.953  0.00  0.00    +0.000 OA
ENDROOT
BRANCH  11  13
ATOM     13  C   UNL     1       3.196   5.811  19.075  0.00  0.00    +0.000 A 
ATOM     14  C   UNL     1       4.584   5.901  19.188  0.00  0.00    +0.000 A 
ATOM     15  C   UNL     1       5.408   5.257  18.259  0.00  0.00    +0.000 A 
ATOM     16  C   UNL     1       4.851   4.401  17.311  0.00  0.00    +0.000 A 
ATOM     17 CL   UNL     1       5.869   3.605  16.177  0.00  0.00    +0.000 Cl
ATOM     18  C   UNL     1       3.478   4.177  17.290  0.00  0.00    +0.000 A 
ATOM     19  C   UNL     1       2.651   4.891  18.162  0.00  0.00    +0.000 A 
ENDBRANCH  11  13
BRANCH   4  20
ATOM     20  C   UNL     1      -0.524  10.854  18.780  0.00  0.00    +0.000 A 
ATOM     21  C   UNL     1      -1.441  11.857  19.144  0.00  0.00    +0.000 A 
ATOM     22  C   UNL     1      -2.668  11.977  18.491  0.00  0.00    +0.000 A 
ATOM     23  C   UNL     1      -2.996  11.106  17.456  0.00  0.00    +0.000 A 
ATOM     24  C   UNL     1      -2.100  10.108  17.081  0.00  0.00    +0.000 A 
ATOM     25  C   UNL     1      -0.879   9.977  17.738  0.00  0.00    +0.000 A 
ENDBRANCH   4  20
TORSDOF 2
ENDMDL
MODEL 4
REMARK VINA RESULT:      -6.7      3.093      7.171
REMARK  Name = 
REMARK  3 active torsions:
REMARK  status: ('A' for Active; 'I' for Inactive)
REMARK    1  A    between atoms: C_1  and  C_2
REMARK    2  A    between atoms: C_4  and  C_5
REMARK    3  A    between atoms: C_17  and  C_19
REMARK                            x       y       z     vdW  Elec       q    Type
REMARK                         _______ _______ _______ _____ _____    ______ ____
ROOT
ATOM      1  C   UNL     1       1.842   8.560  17.273  0.00  0.00    +0.000 C 
ATOM      2  C   UNL     1       1.269   8.953  18.630  0.00  0.00    +0.000 C 
ATOM      3  C   UNL     1       1.523  10.469  18.817  0.00  0.00    +0.000 C 
ATOM      4  C   UNL     1       0.605  11.039  19.902  0.00  0.00    +0.000 C 
ATOM      5  N   UNL     1       0.618  10.159  21.060  0.00  0.00    +0.000 N 
ATOM      6  N   UNL     1       0.168  10.560  22.264  0.00  0.00    +0.000 NA
ATOM      7  C   UNL     1       0.383   9.461  22.987  0.00  0.00    +0.000 A 
ATOM      8  N   UNL     1       0.994   8.439  22.318  0.00  0.00    +0.000 NA
ATOM      9  C   UNL     1       1.116   8.877  21.087  0.00  0.00    +0.000 A 
ATOM     10  N   UNL     1       1.624   8.245  19.918  0.00  0.00    +0.000 N 
ATOM     11  C   UNL     1       2.005   6.898  20.122  0.00  0.00    +0.000 C 
ATOM     12  O   UNL     1       1.774   6.235  21.136  0.00  0.00    +0.000 OA
ENDROOT
BRANCH  11  13
ATOM     13  C   UNL     1       2.783   6.146  19.107  0.00  0.00    +0.000 A 
ATOM     14  C   UNL     1       2.209   5.162  18.300  0.00  0.00    +0.000 A 
ATOM     15  C   UNL     1       3.009   4.415  17.428  0.00  0.00    +0.000 A 
ATOM     16  C   UNL     1       4.349   4.752  17.251  0.00  0.00    +0.000 A 
ATOM     17 CL   UNL     1       5.324   3.837  16.171  0.00  0.00    +0.000 Cl
ATOM     18  C   UNL     1       4.895   5.836  17.932  0.00  0.00    +0.000 A 
ATOM     19  C   UNL     1       4.116   6.523  18.869  0.00  0.00    +0.000 A 
ENDBRANCH  11  13
BRANCH   4  20
ATOM     20  C   UNL     1      -0.798  11.291  19.362  0.00  0.00    +0.000 A 
ATOM     21  C   UNL     1      -1.696  12.187  19.968  0.00  0.00    +0.000 A 
ATOM     22  C   UNL     1      -2.990  12.350  19.472  0.00  0.00    +0.000 A 
ATOM     23  C   UNL     1      -3.405  11.629  18.357  0.00  0.00    +0.000 A 
ATOM     24  C   UNL     1      -2.530  10.738  17.743  0.00  0.00    +0.000 A 
ATOM     25  C   UNL     1      -1.240  10.564  18.241  0.00  0.00    +0.000 A 
ENDBRANCH   4  20
TORSDOF 2
ENDMDL
MODEL 5
REMARK VINA RESULT:      -6.7      2.064      4.045
REMARK  Name = 
REMARK  3 active torsions:
REMARK  status: ('A' for Active; 'I' for Inactive)
REMARK    1  A    between atoms: C_1  and  C_2
REMARK    2  A    between atoms: C_4  and  C_5
REMARK    3  A    between atoms: C_17  and  C_19
REMARK                            x       y       z     vdW  Elec       q    Type
REMARK                         _______ _______ _______ _____ _____    ______ ____
ROOT
ATOM      1  C   UNL     1       0.197   8.125  21.192  0.00  0.00    +0.000 C 
ATOM      2  C   UNL     1       1.197   7.549  20.194  0.00  0.00    +0.000 C 
ATOM      3  C   UNL     1       2.280   6.799  21.007  0.00  0.00    +0.000 C 
ATOM      4  C   UNL     1       3.046   5.822  20.111  0.00  0.00    +0.000 C 
ATOM      5  N   UNL     1       3.410   6.487  18.869  0.00  0.00    +0.000 N 
ATOM      6  N   UNL     1       4.347   5.987  18.042  0.00  0.00    +0.000 NA
ATOM      7  C   UNL     1       4.345   6.909  17.080  0.00  0.00    +0.000 A 
ATOM      8  N   UNL     1       3.515   7.971  17.298  0.00  0.00    +0.000 NA
ATOM      9  C   UNL     1       2.901   7.685  18.422  0.00  0.00    +0.000 A 
ATOM     10  N   UNL     1       1.882   8.378  19.132  0.00  0.00    +0.000 N 
ATOM     11  C   UNL     1       1.423   9.542  18.472  0.00  0.00    +0.000 C 
ATOM     12  O   UNL     1       1.709   9.869  17.318  0.00  0.00    +0.000 OA
ENDROOT
BRANCH  11  13
ATOM     13  C   UNL     1       0.553  10.532  19.152  0.00  0.00    +0.000 A 
ATOM     14  C   UNL     1       1.039  11.431  20.103  0.00  0.00    +0.000 A 
ATOM     15  C   UNL     1       0.158  12.277  20.785  0.00  0.00    +0.000 A 
ATOM     16  C   UNL     1      -1.183  12.334  20.410  0.00  0.00    +0.000 A 
ATOM     17 CL   UNL     1      -2.259  13.382  21.244  0.00  0.00    +0.000 Cl
ATOM     18  C   UNL     1      -1.648  11.557  19.352  0.00  0.00    +0.000 A 
ATOM     19  C   UNL     1      -0.784  10.649  18.734  0.00  0.00    +0.000 A 
ENDBRANCH  11  13
BRANCH   4  20
ATOM     20  C   UNL     1       2.255   4.539  19.889  0.00  0.00    +0.000 A 
ATOM     21  C   UNL     1       1.772   4.151  18.626  0.00  0.00    +0.000 A 
ATOM     22  C   UNL     1       1.007   2.995  18.475  0.00  0.00    +0.000 A 
ATOM     23  C   UNL     1       0.721   2.199  19.580  0.00  0.00    +0.000 A 
ATOM     24  C   UNL     1       1.190   2.566  20.839  0.00  0.00    +0.000 A 
ATOM     25  C   UNL     1       1.945   3.726  20.996  0.00  0.00    +0.000 A 
ENDBRANCH   4  20
TORSDOF 2
ENDMDL
MODEL 6
REMARK VINA RESULT:      -6.5      2.130      3.807
REMARK  Name = 
REMARK  3 active torsions:
REMARK  status: ('A' for Active; 'I' for Inactive)
REMARK    1  A    between atoms: C_1  and  C_2
REMARK    2  A    between atoms: C_4  and  C_5
REMARK    3  A    between atoms: C_17  and  C_19
REMARK                            x       y       z     vdW  Elec       q    Type
REMARK                         _______ _______ _______ _____ _____    ______ ____
ROOT
ATOM      1  C   UNL     1       0.133   8.286  21.269  0.00  0.00    +0.000 C 
ATOM      2  C   UNL     1       1.101   7.710  20.241  0.00  0.00    +0.000 C 
ATOM      3  C   UNL     1       2.207   6.957  21.021  0.00  0.00    +0.000 C 
ATOM      4  C   UNL     1       2.944   5.980  20.102  0.00  0.00    +0.000 C 
ATOM      5  N   UNL     1       3.272   6.645  18.850  0.00  0.00    +0.000 N 
ATOM      6  N   UNL     1       4.184   6.145  17.995  0.00  0.00    +0.000 NA
ATOM      7  C   UNL     1       4.155   7.068  17.035  0.00  0.00    +0.000 A 
ATOM      8  N   UNL     1       3.333   8.131  17.278  0.00  0.00    +0.000 NA
ATOM      9  C   UNL     1       2.753   7.844  18.420  0.00  0.00    +0.000 A 
ATOM     10  N   UNL     1       1.756   8.539  19.160  0.00  0.00    +0.000 N 
ATOM     11  C   UNL     1       1.280   9.704  18.515  0.00  0.00    +0.000 C 
ATOM     12  O   UNL     1       1.531  10.032  17.353  0.00  0.00    +0.000 OA
ENDROOT
BRANCH  11  13
ATOM     13  C   UNL     1       0.431  10.695  19.222  0.00  0.00    +0.000 A 
ATOM     14  C   UNL     1      -0.944  10.794  19.007  0.00  0.00    +0.000 A 
ATOM     15  C   UNL     1      -1.680  11.810  19.626  0.00  0.00    +0.000 A 
ATOM     16  C   UNL     1      -1.074  12.630  20.575  0.00  0.00    +0.000 A 
ATOM     17 CL   UNL     1      -1.985  13.871  21.340  0.00  0.00    +0.000 Cl
ATOM     18  C   UNL     1       0.262  12.436  20.918  0.00  0.00    +0.000 A 
ATOM     19  C   UNL     1       1.015  11.479  20.232  0.00  0.00    +0.000 A 
ENDBRANCH  11  13
BRANCH   4  20
ATOM     20  C   UNL     1       2.145   4.698  19.902  0.00  0.00    +0.000 A 
ATOM     21  C   UNL     1       1.814   3.835  20.962  0.00  0.00    +0.000 A 
ATOM     22  C   UNL     1       1.125   2.645  20.728  0.00  0.00    +0.000 A 
ATOM     23  C   UNL     1       0.745   2.301  19.435  0.00  0.00    +0.000 A 
ATOM     24  C   UNL     1       1.063   3.143  18.372  0.00  0.00    +0.000 A 
ATOM     25  C   UNL     1       1.761   4.328  18.600  0.00  0.00    +0.000 A 
ENDBRANCH   4  20
TORSDOF 2
ENDMDL
MODEL 7
REMARK VINA RESULT:      -6.5      4.041      8.674
REMARK  Name = 
REMARK  3 active torsions:
REMARK  status: ('A' for Active; 'I' for Inactive)
REMARK    1  A    between atoms: C_1  and  C_2
REMARK    2  A    between atoms: C_4  and  C_5
REMARK    3  A    between atoms: C_17  and  C_19
REMARK                            x       y       z     vdW  Elec       q    Type
REMARK                         _______ _______ _______ _____ _____    ______ ____
ROOT
ATOM      1  C   UNL     1      -1.192   9.981  18.272  0.00  0.00    +0.000 C 
ATOM      2  C   UNL     1      -1.481  10.870  19.476  0.00  0.00    +0.000 C 
ATOM      3  C   UNL     1      -1.879  12.265  18.935  0.00  0.00    +0.000 C 
ATOM      4  C   UNL     1      -2.617  13.069  20.009  0.00  0.00    +0.000 C 
ATOM      5  N   UNL     1      -1.901  12.964  21.272  0.00  0.00    +0.000 N 
ATOM      6  N   UNL     1      -2.133  13.809  22.293  0.00  0.00    +0.000 NA
ATOM      7  C   UNL     1      -1.268  13.347  23.196  0.00  0.00    +0.000 A 
ATOM      8  N   UNL     1      -0.479  12.317  22.769  0.00  0.00    +0.000 NA
ATOM      9  C   UNL     1      -0.905  12.058  21.555  0.00  0.00    +0.000 A 
ATOM     10  N   UNL     1      -0.513  11.058  20.622  0.00  0.00    +0.000 N 
ATOM     11  C   UNL     1       0.459  10.163  21.126  0.00  0.00    +0.000 C 
ATOM     12  O   UNL     1       0.831  10.097  22.300  0.00  0.00    +0.000 OA
ENDROOT
BRANCH  11  13
ATOM     13  C   UNL     1       1.177   9.212  20.241  0.00  0.00    +0.000 A 
ATOM     14  C   UNL     1       1.683   9.583  18.995  0.00  0.00    +0.000 A 
ATOM     15  C   UNL     1       2.265   8.623  18.159  0.00  0.00    +0.000 A 
ATOM     16  C   UNL     1       2.479   7.329  18.629  0.00  0.00    +0.000 A 
ATOM     17 CL   UNL     1       3.202   6.156  17.602  0.00  0.00    +0.000 Cl
ATOM     18  C   UNL     1       2.123   6.989  19.931  0.00  0.00    +0.000 A 
ATOM     19  C   UNL     1       1.462   7.926  20.731  0.00  0.00    +0.000 A 
ENDBRANCH  11  13
BRANCH   4  20
ATOM     20  C   UNL     1      -4.075  12.641  20.115  0.00  0.00    +0.000 A 
ATOM     21  C   UNL     1      -4.821  12.767  21.300  0.00  0.00    +0.000 A 
ATOM     22  C   UNL     1      -6.139  12.315  21.369  0.00  0.00    +0.000 A 
ATOM     23  C   UNL     1      -6.739  11.740  20.253  0.00  0.00    +0.000 A 
ATOM     24  C   UNL     1      -6.017  11.608  19.069  0.00  0.00    +0.000 A 
ATOM     25  C   UNL     1      -4.697  12.048  19.000  0.00  0.00    +0.000 A 
ENDBRANCH   4  20
TORSDOF 2
ENDMDL
MODEL 8
REMARK VINA RESULT:      -6.5      4.368      6.724
REMARK  Name = 
REMARK  3 active torsions:
REMARK  status: ('A' for Active; 'I' for Inactive)
REMARK    1  A    between atoms: C_1  and  C_2
REMARK    2  A    between atoms: C_4  and  C_5
REMARK    3  A    between atoms: C_17  and  C_19
REMARK                            x       y       z     vdW  Elec       q    Type
REMARK                         _______ _______ _______ _____ _____    ______ ____
ROOT
ATOM      1  C   UNL     1      -0.925  13.114  21.822  0.00  0.00    +0.000 C 
ATOM      2  C   UNL     1      -1.280  12.237  20.626  0.00  0.00    +0.000 C 
ATOM      3  C   UNL     1      -0.160  12.421  19.571  0.00  0.00    +0.000 C 
ATOM      4  C   UNL     1      -0.177  11.269  18.563  0.00  0.00    +0.000 C 
ATOM      5  N   UNL     1      -1.544  11.025  18.127  0.00  0.00    +0.000 N 
ATOM      6  N   UNL     1      -1.821  10.303  17.026  0.00  0.00    +0.000 NA
ATOM      7  C   UNL     1      -3.153  10.359  17.022  0.00  0.00    +0.000 A 
ATOM      8  N   UNL     1      -3.702  11.122  18.013  0.00  0.00    +0.000 NA
ATOM      9  C   UNL     1      -2.677  11.520  18.729  0.00  0.00    +0.000 A 
ATOM     10  N   UNL     1      -2.616  12.294  19.922  0.00  0.00    +0.000 N 
ATOM     11  C   UNL     1      -3.886  12.635  20.442  0.00  0.00    +0.000 C 
ATOM     12  O   UNL     1      -4.965  12.183  20.049  0.00  0.00    +0.000 OA
ENDROOT
BRANCH  11  13
ATOM     13  C   UNL     1      -4.042  13.636  21.525  0.00  0.00    +0.000 A 
ATOM     14  C   UNL     1      -3.943  15.010  21.297  0.00  0.00    +0.000 A 
ATOM     15  C   UNL     1      -4.001  15.905  22.370  0.00  0.00    +0.000 A 
ATOM     16  C   UNL     1      -4.311  15.443  23.648  0.00  0.00    +0.000 A 
ATOM     17 CL   UNL     1      -4.389  16.549  24.961  0.00  0.00    +0.000 Cl
ATOM     18  C   UNL     1      -4.571  14.092  23.859  0.00  0.00    +0.000 A 
ATOM     19  C   UNL     1      -4.424  13.189  22.802  0.00  0.00    +0.000 A 
ENDBRANCH  11  13
BRANCH   4  20
ATOM     20  C   UNL     1       0.496  10.026  19.132  0.00  0.00    +0.000 A 
ATOM     21  C   UNL     1       0.298   9.592  20.454  0.00  0.00    +0.000 A 
ATOM     22  C   UNL     1       0.974   8.478  20.952  0.00  0.00    +0.000 A 
ATOM     23  C   UNL     1       1.851   7.772  20.134  0.00  0.00    +0.000 A 
ATOM     24  C   UNL     1       2.061   8.186  18.822  0.00  0.00    +0.000 A 
ATOM     25  C   UNL     1       1.396   9.305  18.324  0.00  0.00    +0.000 A 
ENDBRANCH   4  20
TORSDOF 2
ENDMDL
MODEL 9
REMARK VINA RESULT:      -6.5      7.725      9.849
REMARK  Name = 
REMARK  3 active torsions:
REMARK  status: ('A' for Active; 'I' for Inactive)
REMARK    1  A    between atoms: C_1  and  C_2
REMARK    2  A    between atoms: C_4  and  C_5
REMARK    3  A    between atoms: C_17  and  C_19
REMARK                            x       y       z     vdW  Elec       q    Type
REMARK                         _______ _______ _______ _____ _____    ______ ____
ROOT
ATOM      1  C   UNL     1      -4.127  14.932  20.680  0.00  0.00    +0.000 C 
ATOM      2  C   UNL     1      -4.821  13.597  20.430  0.00  0.00    +0.000 C 
ATOM      3  C   UNL     1      -5.462  13.667  19.022  0.00  0.00    +0.000 C 
ATOM      4  C   UNL     1      -5.772  12.261  18.501  0.00  0.00    +0.000 C 
ATOM      5  N   UNL     1      -6.420  11.487  19.549  0.00  0.00    +0.000 N 
ATOM      6  N   UNL     1      -7.084  10.347  19.285  0.00  0.00    +0.000 NA
ATOM      7  C   UNL     1      -7.500  10.014  20.506  0.00  0.00    +0.000 A 
ATOM      8  N   UNL     1      -7.188  10.910  21.488  0.00  0.00    +0.000 NA
ATOM      9  C   UNL     1      -6.477  11.831  20.880  0.00  0.00    +0.000 A 
ATOM     10  N   UNL     1      -5.824  12.990  21.384  0.00  0.00    +0.000 N 
ATOM     11  C   UNL     1      -5.918  13.127  22.789  0.00  0.00    +0.000 C 
ATOM     12  O   UNL     1      -6.349  12.271  23.564  0.00  0.00    +0.000 OA
ENDROOT
BRANCH  11  13
ATOM     13  C   UNL     1      -5.525  14.382  23.478  0.00  0.00    +0.000 A 
ATOM     14  C   UNL     1      -4.278  14.547  24.083  0.00  0.00    +0.000 A 
ATOM     15  C   UNL     1      -3.996  15.713  24.803  0.00  0.00    +0.000 A 
ATOM     16  C   UNL     1      -4.898  16.774  24.790  0.00  0.00    +0.000 A 
ATOM     17 CL   UNL     1      -4.542  18.208  25.669  0.00  0.00    +0.000 Cl
ATOM     18  C   UNL     1      -6.077  16.683  24.056  0.00  0.00    +0.000 A 
ATOM     19  C   UNL     1      -6.396  15.483  23.412  0.00  0.00    +0.000 A 
ENDBRANCH  11  13
BRANCH   4  20
ATOM     20  C   UNL     1      -4.522  11.588  17.951  0.00  0.00    +0.000 A 
ATOM     21  C   UNL     1      -3.347  11.428  18.708  0.00  0.00    +0.000 A 
ATOM     22  C   UNL     1      -2.207  10.852  18.149  0.00  0.00    +0.000 A 
ATOM     23  C   UNL     1      -2.222  10.415  16.828  0.00  0.00    +0.000 A 
ATOM     24  C   UNL     1      -3.375  10.563  16.062  0.00  0.00    +0.000 A 
ATOM     25  C   UNL     1      -4.513  11.148  16.614  0.00  0.00    +0.000 A 
ENDBRANCH   4  20
TORSDOF 2
ENDMDL
