MODEL 1
REMARK VINA RESULT:      -6.8      0.000      0.000
REMARK  Name = 
REMARK  11 active torsions:
REMARK  status: ('A' for Active; 'I' for Inactive)
REMARK    1  A    between atoms: C_1  and  O_2
REMARK    2  A    between atoms: O_2  and  C_3
REMARK    3  A    between atoms: C_7  and  C_8
REMARK    4  A    between atoms: N_9  and  O_10
REMARK    5  A    between atoms: O_10  and  C_11
REMARK    6  A    between atoms: C_13  and  C_14
REMARK    7  A    between atoms: C_14  and  O_15
REMARK    8  A    between atoms: C_16  and  O_17
REMARK    9  A    between atoms: C_18  and  O_19
REMARK   10  A    between atoms: C_20  and  O_21
REMARK   11  A    between atoms: C_22  and  O_23
REMARK                            x       y       z     vdW  Elec       q    Type
REMARK                         _______ _______ _______ _____ _____    ______ ____
ROOT
ATOM      1  C   UNL     1       5.181   6.244  16.643  0.00  0.00    +0.000 C 
ATOM      2  O   UNL     1       5.125   5.837  15.265  0.00  0.00    +0.000 OA
ATOM      3  C   UNL     1       5.616   4.498  15.062  0.00  0.00    +0.000 C 
ATOM      4  C   UNL     1       7.103   4.441  15.446  0.00  0.00    +0.000 C 
ATOM      5  C   UNL     1       7.313   4.923  16.895  0.00  0.00    +0.000 C 
ATOM      6  C   UNL     1       6.645   6.292  17.116  0.00  0.00    +0.000 C 
ENDROOT
BRANCH   4   7
ATOM      7  O   UNL     1       7.876   5.266  14.565  0.00  0.00    +0.000 OA
ATOM      8  H   UNL     1       8.761   4.862  14.465  0.00  0.00    +0.000 HD
ENDBRANCH   4   7
BRANCH   5   9
ATOM      9  O   UNL     1       6.818   3.968  17.850  0.00  0.00    +0.000 OA
ATOM     10  H   UNL     1       5.939   3.655  17.561  0.00  0.00    +0.000 HD
ENDBRANCH   5   9
BRANCH   6  11
ATOM     11  O   UNL     1       6.752   6.684  18.491  0.00  0.00    +0.000 OA
ATOM     12  H   UNL     1       6.896   5.865  19.006  0.00  0.00    +0.000 HD
ENDBRANCH   6  11
BRANCH   1  13
ATOM     13  O   UNL     1       4.423   5.385  17.530  0.00  0.00    +0.000 OA
BRANCH  13  15
ATOM     14  C   UNL     1       2.985   6.980  18.066  0.00  0.00    +0.000 C 
ATOM     15  N   UNL     1       3.873   6.174  18.557  0.00  0.00    +0.000 NA
BRANCH  14  20
ATOM     16  C   UNL     1       0.914   9.859  19.413  0.00  0.00    +0.000 A 
ATOM     17  C   UNL     1       0.663   9.373  20.706  0.00  0.00    +0.000 A 
ATOM     18  C   UNL     1       1.165   8.144  21.129  0.00  0.00    +0.000 A 
ATOM     19  C   UNL     1       1.924   7.379  20.253  0.00  0.00    +0.000 A 
ATOM     20  C   UNL     1       2.193   7.848  18.958  0.00  0.00    +0.000 A 
ATOM     21  C   UNL     1       1.693   9.094  18.531  0.00  0.00    +0.000 A 
BRANCH  16  23
ATOM     22  C   UNL     1      -0.994  11.099  18.644  0.00  0.00    +0.000 C 
ATOM     23  O   UNL     1       0.313  11.071  19.195  0.00  0.00    +0.000 OA
ENDBRANCH  16  23
BRANCH  21  24
ATOM     24  O   UNL     1       1.940   9.562  17.269  0.00  0.00    +0.000 OA
ATOM     25  H   UNL     1       1.396   9.103  16.610  0.00  0.00    +0.000 HD
ENDBRANCH  21  24
ENDBRANCH  14  20
ENDBRANCH  13  15
ENDBRANCH   1  13
BRANCH   3  26
ATOM     26  C   UNL     1       5.390   4.118  13.588  0.00  0.00    +0.000 C 
BRANCH  26  27
ATOM     27  O   UNL     1       6.345   3.157  13.127  0.00  0.00    +0.000 OA
ATOM     28  H   UNL     1       5.973   2.270  13.262  0.00  0.00    +0.000 HD
ENDBRANCH  26  27
ENDBRANCH   3  26
TORSDOF 10
ENDMDL
MODEL 2
REMARK VINA RESULT:      -6.8      1.835      3.335
REMARK  Name = 
REMARK  11 active torsions:
REMARK  status: ('A' for Active; 'I' for Inactive)
REMARK    1  A    between atoms: C_1  and  O_2
REMARK    2  A    between atoms: O_2  and  C_3
REMARK    3  A    between atoms: C_7  and  C_8
REMARK    4  A    between atoms: N_9  and  O_10
REMARK    5  A    between atoms: O_10  and  C_11
REMARK    6  A    between atoms: C_13  and  C_14
REMARK    7  A    between atoms: C_14  and  O_15
REMARK    8  A    between atoms: C_16  and  O_17
REMARK    9  A    between atoms: C_18  and  O_19
REMARK   10  A    between atoms: C_20  and  O_21
REMARK   11  A    between atoms: C_22  and  O_23
REMARK                            x       y       z     vdW  Elec       q    Type
REMARK                         _______ _______ _______ _____ _____    ______ ____
ROOT
ATOM      1  C   UNL     1       4.570   5.109  18.395  0.00  0.00    +0.000 C 
ATOM      2  O   UNL     1       5.785   5.771  18.787  0.00  0.00    +0.000 OA
ATOM      3  C   UNL     1       6.613   6.123  17.662  0.00  0.00    +0.000 C 
ATOM      4  C   UNL     1       7.060   4.840  16.943  0.00  0.00    +0.000 C 
ATOM      5  C   UNL     1       5.840   3.994  16.525  0.00  0.00    +0.000 C 
ATOM      6  C   UNL     1       4.900   3.765  17.721  0.00  0.00    +0.000 C 
ENDROOT
BRANCH   4   7
ATOM      7  O   UNL     1       7.898   4.055  17.801  0.00  0.00    +0.000 OA
ATOM      8  H   UNL     1       8.068   3.198  17.360  0.00  0.00    +0.000 HD
ENDBRANCH   4   7
BRANCH   5   9
ATOM      9  O   UNL     1       5.121   4.600  15.437  0.00  0.00    +0.000 OA
ATOM     10  H   UNL     1       4.556   5.316  15.787  0.00  0.00    +0.000 HD
ENDBRANCH   5   9
BRANCH   6  11
ATOM     11  O   UNL     1       3.718   3.071  17.303  0.00  0.00    +0.000 OA
ATOM     12  H   UNL     1       3.178   2.928  18.106  0.00  0.00    +0.000 HD
ENDBRANCH   6  11
BRANCH   1  13
ATOM     13  O   UNL     1       3.745   5.898  17.503  0.00  0.00    +0.000 OA
BRANCH  13  15
ATOM     14  C   UNL     1       2.786   7.751  18.240  0.00  0.00    +0.000 C 
ATOM     15  N   UNL     1       2.690   6.458  18.246  0.00  0.00    +0.000 NA
BRANCH  14  20
ATOM     16  C   UNL     1       0.425   9.281  20.785  0.00  0.00    +0.000 A 
ATOM     17  C   UNL     1      -0.209  10.229  19.967  0.00  0.00    +0.000 A 
ATOM     18  C   UNL     1       0.119  10.357  18.618  0.00  0.00    +0.000 A 
ATOM     19  C   UNL     1       1.097   9.537  18.072  0.00  0.00    +0.000 A 
ATOM     20  C   UNL     1       1.740   8.578  18.871  0.00  0.00    +0.000 A 
ATOM     21  C   UNL     1       1.404   8.441  20.232  0.00  0.00    +0.000 A 
BRANCH  16  23
ATOM     22  C   UNL     1      -0.680  10.513  22.527  0.00  0.00    +0.000 C 
ATOM     23  O   UNL     1      -0.027   9.336  22.078  0.00  0.00    +0.000 OA
ENDBRANCH  16  23
BRANCH  21  24
ATOM     24  O   UNL     1       2.027   7.516  21.026  0.00  0.00    +0.000 OA
ATOM     25  H   UNL     1       2.744   7.919  21.541  0.00  0.00    +0.000 HD
ENDBRANCH  21  24
ENDBRANCH  14  20
ENDBRANCH  13  15
ENDBRANCH   1  13
BRANCH   3  26
ATOM     26  C   UNL     1       7.813   6.936  18.180  0.00  0.00    +0.000 C 
BRANCH  26  27
ATOM     27  O   UNL     1       8.360   6.383  19.380  0.00  0.00    +0.000 OA
ATOM     28  H   UNL     1       7.634   6.000  19.899  0.00  0.00    +0.000 HD
ENDBRANCH  26  27
ENDBRANCH   3  26
TORSDOF 10
ENDMDL
MODEL 3
REMARK VINA RESULT:      -6.7      1.300      1.836
REMARK  Name = 
REMARK  11 active torsions:
REMARK  status: ('A' for Active; 'I' for Inactive)
REMARK    1  A    between atoms: C_1  and  O_2
REMARK    2  A    between atoms: O_2  and  C_3
REMARK    3  A    between atoms: C_7  and  C_8
REMARK    4  A    between atoms: N_9  and  O_10
REMARK    5  A    between atoms: O_10  and  C_11
REMARK    6  A    between atoms: C_13  and  C_14
REMARK    7  A    between atoms: C_14  and  O_15
REMARK    8  A    between atoms: C_16  and  O_17
REMARK    9  A    between atoms: C_18  and  O_19
REMARK   10  A    between atoms: C_20  and  O_21
REMARK   11  A    between atoms: C_22  and  O_23
REMARK                            x       y       z     vdW  Elec       q    Type
REMARK                         _______ _______ _______ _____ _____    ______ ____
ROOT
ATOM      1  C   UNL     1       5.273   6.374  16.508  0.00  0.00    +0.000 C 
ATOM      2  O   UNL     1       5.199   5.899  15.153  0.00  0.00    +0.000 OA
ATOM      3  C   UNL     1       5.610   4.525  15.024  0.00  0.00    +0.000 C 
ATOM      4  C   UNL     1       7.091   4.402  15.420  0.00  0.00    +0.000 C 
ATOM      5  C   UNL     1       7.322   4.947  16.844  0.00  0.00    +0.000 C 
ATOM      6  C   UNL     1       6.735   6.362  16.988  0.00  0.00    +0.000 C 
ENDROOT
BRANCH   4   7
ATOM      7  O   UNL     1       7.914   5.133  14.503  0.00  0.00    +0.000 OA
ATOM      8  H   UNL     1       7.990   4.611  13.679  0.00  0.00    +0.000 HD
ENDBRANCH   4   7
BRANCH   5   9
ATOM      9  O   UNL     1       6.769   4.074  17.844  0.00  0.00    +0.000 OA
ATOM     10  H   UNL     1       6.911   3.147  17.572  0.00  0.00    +0.000 HD
ENDBRANCH   5   9
BRANCH   6  11
ATOM     11  O   UNL     1       6.859   6.819  18.341  0.00  0.00    +0.000 OA
ATOM     12  H   UNL     1       7.811   6.786  18.562  0.00  0.00    +0.000 HD
ENDBRANCH   6  11
BRANCH   1  13
ATOM     13  O   UNL     1       4.462   5.609  17.433  0.00  0.00    +0.000 OA
BRANCH  13  15
ATOM     14  C   UNL     1       3.013   7.246  17.779  0.00  0.00    +0.000 C 
ATOM     15  N   UNL     1       3.890   6.494  18.366  0.00  0.00    +0.000 NA
BRANCH  14  20
ATOM     16  C   UNL     1       1.153   8.926  20.627  0.00  0.00    +0.000 A 
ATOM     17  C   UNL     1       0.708  10.078  19.960  0.00  0.00    +0.000 A 
ATOM     18  C   UNL     1       0.999  10.295  18.614  0.00  0.00    +0.000 A 
ATOM     19  C   UNL     1       1.750   9.357  17.918  0.00  0.00    +0.000 A 
ATOM     20  C   UNL     1       2.201   8.195  18.564  0.00  0.00    +0.000 A 
ATOM     21  C   UNL     1       1.900   7.970  19.921  0.00  0.00    +0.000 A 
BRANCH  16  23
ATOM     22  C   UNL     1      -0.593   8.751  22.268  0.00  0.00    +0.000 C 
ATOM     23  O   UNL     1       0.778   8.920  21.945  0.00  0.00    +0.000 OA
ENDBRANCH  16  23
BRANCH  21  24
ATOM     24  O   UNL     1       2.338   6.845  20.567  0.00  0.00    +0.000 OA
ATOM     25  H   UNL     1       3.306   6.832  20.636  0.00  0.00    +0.000 HD
ENDBRANCH  21  24
ENDBRANCH  14  20
ENDBRANCH  13  15
ENDBRANCH   1  13
BRANCH   3  26
ATOM     26  C   UNL     1       5.368   4.081  13.570  0.00  0.00    +0.000 C 
BRANCH  26  27
ATOM     27  O   UNL     1       6.379   3.181  13.107  0.00  0.00    +0.000 OA
ATOM     28  H   UNL     1       7.231   3.648  13.119  0.00  0.00    +0.000 HD
ENDBRANCH  26  27
ENDBRANCH   3  26
TORSDOF 10
ENDMDL
MODEL 4
REMARK VINA RESULT:      -6.6      1.299      1.500
REMARK  Name = 
REMARK  11 active torsions:
REMARK  status: ('A' for Active; 'I' for Inactive)
REMARK    1  A    between atoms: C_1  and  O_2
REMARK    2  A    between atoms: O_2  and  C_3
REMARK    3  A    between atoms: C_7  and  C_8
REMARK    4  A    between atoms: N_9  and  O_10
REMARK    5  A    between atoms: O_10  and  C_11
REMARK    6  A    between atoms: C_13  and  C_14
REMARK    7  A    between atoms: C_14  and  O_15
REMARK    8  A    between atoms: C_16  and  O_17
REMARK    9  A    between atoms: C_18  and  O_19
REMARK   10  A    between atoms: C_20  and  O_21
REMARK   11  A    between atoms: C_22  and  O_23
REMARK                            x       y       z     vdW  Elec       q    Type
REMARK                         _______ _______ _______ _____ _____    ______ ____
ROOT
ATOM      1  C   UNL     1       5.587   6.649  17.310  0.00  0.00    +0.000 C 
ATOM      2  O   UNL     1       6.339   6.399  16.110  0.00  0.00    +0.000 OA
ATOM      3  C   UNL     1       6.061   5.106  15.540  0.00  0.00    +0.000 C 
ATOM      4  C   UNL     1       6.495   4.013  16.530  0.00  0.00    +0.000 C 
ATOM      5  C   UNL     1       5.806   4.207  17.895  0.00  0.00    +0.000 C 
ATOM      6  C   UNL     1       5.998   5.647  18.404  0.00  0.00    +0.000 C 
ENDROOT
BRANCH   4   7
ATOM      7  O   UNL     1       7.916   4.048  16.718  0.00  0.00    +0.000 OA
ATOM      8  H   UNL     1       8.118   4.729  17.391  0.00  0.00    +0.000 HD
ENDBRANCH   4   7
BRANCH   5   9
ATOM      9  O   UNL     1       4.406   3.884  17.834  0.00  0.00    +0.000 OA
ATOM     10  H   UNL     1       4.278   2.964  18.135  0.00  0.00    +0.000 HD
ENDBRANCH   5   9
BRANCH   6  11
ATOM     11  O   UNL     1       5.266   5.850  19.619  0.00  0.00    +0.000 OA
ATOM     12  H   UNL     1       5.925   5.889  20.340  0.00  0.00    +0.000 HD
ENDBRANCH   6  11
BRANCH   1  13
ATOM     13  O   UNL     1       4.153   6.580  17.116  0.00  0.00    +0.000 OA
BRANCH  13  15
ATOM     14  C   UNL     1       2.528   7.317  18.426  0.00  0.00    +0.000 C 
ATOM     15  N   UNL     1       3.562   7.694  17.740  0.00  0.00    +0.000 NA
BRANCH  14  20
ATOM     16  C   UNL     1       0.609  10.387  19.560  0.00  0.00    +0.000 A 
ATOM     17  C   UNL     1       0.360  10.020  20.892  0.00  0.00    +0.000 A 
ATOM     18  C   UNL     1       0.817   8.809  21.408  0.00  0.00    +0.000 A 
ATOM     19  C   UNL     1       1.525   7.941  20.588  0.00  0.00    +0.000 A 
ATOM     20  C   UNL     1       1.790   8.289  19.255  0.00  0.00    +0.000 A 
ATOM     21  C   UNL     1       1.338   9.518  18.733  0.00  0.00    +0.000 A 
BRANCH  16  23
ATOM     22  C   UNL     1      -1.347  11.771  19.379  0.00  0.00    +0.000 C 
ATOM     23  O   UNL     1       0.056  11.602  19.251  0.00  0.00    +0.000 OA
ENDBRANCH  16  23
BRANCH  21  24
ATOM     24  O   UNL     1       1.581   9.868  17.433  0.00  0.00    +0.000 OA
ATOM     25  H   UNL     1       1.034  10.623  17.162  0.00  0.00    +0.000 HD
ENDBRANCH  21  24
ENDBRANCH  14  20
ENDBRANCH  13  15
ENDBRANCH   1  13
BRANCH   3  26
ATOM     26  C   UNL     1       6.811   4.996  14.200  0.00  0.00    +0.000 C 
BRANCH  26  27
ATOM     27  O   UNL     1       8.082   5.651  14.240  0.00  0.00    +0.000 OA
ATOM     28  H   UNL     1       8.466   5.625  13.348  0.00  0.00    +0.000 HD
ENDBRANCH  26  27
ENDBRANCH   3  26
TORSDOF 10
ENDMDL
MODEL 5
REMARK VINA RESULT:      -6.6      2.870      4.344
REMARK  Name = 
REMARK  11 active torsions:
REMARK  status: ('A' for Active; 'I' for Inactive)
REMARK    1  A    between atoms: C_1  and  O_2
REMARK    2  A    between atoms: O_2  and  C_3
REMARK    3  A    between atoms: C_7  and  C_8
REMARK    4  A    between atoms: N_9  and  O_10
REMARK    5  A    between atoms: O_10  and  C_11
REMARK    6  A    between atoms: C_13  and  C_14
REMARK    7  A    between atoms: C_14  and  O_15
REMARK    8  A    between atoms: C_16  and  O_17
REMARK    9  A    between atoms: C_18  and  O_19
REMARK   10  A    between atoms: C_20  and  O_21
REMARK   11  A    between atoms: C_22  and  O_23
REMARK                            x       y       z     vdW  Elec       q    Type
REMARK                         _______ _______ _______ _____ _____    ______ ____
ROOT
ATOM      1  C   UNL     1       2.640   4.805  18.078  0.00  0.00    +0.000 C 
ATOM      2  O   UNL     1       1.669   4.216  18.959  0.00  0.00    +0.000 OA
ATOM      3  C   UNL     1       2.270   3.392  19.976  0.00  0.00    +0.000 C 
ATOM      4  C   UNL     1       2.988   2.208  19.309  0.00  0.00    +0.000 C 
ATOM      5  C   UNL     1       4.021   2.706  18.278  0.00  0.00    +0.000 C 
ATOM      6  C   UNL     1       3.376   3.701  17.297  0.00  0.00    +0.000 C 
ENDROOT
BRANCH   4   7
ATOM      7  O   UNL     1       2.040   1.362  18.645  0.00  0.00    +0.000 OA
ATOM      8  H   UNL     1       1.148   1.740  18.778  0.00  0.00    +0.000 HD
ENDBRANCH   4   7
BRANCH   5   9
ATOM      9  O   UNL     1       5.162   3.305  18.916  0.00  0.00    +0.000 OA
ATOM     10  H   UNL     1       5.490   4.038  18.360  0.00  0.00    +0.000 HD
ENDBRANCH   5   9
BRANCH   6  11
ATOM     11  O   UNL     1       4.364   4.241  16.410  0.00  0.00    +0.000 OA
ATOM     12  H   UNL     1       4.908   4.858  16.939  0.00  0.00    +0.000 HD
ENDBRANCH   6  11
BRANCH   1  13
ATOM     13  O   UNL     1       3.612   5.633  18.761  0.00  0.00    +0.000 OA
BRANCH  13  15
ATOM     14  C   UNL     1       2.506   7.550  18.766  0.00  0.00    +0.000 C 
ATOM     15  N   UNL     1       2.925   6.591  19.530  0.00  0.00    +0.000 NA
BRANCH  14  20
ATOM     16  C   UNL     1       0.534  10.769  19.143  0.00  0.00    +0.000 A 
ATOM     17  C   UNL     1       0.038  10.581  20.443  0.00  0.00    +0.000 A 
ATOM     18  C   UNL     1       0.349   9.440  21.179  0.00  0.00    +0.000 A 
ATOM     19  C   UNL     1       1.158   8.462  20.616  0.00  0.00    +0.000 A 
ATOM     20  C   UNL     1       1.670   8.632  19.319  0.00  0.00    +0.000 A 
ATOM     21  C   UNL     1       1.364   9.789  18.577  0.00  0.00    +0.000 A 
BRANCH  16  23
ATOM     22  C   UNL     1       0.840  13.129  18.811  0.00  0.00    +0.000 C 
ATOM     23  O   UNL     1       0.093  11.943  18.590  0.00  0.00    +0.000 OA
ENDBRANCH  16  23
BRANCH  21  24
ATOM     24  O   UNL     1       1.849   9.966  17.309  0.00  0.00    +0.000 OA
ATOM     25  H   UNL     1       2.644   9.431  17.157  0.00  0.00    +0.000 HD
ENDBRANCH  21  24
ENDBRANCH  14  20
ENDBRANCH  13  15
ENDBRANCH   1  13
BRANCH   3  26
ATOM     26  C   UNL     1       1.162   2.922  20.937  0.00  0.00    +0.000 C 
BRANCH  26  27
ATOM     27  O   UNL     1       1.692   2.452  22.180  0.00  0.00    +0.000 OA
ATOM     28  H   UNL     1       1.206   1.650  22.434  0.00  0.00    +0.000 HD
ENDBRANCH  26  27
ENDBRANCH   3  26
TORSDOF 10
ENDMDL
MODEL 6
REMARK VINA RESULT:      -6.6      1.709      2.176
REMARK  Name = 
REMARK  11 active torsions:
REMARK  status: ('A' for Active; 'I' for Inactive)
REMARK    1  A    between atoms: C_1  and  O_2
REMARK    2  A    between atoms: O_2  and  C_3
REMARK    3  A    between atoms: C_7  and  C_8
REMARK    4  A    between atoms: N_9  and  O_10
REMARK    5  A    between atoms: O_10  and  C_11
REMARK    6  A    between atoms: C_13  and  C_14
REMARK    7  A    between atoms: C_14  and  O_15
REMARK    8  A    between atoms: C_16  and  O_17
REMARK    9  A    between atoms: C_18  and  O_19
REMARK   10  A    between atoms: C_20  and  O_21
REMARK   11  A    between atoms: C_22  and  O_23
REMARK                            x       y       z     vdW  Elec       q    Type
REMARK                         _______ _______ _______ _____ _____    ______ ____
ROOT
ATOM      1  C   UNL     1       4.538   6.176  17.401  0.00  0.00    +0.000 C 
ATOM      2  O   UNL     1       5.072   6.052  16.072  0.00  0.00    +0.000 OA
ATOM      3  C   UNL     1       5.295   4.681  15.689  0.00  0.00    +0.000 C 
ATOM      4  C   UNL     1       6.354   4.063  16.616  0.00  0.00    +0.000 C 
ATOM      5  C   UNL     1       5.931   4.194  18.093  0.00  0.00    +0.000 C 
ATOM      6  C   UNL     1       5.557   5.648  18.427  0.00  0.00    +0.000 C 
ENDROOT
BRANCH   4   7
ATOM      7  O   UNL     1       7.616   4.718  16.434  0.00  0.00    +0.000 OA
ATOM      8  H   UNL     1       7.786   4.792  15.474  0.00  0.00    +0.000 HD
ENDBRANCH   4   7
BRANCH   5   9
ATOM      9  O   UNL     1       4.840   3.313  18.413  0.00  0.00    +0.000 OA
ATOM     10  H   UNL     1       4.897   2.518  17.849  0.00  0.00    +0.000 HD
ENDBRANCH   5   9
BRANCH   6  11
ATOM     11  O   UNL     1       5.064   5.743  19.769  0.00  0.00    +0.000 OA
ATOM     12  H   UNL     1       5.522   6.501  20.183  0.00  0.00    +0.000 HD
ENDBRANCH   6  11
BRANCH   1  13
ATOM     13  O   UNL     1       3.278   5.485  17.583  0.00  0.00    +0.000 OA
BRANCH  13  15
ATOM     14  C   UNL     1       2.571   7.521  18.088  0.00  0.00    +0.000 C 
ATOM     15  N   UNL     1       2.450   6.270  18.407  0.00  0.00    +0.000 NA
BRANCH  14  20
ATOM     16  C   UNL     1       0.790   9.603  20.711  0.00  0.00    +0.000 A 
ATOM     17  C   UNL     1       0.168  10.542  19.873  0.00  0.00    +0.000 A 
ATOM     18  C   UNL     1       0.318  10.489  18.488  0.00  0.00    +0.000 A 
ATOM     19  C   UNL     1       1.104   9.493  17.924  0.00  0.00    +0.000 A 
ATOM     20  C   UNL     1       1.731   8.541  18.743  0.00  0.00    +0.000 A 
ATOM     21  C   UNL     1       1.573   8.587  20.142  0.00  0.00    +0.000 A 
BRANCH  16  23
ATOM     22  C   UNL     1      -0.555   9.179  22.656  0.00  0.00    +0.000 C 
ATOM     23  O   UNL     1       0.531   9.847  22.035  0.00  0.00    +0.000 OA
ENDBRANCH  16  23
BRANCH  21  24
ATOM     24  O   UNL     1       2.184   7.670  20.955  0.00  0.00    +0.000 OA
ATOM     25  H   UNL     1       2.343   6.835  20.487  0.00  0.00    +0.000 HD
ENDBRANCH  21  24
ENDBRANCH  14  20
ENDBRANCH  13  15
ENDBRANCH   1  13
BRANCH   3  26
ATOM     26  C   UNL     1       5.738   4.655  14.216  0.00  0.00    +0.000 C 
BRANCH  26  27
ATOM     27  O   UNL     1       6.348   3.412  13.859  0.00  0.00    +0.000 OA
ATOM     28  H   UNL     1       7.248   3.398  14.224  0.00  0.00    +0.000 HD
ENDBRANCH  26  27
ENDBRANCH   3  26
TORSDOF 10
ENDMDL
MODEL 7
REMARK VINA RESULT:      -6.6      1.976      2.757
REMARK  Name = 
REMARK  11 active torsions:
REMARK  status: ('A' for Active; 'I' for Inactive)
REMARK    1  A    between atoms: C_1  and  O_2
REMARK    2  A    between atoms: O_2  and  C_3
REMARK    3  A    between atoms: C_7  and  C_8
REMARK    4  A    between atoms: N_9  and  O_10
REMARK    5  A    between atoms: O_10  and  C_11
REMARK    6  A    between atoms: C_13  and  C_14
REMARK    7  A    between atoms: C_14  and  O_15
REMARK    8  A    between atoms: C_16  and  O_17
REMARK    9  A    between atoms: C_18  and  O_19
REMARK   10  A    between atoms: C_20  and  O_21
REMARK   11  A    between atoms: C_22  and  O_23
REMARK                            x       y       z     vdW  Elec       q    Type
REMARK                         _______ _______ _______ _____ _____    ______ ____
ROOT
ATOM      1  C   UNL     1       4.402   6.404  17.891  0.00  0.00    +0.000 C 
ATOM      2  O   UNL     1       5.331   6.255  16.804  0.00  0.00    +0.000 OA
ATOM      3  C   UNL     1       5.288   4.943  16.214  0.00  0.00    +0.000 C 
ATOM      4  C   UNL     1       5.716   3.903  17.262  0.00  0.00    +0.000 C 
ATOM      5  C   UNL     1       4.833   4.003  18.522  0.00  0.00    +0.000 C 
ATOM      6  C   UNL     1       4.782   5.451  19.039  0.00  0.00    +0.000 C 
ENDROOT
BRANCH   4   7
ATOM      7  O   UNL     1       7.085   4.108  17.636  0.00  0.00    +0.000 OA
ATOM      8  H   UNL     1       7.608   3.352  17.303  0.00  0.00    +0.000 HD
ENDBRANCH   4   7
BRANCH   5   9
ATOM      9  O   UNL     1       3.503   3.514  18.279  0.00  0.00    +0.000 OA
ATOM     10  H   UNL     1       3.334   2.747  18.861  0.00  0.00    +0.000 HD
ENDBRANCH   5   9
BRANCH   6  11
ATOM     11  O   UNL     1       3.876   5.557  20.145  0.00  0.00    +0.000 OA
ATOM     12  H   UNL     1       3.834   6.504  20.383  0.00  0.00    +0.000 HD
ENDBRANCH   6  11
BRANCH   1  13
ATOM     13  O   UNL     1       3.025   6.165  17.510  0.00  0.00    +0.000 OA
BRANCH  13  15
ATOM     14  C   UNL     1       2.331   8.101  18.328  0.00  0.00    +0.000 C 
ATOM     15  N   UNL     1       2.184   6.817  18.431  0.00  0.00    +0.000 NA
BRANCH  14  20
ATOM     16  C   UNL     1       0.598   9.827  21.227  0.00  0.00    +0.000 A 
ATOM     17  C   UNL     1      -0.093  10.823  20.519  0.00  0.00    +0.000 A 
ATOM     18  C   UNL     1      -0.004  10.920  19.131  0.00  0.00    +0.000 A 
ATOM     19  C   UNL     1       0.790  10.020  18.433  0.00  0.00    +0.000 A 
ATOM     20  C   UNL     1       1.486   9.013  19.121  0.00  0.00    +0.000 A 
ATOM     21  C   UNL     1       1.390   8.908  20.522  0.00  0.00    +0.000 A 
BRANCH  16  23
ATOM     22  C   UNL     1      -0.897  10.281  23.052  0.00  0.00    +0.000 C 
ATOM     23  O   UNL     1       0.391   9.922  22.579  0.00  0.00    +0.000 OA
ENDBRANCH  16  23
BRANCH  21  24
ATOM     24  O   UNL     1       2.068   7.936  21.208  0.00  0.00    +0.000 OA
ATOM     25  H   UNL     1       2.934   7.761  20.807  0.00  0.00    +0.000 HD
ENDBRANCH  21  24
ENDBRANCH  14  20
ENDBRANCH  13  15
ENDBRANCH   1  13
BRANCH   3  26
ATOM     26  C   UNL     1       6.217   4.933  14.986  0.00  0.00    +0.000 C 
BRANCH  26  27
ATOM     27  O   UNL     1       7.462   5.589  15.248  0.00  0.00    +0.000 OA
ATOM     28  H   UNL     1       7.486   6.413  14.735  0.00  0.00    +0.000 HD
ENDBRANCH  26  27
ENDBRANCH   3  26
TORSDOF 10
ENDMDL
MODEL 8
REMARK VINA RESULT:      -6.6      1.416      2.894
REMARK  Name = 
REMARK  11 active torsions:
REMARK  status: ('A' for Active; 'I' for Inactive)
REMARK    1  A    between atoms: C_1  and  O_2
REMARK    2  A    between atoms: O_2  and  C_3
REMARK    3  A    between atoms: C_7  and  C_8
REMARK    4  A    between atoms: N_9  and  O_10
REMARK    5  A    between atoms: O_10  and  C_11
REMARK    6  A    between atoms: C_13  and  C_14
REMARK    7  A    between atoms: C_14  and  O_15
REMARK    8  A    between atoms: C_16  and  O_17
REMARK    9  A    between atoms: C_18  and  O_19
REMARK   10  A    between atoms: C_20  and  O_21
REMARK   11  A    between atoms: C_22  and  O_23
REMARK                            x       y       z     vdW  Elec       q    Type
REMARK                         _______ _______ _______ _____ _____    ______ ____
ROOT
ATOM      1  C   UNL     1       4.572   5.361  18.092  0.00  0.00    +0.000 C 
ATOM      2  O   UNL     1       5.785   5.901  18.643  0.00  0.00    +0.000 OA
ATOM      3  C   UNL     1       6.773   6.189  17.636  0.00  0.00    +0.000 C 
ATOM      4  C   UNL     1       7.185   4.880  16.944  0.00  0.00    +0.000 C 
ATOM      5  C   UNL     1       5.953   4.158  16.361  0.00  0.00    +0.000 C 
ATOM      6  C   UNL     1       4.857   4.001  17.430  0.00  0.00    +0.000 C 
ENDROOT
BRANCH   4   7
ATOM      7  O   UNL     1       7.836   4.008  17.877  0.00  0.00    +0.000 OA
ATOM      8  H   UNL     1       7.965   3.140  17.444  0.00  0.00    +0.000 HD
ENDBRANCH   4   7
BRANCH   5   9
ATOM      9  O   UNL     1       5.431   4.843  15.210  0.00  0.00    +0.000 OA
ATOM     10  H   UNL     1       6.173   5.102  14.629  0.00  0.00    +0.000 HD
ENDBRANCH   5   9
BRANCH   6  11
ATOM     11  O   UNL     1       3.676   3.427  16.855  0.00  0.00    +0.000 OA
ATOM     12  H   UNL     1       2.915   3.887  17.262  0.00  0.00    +0.000 HD
ENDBRANCH   6  11
BRANCH   1  13
ATOM     13  O   UNL     1       3.938   6.236  17.127  0.00  0.00    +0.000 OA
BRANCH  13  15
ATOM     14  C   UNL     1       2.405   7.209  18.393  0.00  0.00    +0.000 C 
ATOM     15  N   UNL     1       3.532   7.412  17.785  0.00  0.00    +0.000 NA
BRANCH  14  20
ATOM     16  C   UNL     1       0.899  10.486  19.570  0.00  0.00    +0.000 A 
ATOM     17  C   UNL     1       0.656  10.156  20.913  0.00  0.00    +0.000 A 
ATOM     18  C   UNL     1       0.986   8.901  21.422  0.00  0.00    +0.000 A 
ATOM     19  C   UNL     1       1.559   7.953  20.584  0.00  0.00    +0.000 A 
ATOM     20  C   UNL     1       1.815   8.264  19.239  0.00  0.00    +0.000 A 
ATOM     21  C   UNL     1       1.492   9.535  18.725  0.00  0.00    +0.000 A 
BRANCH  16  23
ATOM     22  C   UNL     1       1.371  12.840  19.493  0.00  0.00    +0.000 C 
ATOM     23  O   UNL     1       0.482  11.757  19.271  0.00  0.00    +0.000 OA
ENDBRANCH  16  23
BRANCH  21  24
ATOM     24  O   UNL     1       1.729   9.850  17.414  0.00  0.00    +0.000 OA
ATOM     25  H   UNL     1       1.214   9.286  16.817  0.00  0.00    +0.000 HD
ENDBRANCH  21  24
ENDBRANCH  14  20
ENDBRANCH  13  15
ENDBRANCH   1  13
BRANCH   3  26
ATOM     26  C   UNL     1       7.970   6.879  18.314  0.00  0.00    +0.000 C 
BRANCH  26  27
ATOM     27  O   UNL     1       8.338   6.238  19.538  0.00  0.00    +0.000 OA
ATOM     28  H   UNL     1       9.298   6.331  19.654  0.00  0.00    +0.000 HD
ENDBRANCH  26  27
ENDBRANCH   3  26
TORSDOF 10
ENDMDL
MODEL 9
REMARK VINA RESULT:      -6.5      3.031      4.636
REMARK  Name = 
REMARK  11 active torsions:
REMARK  status: ('A' for Active; 'I' for Inactive)
REMARK    1  A    between atoms: C_1  and  O_2
REMARK    2  A    between atoms: O_2  and  C_3
REMARK    3  A    between atoms: C_7  and  C_8
REMARK    4  A    between atoms: N_9  and  O_10
REMARK    5  A    between atoms: O_10  and  C_11
REMARK    6  A    between atoms: C_13  and  C_14
REMARK    7  A    between atoms: C_14  and  O_15
REMARK    8  A    between atoms: C_16  and  O_17
REMARK    9  A    between atoms: C_18  and  O_19
REMARK   10  A    between atoms: C_20  and  O_21
REMARK   11  A    between atoms: C_22  and  O_23
REMARK                            x       y       z     vdW  Elec       q    Type
REMARK                         _______ _______ _______ _____ _____    ______ ____
ROOT
ATOM      1  C   UNL     1       2.702   4.780  17.993  0.00  0.00    +0.000 C 
ATOM      2  O   UNL     1       1.751   4.337  18.976  0.00  0.00    +0.000 OA
ATOM      3  C   UNL     1       2.366   3.609  20.055  0.00  0.00    +0.000 C 
ATOM      4  C   UNL     1       3.008   2.327  19.500  0.00  0.00    +0.000 C 
ATOM      5  C   UNL     1       4.010   2.660  18.377  0.00  0.00    +0.000 C 
ATOM      6  C   UNL     1       3.360   3.564  17.315  0.00  0.00    +0.000 C 
ENDROOT
BRANCH   4   7
ATOM      7  O   UNL     1       1.999   1.452  18.978  0.00  0.00    +0.000 OA
ATOM      8  H   UNL     1       2.131   1.377  18.011  0.00  0.00    +0.000 HD
ENDBRANCH   4   7
BRANCH   5   9
ATOM      9  O   UNL     1       5.202   3.278  18.894  0.00  0.00    +0.000 OA
ATOM     10  H   UNL     1       5.952   3.065  18.307  0.00  0.00    +0.000 HD
ENDBRANCH   5   9
BRANCH   6  11
ATOM     11  O   UNL     1       4.326   3.958  16.332  0.00  0.00    +0.000 OA
ATOM     12  H   UNL     1       4.972   3.226  16.266  0.00  0.00    +0.000 HD
ENDBRANCH   6  11
BRANCH   1  13
ATOM     13  O   UNL     1       3.735   5.638  18.537  0.00  0.00    +0.000 OA
BRANCH  13  15
ATOM     14  C   UNL     1       2.535   7.498  18.501  0.00  0.00    +0.000 C 
ATOM     15  N   UNL     1       3.122   6.655  19.292  0.00  0.00    +0.000 NA
BRANCH  14  20
ATOM     16  C   UNL     1       0.609   9.732  20.886  0.00  0.00    +0.000 A 
ATOM     17  C   UNL     1       0.278  10.773  20.005  0.00  0.00    +0.000 A 
ATOM     18  C   UNL     1       0.663  10.740  18.666  0.00  0.00    +0.000 A 
ATOM     19  C   UNL     1       1.397   9.661  18.193  0.00  0.00    +0.000 A 
ATOM     20  C   UNL     1       1.735   8.606  19.055  0.00  0.00    +0.000 A 
ATOM     21  C   UNL     1       1.339   8.633  20.407  0.00  0.00    +0.000 A 
BRANCH  16  23
ATOM     22  C   UNL     1      -0.661  11.108  22.391  0.00  0.00    +0.000 C 
ATOM     23  O   UNL     1       0.155   9.972  22.157  0.00  0.00    +0.000 OA
ENDBRANCH  16  23
BRANCH  21  24
ATOM     24  O   UNL     1       1.667   7.616  21.262  0.00  0.00    +0.000 OA
ATOM     25  H   UNL     1       2.474   7.160  20.974  0.00  0.00    +0.000 HD
ENDBRANCH  21  24
ENDBRANCH  14  20
ENDBRANCH  13  15
ENDBRANCH   1  13
BRANCH   3  26
ATOM     26  C   UNL     1       1.287   3.298  21.108  0.00  0.00    +0.000 C 
BRANCH  26  27
ATOM     27  O   UNL     1       1.730   2.331  22.064  0.00  0.00    +0.000 OA
ATOM     28  H   UNL     1       2.198   2.798  22.776  0.00  0.00    +0.000 HD
ENDBRANCH  26  27
ENDBRANCH   3  26
TORSDOF 10
ENDMDL
