MODEL 1
REMARK VINA RESULT:      -7.8      0.000      0.000
REMARK  Name = 
REMARK  6 active torsions:
REMARK  status: ('A' for Active; 'I' for Inactive)
REMARK    1  A    between atoms: C_1  and  C_2
REMARK    2  A    between atoms: N_4  and  C_5
REMARK    3  A    between atoms: C_5  and  C_6
REMARK    4  A    between atoms: N_8  and  C_9
REMARK    5  A    between atoms: C_12  and  N_13
REMARK    6  A    between atoms: C_16  and  C_17
REMARK                            x       y       z     vdW  Elec       q    Type
REMARK                         _______ _______ _______ _____ _____    ______ ____
ROOT
ATOM      1  C   UNL     1       2.810   7.008  18.737  0.00  0.00    +0.000 A 
ATOM      2  C   UNL     1       2.571   8.044  17.824  0.00  0.00    +0.000 A 
ATOM      3  C   UNL     1       1.765   9.139  18.155  0.00  0.00    +0.000 A 
ATOM      4  C   UNL     1       1.211   9.241  19.433  0.00  0.00    +0.000 A 
ATOM      5  C   UNL     1       1.458   8.220  20.354  0.00  0.00    +0.000 A 
ATOM      6  F   UNL     1       0.921   8.242  21.583  0.00  0.00    +0.000 F 
ATOM      7  C   UNL     1       2.222   7.103  20.005  0.00  0.00    +0.000 A 
ENDROOT
BRANCH   1  10
ATOM      8  C   UNL     1       5.388   4.433  18.219  0.00  0.00    +0.000 C 
ATOM      9  C   UNL     1       5.042   5.892  18.434  0.00  0.00    +0.000 C 
ATOM     10  N   UNL     1       3.611   5.894  18.385  0.00  0.00    +0.000 N 
ATOM     11  C   UNL     1       3.162   4.709  17.820  0.00  0.00    +0.000 C 
ATOM     12  O   UNL     1       2.026   4.398  17.500  0.00  0.00    +0.000 OA
ATOM     13  O   UNL     1       4.224   3.877  17.587  0.00  0.00    +0.000 OA
BRANCH   8  14
ATOM     14  C   UNL     1       6.595   4.246  17.303  0.00  0.00    +0.000 C 
BRANCH  14  18
ATOM     15  C   UNL     1       6.184   3.862  13.558  0.00  0.00    +0.000 C 
ATOM     16  C   UNL     1       6.701   4.447  14.844  0.00  0.00    +0.000 C 
ATOM     17  O   UNL     1       7.466   5.404  14.885  0.00  0.00    +0.000 OA
ATOM     18  N   UNL     1       6.209   3.824  15.967  0.00  0.00    +0.000 N 
ATOM     19  H   UNL     1       5.788   2.907  15.865  0.00  0.00    +0.000 HD
ENDBRANCH  14  18
ENDBRANCH   8  14
ENDBRANCH   1  10
BRANCH   4  20
ATOM     20  N   UNL     1       0.419  10.365  19.772  0.00  0.00    +0.000 N 
ATOM     21  C   UNL     1       0.859  11.490  20.450  0.00  0.00    +0.000 A 
ATOM     22  C   UNL     1      -0.193  12.367  20.599  0.00  0.00    +0.000 A 
ATOM     23  C   UNL     1      -1.329  11.751  20.033  0.00  0.00    +0.000 A 
ATOM     24  C   UNL     1      -0.927  10.535  19.520  0.00  0.00    +0.000 A 
BRANCH  23  25
ATOM     25  C   UNL     1      -2.661  12.261  19.997  0.00  0.00    +0.000 C 
ATOM     26  N   UNL     1      -3.742  12.685  19.966  0.00  0.00    +0.000 NA
ENDBRANCH  23  25
ENDBRANCH   4  20
TORSDOF 5
ENDMDL
MODEL 2
REMARK VINA RESULT:      -7.7      1.344      1.879
REMARK  Name = 
REMARK  6 active torsions:
REMARK  status: ('A' for Active; 'I' for Inactive)
REMARK    1  A    between atoms: C_1  and  C_2
REMARK    2  A    between atoms: N_4  and  C_5
REMARK    3  A    between atoms: C_5  and  C_6
REMARK    4  A    between atoms: N_8  and  C_9
REMARK    5  A    between atoms: C_12  and  N_13
REMARK    6  A    between atoms: C_16  and  C_17
REMARK                            x       y       z     vdW  Elec       q    Type
REMARK                         _______ _______ _______ _____ _____    ______ ____
ROOT
ATOM      1  C   UNL     1       2.906   6.869  18.758  0.00  0.00    +0.000 A 
ATOM      2  C   UNL     1       2.301   6.890  20.021  0.00  0.00    +0.000 A 
ATOM      3  C   UNL     1       1.510   7.968  20.436  0.00  0.00    +0.000 A 
ATOM      4  C   UNL     1       1.272   9.037  19.570  0.00  0.00    +0.000 A 
ATOM      5  C   UNL     1       1.858   9.017  18.302  0.00  0.00    +0.000 A 
ATOM      6  F   UNL     1       1.699  10.032  17.441  0.00  0.00    +0.000 F 
ATOM      7  C   UNL     1       2.689   7.963  17.909  0.00  0.00    +0.000 A 
ENDROOT
BRANCH   1  10
ATOM      8  C   UNL     1       5.536   4.386  18.078  0.00  0.00    +0.000 C 
ATOM      9  C   UNL     1       5.152   5.832  18.317  0.00  0.00    +0.000 C 
ATOM     10  N   UNL     1       3.722   5.784  18.356  0.00  0.00    +0.000 N 
ATOM     11  C   UNL     1       3.281   4.584  17.818  0.00  0.00    +0.000 C 
ATOM     12  O   UNL     1       2.139   4.233  17.569  0.00  0.00    +0.000 OA
ATOM     13  O   UNL     1       4.355   3.790  17.519  0.00  0.00    +0.000 OA
BRANCH   8  14
ATOM     14  C   UNL     1       6.690   4.241  17.088  0.00  0.00    +0.000 C 
BRANCH  14  18
ATOM     15  C   UNL     1       6.100   3.769  13.378  0.00  0.00    +0.000 C 
ATOM     16  C   UNL     1       6.680   4.382  14.624  0.00  0.00    +0.000 C 
ATOM     17  O   UNL     1       7.451   5.334  14.605  0.00  0.00    +0.000 OA
ATOM     18  N   UNL     1       6.239   3.789  15.783  0.00  0.00    +0.000 N 
ATOM     19  H   UNL     1       5.809   2.873  15.724  0.00  0.00    +0.000 HD
ENDBRANCH  14  18
ENDBRANCH   8  14
ENDBRANCH   1  10
BRANCH   4  20
ATOM     20  N   UNL     1       0.447  10.112  19.984  0.00  0.00    +0.000 N 
ATOM     21  C   UNL     1      -0.759  10.475  19.407  0.00  0.00    +0.000 A 
ATOM     22  C   UNL     1      -1.268  11.566  20.076  0.00  0.00    +0.000 A 
ATOM     23  C   UNL     1      -0.331  11.917  21.071  0.00  0.00    +0.000 A 
ATOM     24  C   UNL     1       0.701  11.004  21.005  0.00  0.00    +0.000 A 
BRANCH  23  25
ATOM     25  C   UNL     1      -0.405  13.014  21.979  0.00  0.00    +0.000 C 
ATOM     26  N   UNL     1      -0.461  13.912  22.713  0.00  0.00    +0.000 NA
ENDBRANCH  23  25
ENDBRANCH   4  20
TORSDOF 5
ENDMDL
MODEL 3
REMARK VINA RESULT:      -7.7      1.058      1.366
REMARK  Name = 
REMARK  6 active torsions:
REMARK  status: ('A' for Active; 'I' for Inactive)
REMARK    1  A    between atoms: C_1  and  C_2
REMARK    2  A    between atoms: N_4  and  C_5
REMARK    3  A    between atoms: C_5  and  C_6
REMARK    4  A    between atoms: N_8  and  C_9
REMARK    5  A    between atoms: C_12  and  N_13
REMARK    6  A    between atoms: C_16  and  C_17
REMARK                            x       y       z     vdW  Elec       q    Type
REMARK                         _______ _______ _______ _____ _____    ______ ____
ROOT
ATOM      1  C   UNL     1       3.045   6.900  18.452  0.00  0.00    +0.000 A 
ATOM      2  C   UNL     1       2.751   7.980  17.609  0.00  0.00    +0.000 A 
ATOM      3  C   UNL     1       1.899   9.013  18.014  0.00  0.00    +0.000 A 
ATOM      4  C   UNL     1       1.352   9.008  19.299  0.00  0.00    +0.000 A 
ATOM      5  C   UNL     1       1.652   7.944  20.152  0.00  0.00    +0.000 A 
ATOM      6  F   UNL     1       1.126   7.863  21.382  0.00  0.00    +0.000 F 
ATOM      7  C   UNL     1       2.464   6.887  19.727  0.00  0.00    +0.000 A 
ENDROOT
BRANCH   1  10
ATOM      8  C   UNL     1       5.764   4.558  17.637  0.00  0.00    +0.000 C 
ATOM      9  C   UNL     1       5.304   5.988  17.838  0.00  0.00    +0.000 C 
ATOM     10  N   UNL     1       3.892   5.848  18.026  0.00  0.00    +0.000 N 
ATOM     11  C   UNL     1       3.486   4.593  17.598  0.00  0.00    +0.000 C 
ATOM     12  O   UNL     1       2.353   4.154  17.486  0.00  0.00    +0.000 OA
ATOM     13  O   UNL     1       4.579   3.854  17.233  0.00  0.00    +0.000 OA
BRANCH   8  14
ATOM     14  C   UNL     1       6.822   4.430  16.544  0.00  0.00    +0.000 C 
BRANCH  14  18
ATOM     15  C   UNL     1       5.928   3.653  12.948  0.00  0.00    +0.000 C 
ATOM     16  C   UNL     1       6.583   4.385  14.087  0.00  0.00    +0.000 C 
ATOM     17  O   UNL     1       7.294   5.371  13.929  0.00  0.00    +0.000 OA
ATOM     18  N   UNL     1       6.282   3.860  15.322  0.00  0.00    +0.000 N 
ATOM     19  H   UNL     1       5.900   2.922  15.367  0.00  0.00    +0.000 HD
ENDBRANCH  14  18
ENDBRANCH   8  14
ENDBRANCH   1  10
BRANCH   4  20
ATOM     20  N   UNL     1       0.512  10.071  19.713  0.00  0.00    +0.000 N 
ATOM     21  C   UNL     1      -0.683  10.439  19.116  0.00  0.00    +0.000 A 
ATOM     22  C   UNL     1      -1.212  11.515  19.793  0.00  0.00    +0.000 A 
ATOM     23  C   UNL     1      -0.300  11.852  20.815  0.00  0.00    +0.000 A 
ATOM     24  C   UNL     1       0.738  10.946  20.756  0.00  0.00    +0.000 A 
BRANCH  23  25
ATOM     25  C   UNL     1      -0.400  12.933  21.742  0.00  0.00    +0.000 C 
ATOM     26  N   UNL     1      -0.475  13.808  22.500  0.00  0.00    +0.000 NA
ENDBRANCH  23  25
ENDBRANCH   4  20
TORSDOF 5
ENDMDL
MODEL 4
REMARK VINA RESULT:      -7.7      0.941      1.344
REMARK  Name = 
REMARK  6 active torsions:
REMARK  status: ('A' for Active; 'I' for Inactive)
REMARK    1  A    between atoms: C_1  and  C_2
REMARK    2  A    between atoms: N_4  and  C_5
REMARK    3  A    between atoms: C_5  and  C_6
REMARK    4  A    between atoms: N_8  and  C_9
REMARK    5  A    between atoms: C_12  and  N_13
REMARK    6  A    between atoms: C_16  and  C_17
REMARK                            x       y       z     vdW  Elec       q    Type
REMARK                         _______ _______ _______ _____ _____    ______ ____
ROOT
ATOM      1  C   UNL     1       2.817   6.949  18.800  0.00  0.00    +0.000 A 
ATOM      2  C   UNL     1       2.222   6.990  20.067  0.00  0.00    +0.000 A 
ATOM      3  C   UNL     1       1.454   8.086  20.480  0.00  0.00    +0.000 A 
ATOM      4  C   UNL     1       1.229   9.153  19.608  0.00  0.00    +0.000 A 
ATOM      5  C   UNL     1       1.806   9.113  18.336  0.00  0.00    +0.000 A 
ATOM      6  F   UNL     1       1.660  10.125  17.470  0.00  0.00    +0.000 F 
ATOM      7  C   UNL     1       2.614   8.041  17.945  0.00  0.00    +0.000 A 
ENDROOT
BRANCH   1  10
ATOM      8  C   UNL     1       5.381   4.389  18.155  0.00  0.00    +0.000 C 
ATOM      9  C   UNL     1       5.040   5.842  18.421  0.00  0.00    +0.000 C 
ATOM     10  N   UNL     1       3.609   5.846  18.399  0.00  0.00    +0.000 N 
ATOM     11  C   UNL     1       3.148   4.680  17.806  0.00  0.00    +0.000 C 
ATOM     12  O   UNL     1       2.006   4.380  17.499  0.00  0.00    +0.000 OA
ATOM     13  O   UNL     1       4.205   3.854  17.529  0.00  0.00    +0.000 OA
BRANCH   8  14
ATOM     14  C   UNL     1       6.570   4.230  17.210  0.00  0.00    +0.000 C 
BRANCH  14  18
ATOM     15  C   UNL     1       6.140   3.817  13.471  0.00  0.00    +0.000 C 
ATOM     16  C   UNL     1       6.690   4.389  14.750  0.00  0.00    +0.000 C 
ATOM     17  O   UNL     1       7.509   5.300  14.778  0.00  0.00    +0.000 OA
ATOM     18  N   UNL     1       6.162   3.812  15.880  0.00  0.00    +0.000 N 
ATOM     19  H   UNL     1       5.688   2.919  15.791  0.00  0.00    +0.000 HD
ENDBRANCH  14  18
ENDBRANCH   8  14
ENDBRANCH   1  10
BRANCH   4  20
ATOM     20  N   UNL     1       0.428  10.246  20.020  0.00  0.00    +0.000 N 
ATOM     21  C   UNL     1       0.779  11.194  20.967  0.00  0.00    +0.000 A 
ATOM     22  C   UNL     1      -0.252  12.097  21.105  0.00  0.00    +0.000 A 
ATOM     23  C   UNL     1      -1.290  11.674  20.248  0.00  0.00    +0.000 A 
ATOM     24  C   UNL     1      -0.845  10.550  19.584  0.00  0.00    +0.000 A 
BRANCH  23  25
ATOM     25  C   UNL     1      -2.576  12.271  20.088  0.00  0.00    +0.000 C 
ATOM     26  N   UNL     1      -3.624  12.757  19.967  0.00  0.00    +0.000 NA
ENDBRANCH  23  25
ENDBRANCH   4  20
TORSDOF 5
ENDMDL
MODEL 5
REMARK VINA RESULT:      -7.5      1.533      1.898
REMARK  Name = 
REMARK  6 active torsions:
REMARK  status: ('A' for Active; 'I' for Inactive)
REMARK    1  A    between atoms: C_1  and  C_2
REMARK    2  A    between atoms: N_4  and  C_5
REMARK    3  A    between atoms: C_5  and  C_6
REMARK    4  A    between atoms: N_8  and  C_9
REMARK    5  A    between atoms: C_12  and  N_13
REMARK    6  A    between atoms: C_16  and  C_17
REMARK                            x       y       z     vdW  Elec       q    Type
REMARK                         _______ _______ _______ _____ _____    ______ ____
ROOT
ATOM      1  C   UNL     1       3.620   6.345  17.898  0.00  0.00    +0.000 A 
ATOM      2  C   UNL     1       3.351   7.628  17.402  0.00  0.00    +0.000 A 
ATOM      3  C   UNL     1       2.508   8.514  18.083  0.00  0.00    +0.000 A 
ATOM      4  C   UNL     1       1.946   8.145  19.307  0.00  0.00    +0.000 A 
ATOM      5  C   UNL     1       2.222   6.875  19.817  0.00  0.00    +0.000 A 
ATOM      6  F   UNL     1       1.679   6.449  20.967  0.00  0.00    +0.000 F 
ATOM      7  C   UNL     1       3.023   5.973  19.109  0.00  0.00    +0.000 A 
ENDROOT
BRANCH   1  10
ATOM      8  C   UNL     1       6.291   4.520  16.143  0.00  0.00    +0.000 C 
ATOM      9  C   UNL     1       5.646   5.844  16.498  0.00  0.00    +0.000 C 
ATOM     10  N   UNL     1       4.457   5.448  17.191  0.00  0.00    +0.000 N 
ATOM     11  C   UNL     1       4.197   4.109  16.942  0.00  0.00    +0.000 C 
ATOM     12  O   UNL     1       3.217   3.451  17.252  0.00  0.00    +0.000 OA
ATOM     13  O   UNL     1       5.215   3.571  16.201  0.00  0.00    +0.000 OA
BRANCH   8  14
ATOM     14  C   UNL     1       6.888   4.517  14.738  0.00  0.00    +0.000 C 
BRANCH  14  18
ATOM     15  C   UNL     1       5.612   2.584  11.743  0.00  0.00    +0.000 C 
ATOM     16  C   UNL     1       6.442   3.589  12.494  0.00  0.00    +0.000 C 
ATOM     17  O   UNL     1       7.250   4.332  11.949  0.00  0.00    +0.000 OA
ATOM     18  N   UNL     1       6.184   3.613  13.845  0.00  0.00    +0.000 N 
ATOM     19  H   UNL     1       5.699   2.824  14.258  0.00  0.00    +0.000 HD
ENDBRANCH  14  18
ENDBRANCH   8  14
ENDBRANCH   1  10
BRANCH   4  20
ATOM     20  N   UNL     1       1.117   9.056  20.006  0.00  0.00    +0.000 N 
ATOM     21  C   UNL     1       1.017   9.167  21.384  0.00  0.00    +0.000 A 
ATOM     22  C   UNL     1       0.111  10.157  21.692  0.00  0.00    +0.000 A 
ATOM     23  C   UNL     1      -0.398  10.648  20.471  0.00  0.00    +0.000 A 
ATOM     24  C   UNL     1       0.243   9.971  19.455  0.00  0.00    +0.000 A 
BRANCH  23  25
ATOM     25  C   UNL     1      -1.400  11.648  20.292  0.00  0.00    +0.000 C 
ATOM     26  N   UNL     1      -2.214  12.465  20.155  0.00  0.00    +0.000 NA
ENDBRANCH  23  25
ENDBRANCH   4  20
TORSDOF 5
ENDMDL
MODEL 6
REMARK VINA RESULT:      -7.4      1.674      2.181
REMARK  Name = 
REMARK  6 active torsions:
REMARK  status: ('A' for Active; 'I' for Inactive)
REMARK    1  A    between atoms: C_1  and  C_2
REMARK    2  A    between atoms: N_4  and  C_5
REMARK    3  A    between atoms: C_5  and  C_6
REMARK    4  A    between atoms: N_8  and  C_9
REMARK    5  A    between atoms: C_12  and  N_13
REMARK    6  A    between atoms: C_16  and  C_17
REMARK                            x       y       z     vdW  Elec       q    Type
REMARK                         _______ _______ _______ _____ _____    ______ ____
ROOT
ATOM      1  C   UNL     1       3.550   6.376  17.990  0.00  0.00    +0.000 A 
ATOM      2  C   UNL     1       3.057   6.076  19.267  0.00  0.00    +0.000 A 
ATOM      3  C   UNL     1       2.258   6.982  19.974  0.00  0.00    +0.000 A 
ATOM      4  C   UNL     1       1.898   8.200  19.394  0.00  0.00    +0.000 A 
ATOM      5  C   UNL     1       2.372   8.501  18.115  0.00  0.00    +0.000 A 
ATOM      6  F   UNL     1       2.094   9.671  17.523  0.00  0.00    +0.000 F 
ATOM      7  C   UNL     1       3.212   7.616  17.432  0.00  0.00    +0.000 A 
ENDROOT
BRANCH   1  10
ATOM      8  C   UNL     1       6.207   4.477  16.294  0.00  0.00    +0.000 C 
ATOM      9  C   UNL     1       5.610   5.820  16.663  0.00  0.00    +0.000 C 
ATOM     10  N   UNL     1       4.375   5.461  17.292  0.00  0.00    +0.000 N 
ATOM     11  C   UNL     1       4.064   4.144  16.990  0.00  0.00    +0.000 C 
ATOM     12  O   UNL     1       3.042   3.525  17.238  0.00  0.00    +0.000 OA
ATOM     13  O   UNL     1       5.087   3.579  16.277  0.00  0.00    +0.000 OA
BRANCH   8  14
ATOM     14  C   UNL     1       6.865   4.487  14.916  0.00  0.00    +0.000 C 
BRANCH  14  18
ATOM     15  C   UNL     1       5.628   2.697  11.817  0.00  0.00    +0.000 C 
ATOM     16  C   UNL     1       6.449   3.664  12.625  0.00  0.00    +0.000 C 
ATOM     17  O   UNL     1       7.266   4.430  12.126  0.00  0.00    +0.000 OA
ATOM     18  N   UNL     1       6.172   3.627  13.972  0.00  0.00    +0.000 N 
ATOM     19  H   UNL     1       5.679   2.821  14.341  0.00  0.00    +0.000 HD
ENDBRANCH  14  18
ENDBRANCH   8  14
ENDBRANCH   1  10
BRANCH   4  20
ATOM     20  N   UNL     1       1.066   9.102  20.103  0.00  0.00    +0.000 N 
ATOM     21  C   UNL     1       0.951   9.183  21.481  0.00  0.00    +0.000 A 
ATOM     22  C   UNL     1       0.047  10.173  21.800  0.00  0.00    +0.000 A 
ATOM     23  C   UNL     1      -0.444  10.693  20.584  0.00  0.00    +0.000 A 
ATOM     24  C   UNL     1       0.206  10.034  19.561  0.00  0.00    +0.000 A 
BRANCH  23  25
ATOM     25  C   UNL     1      -1.437  11.704  20.415  0.00  0.00    +0.000 C 
ATOM     26  N   UNL     1      -2.242  12.530  20.284  0.00  0.00    +0.000 NA
ENDBRANCH  23  25
ENDBRANCH   4  20
TORSDOF 5
ENDMDL
MODEL 7
REMARK VINA RESULT:      -7.4      1.940      2.607
REMARK  Name = 
REMARK  6 active torsions:
REMARK  status: ('A' for Active; 'I' for Inactive)
REMARK    1  A    between atoms: C_1  and  C_2
REMARK    2  A    between atoms: N_4  and  C_5
REMARK    3  A    between atoms: C_5  and  C_6
REMARK    4  A    between atoms: N_8  and  C_9
REMARK    5  A    between atoms: C_12  and  N_13
REMARK    6  A    between atoms: C_16  and  C_17
REMARK                            x       y       z     vdW  Elec       q    Type
REMARK                         _______ _______ _______ _____ _____    ______ ____
ROOT
ATOM      1  C   UNL     1       3.877   6.188  17.589  0.00  0.00    +0.000 A 
ATOM      2  C   UNL     1       3.604   7.463  17.075  0.00  0.00    +0.000 A 
ATOM      3  C   UNL     1       2.729   8.342  17.724  0.00  0.00    +0.000 A 
ATOM      4  C   UNL     1       2.137   7.976  18.935  0.00  0.00    +0.000 A 
ATOM      5  C   UNL     1       2.416   6.713  19.463  0.00  0.00    +0.000 A 
ATOM      6  F   UNL     1       1.848   6.289  20.601  0.00  0.00    +0.000 F 
ATOM      7  C   UNL     1       3.251   5.817  18.787  0.00  0.00    +0.000 A 
ENDROOT
BRANCH   1  10
ATOM      8  C   UNL     1       6.539   4.455  15.732  0.00  0.00    +0.000 C 
ATOM      9  C   UNL     1       5.724   5.713  15.954  0.00  0.00    +0.000 C 
ATOM     10  N   UNL     1       4.747   5.298  16.914  0.00  0.00    +0.000 N 
ATOM     11  C   UNL     1       4.701   3.913  16.965  0.00  0.00    +0.000 C 
ATOM     12  O   UNL     1       3.917   3.197  17.566  0.00  0.00    +0.000 OA
ATOM     13  O   UNL     1       5.676   3.389  16.160  0.00  0.00    +0.000 OA
BRANCH   8  14
ATOM     14  C   UNL     1       6.907   4.246  14.265  0.00  0.00    +0.000 C 
BRANCH  14  18
ATOM     15  C   UNL     1       4.506   3.165  11.543  0.00  0.00    +0.000 C 
ATOM     16  C   UNL     1       5.825   3.309  12.252  0.00  0.00    +0.000 C 
ATOM     17  O   UNL     1       6.879   2.871  11.804  0.00  0.00    +0.000 OA
ATOM     18  N   UNL     1       5.738   4.005  13.435  0.00  0.00    +0.000 N 
ATOM     19  H   UNL     1       4.825   4.122  13.861  0.00  0.00    +0.000 HD
ENDBRANCH  14  18
ENDBRANCH   8  14
ENDBRANCH   1  10
BRANCH   4  20
ATOM     20  N   UNL     1       1.275   8.880  19.602  0.00  0.00    +0.000 N 
ATOM     21  C   UNL     1       0.602   9.939  19.014  0.00  0.00    +0.000 A 
ATOM     22  C   UNL     1      -0.135  10.593  19.976  0.00  0.00    +0.000 A 
ATOM     23  C   UNL     1       0.118   9.947  21.204  0.00  0.00    +0.000 A 
ATOM     24  C   UNL     1       0.970   8.893  20.947  0.00  0.00    +0.000 A 
BRANCH  23  25
ATOM     25  C   UNL     1      -0.388  10.304  22.489  0.00  0.00    +0.000 C 
ATOM     26  N   UNL     1      -0.801  10.586  23.538  0.00  0.00    +0.000 NA
ENDBRANCH  23  25
ENDBRANCH   4  20
TORSDOF 5
ENDMDL
MODEL 8
REMARK VINA RESULT:      -7.3      1.985      2.568
REMARK  Name = 
REMARK  6 active torsions:
REMARK  status: ('A' for Active; 'I' for Inactive)
REMARK    1  A    between atoms: C_1  and  C_2
REMARK    2  A    between atoms: N_4  and  C_5
REMARK    3  A    between atoms: C_5  and  C_6
REMARK    4  A    between atoms: N_8  and  C_9
REMARK    5  A    between atoms: C_12  and  N_13
REMARK    6  A    between atoms: C_16  and  C_17
REMARK                            x       y       z     vdW  Elec       q    Type
REMARK                         _______ _______ _______ _____ _____    ______ ____
ROOT
ATOM      1  C   UNL     1       3.672   6.419  17.785  0.00  0.00    +0.000 A 
ATOM      2  C   UNL     1       3.088   6.122  19.023  0.00  0.00    +0.000 A 
ATOM      3  C   UNL     1       2.218   7.017  19.656  0.00  0.00    +0.000 A 
ATOM      4  C   UNL     1       1.879   8.221  19.035  0.00  0.00    +0.000 A 
ATOM      5  C   UNL     1       2.443   8.518  17.793  0.00  0.00    +0.000 A 
ATOM      6  F   UNL     1       2.187   9.676  17.166  0.00  0.00    +0.000 F 
ATOM      7  C   UNL     1       3.352   7.645  17.186  0.00  0.00    +0.000 A 
ENDROOT
BRANCH   1  10
ATOM      8  C   UNL     1       6.461   4.610  16.206  0.00  0.00    +0.000 C 
ATOM      9  C   UNL     1       5.735   5.919  16.439  0.00  0.00    +0.000 C 
ATOM     10  N   UNL     1       4.567   5.515  17.162  0.00  0.00    +0.000 N 
ATOM     11  C   UNL     1       4.391   4.146  17.035  0.00  0.00    +0.000 C 
ATOM     12  O   UNL     1       3.450   3.460  17.401  0.00  0.00    +0.000 OA
ATOM     13  O   UNL     1       5.445   3.606  16.347  0.00  0.00    +0.000 OA
BRANCH   8  14
ATOM     14  C   UNL     1       7.068   4.518  14.808  0.00  0.00    +0.000 C 
BRANCH  14  18
ATOM     15  C   UNL     1       5.577   2.724  11.825  0.00  0.00    +0.000 C 
ATOM     16  C   UNL     1       6.490   3.664  12.564  0.00  0.00    +0.000 C 
ATOM     17  O   UNL     1       7.319   4.372  12.004  0.00  0.00    +0.000 OA
ATOM     18  N   UNL     1       6.282   3.675  13.923  0.00  0.00    +0.000 N 
ATOM     19  H   UNL     1       5.767   2.906  14.339  0.00  0.00    +0.000 HD
ENDBRANCH  14  18
ENDBRANCH   8  14
ENDBRANCH   1  10
BRANCH   4  20
ATOM     20  N   UNL     1       0.976   9.111  19.667  0.00  0.00    +0.000 N 
ATOM     21  C   UNL     1       0.185  10.051  19.026  0.00  0.00    +0.000 A 
ATOM     22  C   UNL     1      -0.558  10.731  19.966  0.00  0.00    +0.000 A 
ATOM     23  C   UNL     1      -0.187  10.228  21.230  0.00  0.00    +0.000 A 
ATOM     24  C   UNL     1       0.739   9.228  21.021  0.00  0.00    +0.000 A 
BRANCH  23  25
ATOM     25  C   UNL     1      -0.658  10.663  22.505  0.00  0.00    +0.000 C 
ATOM     26  N   UNL     1      -1.038  11.025  23.541  0.00  0.00    +0.000 NA
ENDBRANCH  23  25
ENDBRANCH   4  20
TORSDOF 5
ENDMDL
MODEL 9
REMARK VINA RESULT:      -7.2      3.679      9.638
REMARK  Name = 
REMARK  6 active torsions:
REMARK  status: ('A' for Active; 'I' for Inactive)
REMARK    1  A    between atoms: C_1  and  C_2
REMARK    2  A    between atoms: N_4  and  C_5
REMARK    3  A    between atoms: C_5  and  C_6
REMARK    4  A    between atoms: N_8  and  C_9
REMARK    5  A    between atoms: C_12  and  N_13
REMARK    6  A    between atoms: C_16  and  C_17
REMARK                            x       y       z     vdW  Elec       q    Type
REMARK                         _______ _______ _______ _____ _____    ______ ____
ROOT
ATOM      1  C   UNL     1       1.117   8.927  19.761  0.00  0.00    +0.000 A 
ATOM      2  C   UNL     1       1.636   9.091  18.470  0.00  0.00    +0.000 A 
ATOM      3  C   UNL     1       2.473   8.131  17.890  0.00  0.00    +0.000 A 
ATOM      4  C   UNL     1       2.776   6.956  18.582  0.00  0.00    +0.000 A 
ATOM      5  C   UNL     1       2.250   6.777  19.863  0.00  0.00    +0.000 A 
ATOM      6  F   UNL     1       2.537   5.689  20.592  0.00  0.00    +0.000 F 
ATOM      7  C   UNL     1       1.455   7.761  20.460  0.00  0.00    +0.000 A 
ENDROOT
BRANCH   1  10
ATOM      8  C   UNL     1      -0.558  11.486  21.807  0.00  0.00    +0.000 C 
ATOM      9  C   UNL     1       0.286  10.230  21.743  0.00  0.00    +0.000 C 
ATOM     10  N   UNL     1       0.287   9.914  20.346  0.00  0.00    +0.000 N 
ATOM     11  C   UNL     1      -0.726  10.615  19.709  0.00  0.00    +0.000 C 
ATOM     12  O   UNL     1      -1.114  10.516  18.556  0.00  0.00    +0.000 OA
ATOM     13  O   UNL     1      -1.333  11.460  20.598  0.00  0.00    +0.000 OA
BRANCH   8  14
ATOM     14  C   UNL     1      -1.501  11.498  23.008  0.00  0.00    +0.000 C 
BRANCH  14  18
ATOM     15  C   UNL     1      -3.972  14.252  23.810  0.00  0.00    +0.000 C 
ATOM     16  C   UNL     1      -3.422  12.853  23.763  0.00  0.00    +0.000 C 
ATOM     17  O   UNL     1      -4.024  11.880  24.205  0.00  0.00    +0.000 OA
ATOM     18  N   UNL     1      -2.195  12.766  23.149  0.00  0.00    +0.000 N 
ATOM     19  H   UNL     1      -1.653  13.616  23.030  0.00  0.00    +0.000 HD
ENDBRANCH  14  18
ENDBRANCH   8  14
ENDBRANCH   1  10
BRANCH   4  20
ATOM     20  N   UNL     1       3.601   5.974  17.980  0.00  0.00    +0.000 N 
ATOM     21  C   UNL     1       3.192   4.717  17.565  0.00  0.00    +0.000 A 
ATOM     22  C   UNL     1       4.270   4.046  17.032  0.00  0.00    +0.000 A 
ATOM     23  C   UNL     1       5.390   4.895  17.157  0.00  0.00    +0.000 A 
ATOM     24  C   UNL     1       4.953   6.073  17.724  0.00  0.00    +0.000 A 
BRANCH  23  25
ATOM     25  C   UNL     1       6.738   4.607  16.785  0.00  0.00    +0.000 C 
ATOM     26  N   UNL     1       7.835   4.381  16.479  0.00  0.00    +0.000 NA
ENDBRANCH  23  25
ENDBRANCH   4  20
TORSDOF 5
ENDMDL
