MODEL 1
REMARK VINA RESULT:      -9.2      0.000      0.000
REMARK  Name = 
REMARK  12 active torsions:
REMARK  status: ('A' for Active; 'I' for Inactive)
REMARK    1  A    between atoms: C_1  and  C_2
REMARK    2  A    between atoms: C_2  and  C_3
REMARK    3  A    between atoms: C_4  and  C_5
REMARK    4  A    between atoms: C_5  and  O_6
REMARK    5  A    between atoms: O_6  and  C_7
REMARK    6  A    between atoms: C_9  and  O_10
REMARK    7  A    between atoms: C_16  and  O_17
REMARK    8  A    between atoms: O_17  and  C_18
REMARK    9  A    between atoms: C_18  and  C_19
REMARK   10  A    between atoms: C_20  and  C_21
REMARK   11  A    between atoms: C_20  and  C_22
REMARK   12  A    between atoms: C_23  and  O_24
REMARK                            x       y       z     vdW  Elec       q    Type
REMARK                         _______ _______ _______ _____ _____    ______ ____
ROOT
ATOM      1  C   UNL     1       5.930   5.437  15.667  0.00  0.00    +0.000 A 
ATOM      2  C   UNL     1       6.068   4.469  16.661  0.00  0.00    +0.000 A 
ATOM      3  C   UNL     1       5.324   4.565  17.843  0.00  0.00    +0.000 A 
ATOM      4  C   UNL     1       4.450   5.640  18.047  0.00  0.00    +0.000 A 
ATOM      5  C   UNL     1       3.592   5.798  19.247  0.00  0.00    +0.000 A 
ATOM      6  O   UNL     1       3.565   4.997  20.176  0.00  0.00    +0.000 OA
ATOM      7  C   UNL     1       2.723   6.986  19.295  0.00  0.00    +0.000 A 
ATOM      8  C   UNL     1       1.862   7.215  20.377  0.00  0.00    +0.000 A 
ATOM      9  C   UNL     1       1.026   8.338  20.388  0.00  0.00    +0.000 A 
ATOM     10  C   UNL     1       1.116   9.252  19.325  0.00  0.00    +0.000 A 
ATOM     11  C   UNL     1       1.953   9.010  18.242  0.00  0.00    +0.000 A 
ATOM     12  C   UNL     1       2.757   7.876  18.230  0.00  0.00    +0.000 A 
ATOM     13  O   UNL     1       3.555   7.731  17.133  0.00  0.00    +0.000 OA
ATOM     14  C   UNL     1       4.362   6.626  17.066  0.00  0.00    +0.000 A 
ATOM     15  C   UNL     1       5.108   6.536  15.893  0.00  0.00    +0.000 A 
ENDROOT
BRANCH   3  16
ATOM     16  O   UNL     1       5.459   3.584  18.784  0.00  0.00    +0.000 OA
ATOM     17  H   UNL     1       5.653   2.733  18.360  0.00  0.00    +0.000 HD
ENDBRANCH   3  16
BRANCH  10  18
ATOM     18  O   UNL     1       0.434  10.433  19.255  0.00  0.00    +0.000 OA
ATOM     19  H   UNL     1      -0.131  10.485  20.044  0.00  0.00    +0.000 HD
ENDBRANCH  10  18
BRANCH   1  20
ATOM     20  O   UNL     1       6.621   5.214  14.504  0.00  0.00    +0.000 OA
BRANCH  20  21
ATOM     21  C   UNL     1       6.444   3.898  13.971  0.00  0.00    +0.000 C 
BRANCH  21  25
ATOM     22  C   UNL     1       3.894   3.318  11.091  0.00  0.00    +0.000 C 
ATOM     23  C   UNL     1       5.112   3.145  11.953  0.00  0.00    +0.000 C 
ATOM     24  C   UNL     1       6.145   2.143  11.506  0.00  0.00    +0.000 C 
ATOM     25  C   UNL     1       5.252   3.888  13.068  0.00  0.00    +0.000 C 
ENDBRANCH  21  25
ENDBRANCH  20  21
ENDBRANCH   1  20
BRANCH   9  26
ATOM     26  O   UNL     1       0.173   8.402  21.465  0.00  0.00    +0.000 OA
BRANCH  26  27
ATOM     27  C   UNL     1       0.478   9.434  22.399  0.00  0.00    +0.000 C 
BRANCH  27  28
ATOM     28  C   UNL     1      -0.747  10.028  23.021  0.00  0.00    +0.000 C 
ATOM     29  C   UNL     1      -1.119  11.305  22.782  0.00  0.00    +0.000 C 
ATOM     30  C   UNL     1      -0.360  12.242  21.870  0.00  0.00    +0.000 C 
ATOM     31  C   UNL     1      -2.335  11.908  23.420  0.00  0.00    +0.000 C 
ENDBRANCH  27  28
ENDBRANCH  26  27
ENDBRANCH   9  26
TORSDOF 8
ENDMDL
MODEL 2
REMARK VINA RESULT:      -8.5      1.239     10.055
REMARK  Name = 
REMARK  12 active torsions:
REMARK  status: ('A' for Active; 'I' for Inactive)
REMARK    1  A    between atoms: C_1  and  C_2
REMARK    2  A    between atoms: C_2  and  C_3
REMARK    3  A    between atoms: C_4  and  C_5
REMARK    4  A    between atoms: C_5  and  O_6
REMARK    5  A    between atoms: O_6  and  C_7
REMARK    6  A    between atoms: C_9  and  O_10
REMARK    7  A    between atoms: C_16  and  O_17
REMARK    8  A    between atoms: O_17  and  C_18
REMARK    9  A    between atoms: C_18  and  C_19
REMARK   10  A    between atoms: C_20  and  C_21
REMARK   11  A    between atoms: C_20  and  C_22
REMARK   12  A    between atoms: C_23  and  O_24
REMARK                            x       y       z     vdW  Elec       q    Type
REMARK                         _______ _______ _______ _____ _____    ______ ____
ROOT
ATOM      1  C   UNL     1       0.351   9.166  20.804  0.00  0.00    +0.000 A 
ATOM      2  C   UNL     1       0.559   9.921  19.650  0.00  0.00    +0.000 A 
ATOM      3  C   UNL     1       1.428   9.457  18.655  0.00  0.00    +0.000 A 
ATOM      4  C   UNL     1       2.108   8.244  18.815  0.00  0.00    +0.000 A 
ATOM      5  C   UNL     1       3.011   7.656  17.795  0.00  0.00    +0.000 A 
ATOM      6  O   UNL     1       3.246   8.179  16.710  0.00  0.00    +0.000 OA
ATOM      7  C   UNL     1       3.640   6.365  18.124  0.00  0.00    +0.000 A 
ATOM      8  C   UNL     1       4.494   5.719  17.218  0.00  0.00    +0.000 A 
ATOM      9  C   UNL     1       5.059   4.480  17.543  0.00  0.00    +0.000 A 
ATOM     10  C   UNL     1       4.797   3.935  18.811  0.00  0.00    +0.000 A 
ATOM     11  C   UNL     1       3.931   4.566  19.697  0.00  0.00    +0.000 A 
ATOM     12  C   UNL     1       3.355   5.782  19.351  0.00  0.00    +0.000 A 
ATOM     13  O   UNL     1       2.531   6.331  20.289  0.00  0.00    +0.000 OA
ATOM     14  C   UNL     1       1.929   7.526  19.996  0.00  0.00    +0.000 A 
ATOM     15  C   UNL     1       1.071   7.991  20.991  0.00  0.00    +0.000 A 
ENDROOT
BRANCH   3  16
ATOM     16  O   UNL     1       1.586  10.205  17.523  0.00  0.00    +0.000 OA
ATOM     17  H   UNL     1       0.889   9.999  16.882  0.00  0.00    +0.000 HD
ENDBRANCH   3  16
BRANCH  10  18
ATOM     18  O   UNL     1       5.358   2.786  19.294  0.00  0.00    +0.000 OA
ATOM     19  H   UNL     1       4.951   2.611  20.159  0.00  0.00    +0.000 HD
ENDBRANCH  10  18
BRANCH   1  20
ATOM     20  O   UNL     1      -0.587   9.646  21.681  0.00  0.00    +0.000 OA
BRANCH  20  21
ATOM     21  C   UNL     1      -0.325  10.977  22.136  0.00  0.00    +0.000 C 
BRANCH  21  25
ATOM     22  C   UNL     1      -3.447  12.613  23.783  0.00  0.00    +0.000 C 
ATOM     23  C   UNL     1      -2.477  12.176  22.721  0.00  0.00    +0.000 C 
ATOM     24  C   UNL     1      -2.730  12.645  21.312  0.00  0.00    +0.000 C 
ATOM     25  C   UNL     1      -1.421  11.409  23.056  0.00  0.00    +0.000 C 
ENDBRANCH  21  25
ENDBRANCH  20  21
ENDBRANCH   1  20
BRANCH   9  26
ATOM     26  O   UNL     1       5.809   3.916  16.537  0.00  0.00    +0.000 OA
BRANCH  26  27
ATOM     27  C   UNL     1       5.298   4.136  15.226  0.00  0.00    +0.000 C 
BRANCH  27  28
ATOM     28  C   UNL     1       6.375   4.184  14.189  0.00  0.00    +0.000 C 
ATOM     29  C   UNL     1       6.141   3.842  12.902  0.00  0.00    +0.000 C 
ATOM     30  C   UNL     1       4.792   3.399  12.386  0.00  0.00    +0.000 C 
ATOM     31  C   UNL     1       7.225   3.870  11.865  0.00  0.00    +0.000 C 
ENDBRANCH  27  28
ENDBRANCH  26  27
ENDBRANCH   9  26
TORSDOF 8
ENDMDL
MODEL 3
REMARK VINA RESULT:      -8.3      2.387      9.831
REMARK  Name = 
REMARK  12 active torsions:
REMARK  status: ('A' for Active; 'I' for Inactive)
REMARK    1  A    between atoms: C_1  and  C_2
REMARK    2  A    between atoms: C_2  and  C_3
REMARK    3  A    between atoms: C_4  and  C_5
REMARK    4  A    between atoms: C_5  and  O_6
REMARK    5  A    between atoms: O_6  and  C_7
REMARK    6  A    between atoms: C_9  and  O_10
REMARK    7  A    between atoms: C_16  and  O_17
REMARK    8  A    between atoms: O_17  and  C_18
REMARK    9  A    between atoms: C_18  and  C_19
REMARK   10  A    between atoms: C_20  and  C_21
REMARK   11  A    between atoms: C_20  and  C_22
REMARK   12  A    between atoms: C_23  and  O_24
REMARK                            x       y       z     vdW  Elec       q    Type
REMARK                         _______ _______ _______ _____ _____    ______ ____
ROOT
ATOM      1  C   UNL     1       0.210  10.617  21.684  0.00  0.00    +0.000 A 
ATOM      2  C   UNL     1       0.420  11.284  20.479  0.00  0.00    +0.000 A 
ATOM      3  C   UNL     1       1.022  10.620  19.404  0.00  0.00    +0.000 A 
ATOM      4  C   UNL     1       1.434   9.288  19.532  0.00  0.00    +0.000 A 
ATOM      5  C   UNL     1       2.038   8.494  18.435  0.00  0.00    +0.000 A 
ATOM      6  O   UNL     1       2.232   8.931  17.304  0.00  0.00    +0.000 OA
ATOM      7  C   UNL     1       2.406   7.101  18.742  0.00  0.00    +0.000 A 
ATOM      8  C   UNL     1       2.966   6.264  17.766  0.00  0.00    +0.000 A 
ATOM      9  C   UNL     1       3.283   4.935  18.074  0.00  0.00    +0.000 A 
ATOM     10  C   UNL     1       3.083   4.486  19.389  0.00  0.00    +0.000 A 
ATOM     11  C   UNL     1       2.505   5.311  20.348  0.00  0.00    +0.000 A 
ATOM     12  C   UNL     1       2.169   6.618  20.021  0.00  0.00    +0.000 A 
ATOM     13  O   UNL     1       1.622   7.356  21.030  0.00  0.00    +0.000 OA
ATOM     14  C   UNL     1       1.263   8.650  20.760  0.00  0.00    +0.000 A 
ATOM     15  C   UNL     1       0.672   9.313  21.834  0.00  0.00    +0.000 A 
ENDROOT
BRANCH   3  16
ATOM     16  O   UNL     1       1.185  11.292  18.226  0.00  0.00    +0.000 OA
ATOM     17  H   UNL     1       1.027  12.240  18.352  0.00  0.00    +0.000 HD
ENDBRANCH   3  16
BRANCH  10  18
ATOM     18  O   UNL     1       3.437   3.250  19.851  0.00  0.00    +0.000 OA
ATOM     19  H   UNL     1       3.700   2.720  19.080  0.00  0.00    +0.000 HD
ENDBRANCH  10  18
BRANCH   1  20
ATOM     20  O   UNL     1      -0.472  11.310  22.650  0.00  0.00    +0.000 OA
BRANCH  20  21
ATOM     21  C   UNL     1      -1.644  11.973  22.166  0.00  0.00    +0.000 C 
BRANCH  21  25
ATOM     22  C   UNL     1      -4.743  12.719  24.396  0.00  0.00    +0.000 C 
ATOM     23  C   UNL     1      -3.908  12.514  23.164  0.00  0.00    +0.000 C 
ATOM     24  C   UNL     1      -4.557  12.779  21.831  0.00  0.00    +0.000 C 
ATOM     25  C   UNL     1      -2.624  12.125  23.286  0.00  0.00    +0.000 C 
ENDBRANCH  21  25
ENDBRANCH  20  21
ENDBRANCH   1  20
BRANCH   9  26
ATOM     26  O   UNL     1       3.747   4.200  17.008  0.00  0.00    +0.000 OA
BRANCH  26  27
ATOM     27  C   UNL     1       5.009   4.626  16.503  0.00  0.00    +0.000 C 
BRANCH  27  28
ATOM     28  C   UNL     1       6.085   4.596  17.542  0.00  0.00    +0.000 C 
ATOM     29  C   UNL     1       6.777   5.705  17.883  0.00  0.00    +0.000 C 
ATOM     30  C   UNL     1       6.532   7.066  17.273  0.00  0.00    +0.000 C 
ATOM     31  C   UNL     1       7.870   5.672  18.911  0.00  0.00    +0.000 C 
ENDBRANCH  27  28
ENDBRANCH  26  27
ENDBRANCH   9  26
TORSDOF 8
ENDMDL
MODEL 4
REMARK VINA RESULT:      -8.3      1.190      1.550
REMARK  Name = 
REMARK  12 active torsions:
REMARK  status: ('A' for Active; 'I' for Inactive)
REMARK    1  A    between atoms: C_1  and  C_2
REMARK    2  A    between atoms: C_2  and  C_3
REMARK    3  A    between atoms: C_4  and  C_5
REMARK    4  A    between atoms: C_5  and  O_6
REMARK    5  A    between atoms: O_6  and  C_7
REMARK    6  A    between atoms: C_9  and  O_10
REMARK    7  A    between atoms: C_16  and  O_17
REMARK    8  A    between atoms: O_17  and  C_18
REMARK    9  A    between atoms: C_18  and  C_19
REMARK   10  A    between atoms: C_20  and  C_21
REMARK   11  A    between atoms: C_20  and  C_22
REMARK   12  A    between atoms: C_23  and  O_24
REMARK                            x       y       z     vdW  Elec       q    Type
REMARK                         _______ _______ _______ _____ _____    ______ ____
ROOT
ATOM      1  C   UNL     1       5.221   4.681  17.089  0.00  0.00    +0.000 A 
ATOM      2  C   UNL     1       4.828   3.962  18.217  0.00  0.00    +0.000 A 
ATOM      3  C   UNL     1       3.911   4.516  19.119  0.00  0.00    +0.000 A 
ATOM      4  C   UNL     1       3.395   5.800  18.908  0.00  0.00    +0.000 A 
ATOM      5  C   UNL     1       2.389   6.447  19.785  0.00  0.00    +0.000 A 
ATOM      6  O   UNL     1       1.910   5.913  20.781  0.00  0.00    +0.000 OA
ATOM      7  C   UNL     1       1.947   7.801  19.411  0.00  0.00    +0.000 A 
ATOM      8  C   UNL     1       0.986   8.488  20.166  0.00  0.00    +0.000 A 
ATOM      9  C   UNL     1       0.562   9.764  19.775  0.00  0.00    +0.000 A 
ATOM     10  C   UNL     1       1.164  10.356  18.652  0.00  0.00    +0.000 A 
ATOM     11  C   UNL     1       2.099   9.663  17.892  0.00  0.00    +0.000 A 
ATOM     12  C   UNL     1       2.490   8.386  18.275  0.00  0.00    +0.000 A 
ATOM     13  O   UNL     1       3.423   7.790  17.476  0.00  0.00    +0.000 OA
ATOM     14  C   UNL     1       3.837   6.526  17.803  0.00  0.00    +0.000 A 
ATOM     15  C   UNL     1       4.755   5.980  16.909  0.00  0.00    +0.000 A 
ENDROOT
BRANCH   3  16
ATOM     16  O   UNL     1       3.522   3.773  20.197  0.00  0.00    +0.000 OA
ATOM     17  H   UNL     1       4.125   3.917  20.942  0.00  0.00    +0.000 HD
ENDBRANCH   3  16
BRANCH  10  18
ATOM     18  O   UNL     1       0.918  11.628  18.218  0.00  0.00    +0.000 OA
ATOM     19  H   UNL     1       0.255  12.012  18.815  0.00  0.00    +0.000 HD
ENDBRANCH  10  18
BRANCH   1  20
ATOM     20  O   UNL     1       6.044   4.027  16.210  0.00  0.00    +0.000 OA
BRANCH  20  21
ATOM     21  C   UNL     1       6.143   4.660  14.931  0.00  0.00    +0.000 C 
BRANCH  21  25
ATOM     22  C   UNL     1       5.224   2.768  11.657  0.00  0.00    +0.000 C 
ATOM     23  C   UNL     1       5.986   3.635  12.620  0.00  0.00    +0.000 C 
ATOM     24  C   UNL     1       7.209   4.345  12.100  0.00  0.00    +0.000 C 
ATOM     25  C   UNL     1       5.552   3.765  13.889  0.00  0.00    +0.000 C 
ENDBRANCH  21  25
ENDBRANCH  20  21
ENDBRANCH   1  20
BRANCH   9  26
ATOM     26  O   UNL     1      -0.442  10.293  20.552  0.00  0.00    +0.000 OA
BRANCH  26  27
ATOM     27  C   UNL     1      -0.007  10.818  21.802  0.00  0.00    +0.000 C 
BRANCH  27  28
ATOM     28  C   UNL     1      -1.126  10.971  22.783  0.00  0.00    +0.000 C 
ATOM     29  C   UNL     1      -1.999  11.999  22.713  0.00  0.00    +0.000 C 
ATOM     30  C   UNL     1      -1.946  13.073  21.651  0.00  0.00    +0.000 C 
ATOM     31  C   UNL     1      -3.110  12.165  23.709  0.00  0.00    +0.000 C 
ENDBRANCH  27  28
ENDBRANCH  26  27
ENDBRANCH   9  26
TORSDOF 8
ENDMDL
MODEL 5
REMARK VINA RESULT:      -8.3      2.944      7.974
REMARK  Name = 
REMARK  12 active torsions:
REMARK  status: ('A' for Active; 'I' for Inactive)
REMARK    1  A    between atoms: C_1  and  C_2
REMARK    2  A    between atoms: C_2  and  C_3
REMARK    3  A    between atoms: C_4  and  C_5
REMARK    4  A    between atoms: C_5  and  O_6
REMARK    5  A    between atoms: O_6  and  C_7
REMARK    6  A    between atoms: C_9  and  O_10
REMARK    7  A    between atoms: C_16  and  O_17
REMARK    8  A    between atoms: O_17  and  C_18
REMARK    9  A    between atoms: C_18  and  C_19
REMARK   10  A    between atoms: C_20  and  C_21
REMARK   11  A    between atoms: C_20  and  C_22
REMARK   12  A    between atoms: C_23  and  O_24
REMARK                            x       y       z     vdW  Elec       q    Type
REMARK                         _______ _______ _______ _____ _____    ______ ____
ROOT
ATOM      1  C   UNL     1       0.357  10.835  18.832  0.00  0.00    +0.000 A 
ATOM      2  C   UNL     1      -0.090  10.310  20.044  0.00  0.00    +0.000 A 
ATOM      3  C   UNL     1       0.421   9.094  20.513  0.00  0.00    +0.000 A 
ATOM      4  C   UNL     1       1.370   8.387  19.766  0.00  0.00    +0.000 A 
ATOM      5  C   UNL     1       1.997   7.116  20.207  0.00  0.00    +0.000 A 
ATOM      6  O   UNL     1       1.744   6.566  21.274  0.00  0.00    +0.000 OA
ATOM      7  C   UNL     1       2.985   6.509  19.299  0.00  0.00    +0.000 A 
ATOM      8  C   UNL     1       3.647   5.319  19.634  0.00  0.00    +0.000 A 
ATOM      9  C   UNL     1       4.602   4.775  18.767  0.00  0.00    +0.000 A 
ATOM     10  C   UNL     1       4.833   5.414  17.538  0.00  0.00    +0.000 A 
ATOM     11  C   UNL     1       4.193   6.606  17.219  0.00  0.00    +0.000 A 
ATOM     12  C   UNL     1       3.269   7.151  18.101  0.00  0.00    +0.000 A 
ATOM     13  O   UNL     1       2.682   8.314  17.696  0.00  0.00    +0.000 OA
ATOM     14  C   UNL     1       1.769   8.899  18.533  0.00  0.00    +0.000 A 
ATOM     15  C   UNL     1       1.254  10.105  18.060  0.00  0.00    +0.000 A 
ENDROOT
BRANCH   3  16
ATOM     16  O   UNL     1      -0.014   8.623  21.719  0.00  0.00    +0.000 OA
ATOM     17  H   UNL     1      -0.960   8.416  21.681  0.00  0.00    +0.000 HD
ENDBRANCH   3  16
BRANCH  10  18
ATOM     18  O   UNL     1       5.661   4.941  16.559  0.00  0.00    +0.000 OA
ATOM     19  H   UNL     1       6.486   5.452  16.611  0.00  0.00    +0.000 HD
ENDBRANCH  10  18
BRANCH   1  20
ATOM     20  O   UNL     1      -0.123  12.075  18.495  0.00  0.00    +0.000 OA
BRANCH  20  21
ATOM     21  C   UNL     1      -1.549  12.132  18.389  0.00  0.00    +0.000 C 
BRANCH  21  25
ATOM     22  C   UNL     1      -2.876  10.295  15.227  0.00  0.00    +0.000 C 
ATOM     23  C   UNL     1      -2.624  10.610  16.675  0.00  0.00    +0.000 C 
ATOM     24  C   UNL     1      -3.122   9.623  17.698  0.00  0.00    +0.000 C 
ATOM     25  C   UNL     1      -1.958  11.733  17.008  0.00  0.00    +0.000 C 
ENDBRANCH  21  25
ENDBRANCH  20  21
ENDBRANCH   1  20
BRANCH   9  26
ATOM     26  O   UNL     1       5.235   3.654  19.250  0.00  0.00    +0.000 OA
BRANCH  26  27
ATOM     27  C   UNL     1       4.366   2.696  19.847  0.00  0.00    +0.000 C 
BRANCH  27  28
ATOM     28  C   UNL     1       3.143   2.437  19.024  0.00  0.00    +0.000 C 
ATOM     29  C   UNL     1       1.909   2.400  19.574  0.00  0.00    +0.000 C 
ATOM     30  C   UNL     1       1.640   2.624  21.044  0.00  0.00    +0.000 C 
ATOM     31  C   UNL     1       0.684   2.121  18.753  0.00  0.00    +0.000 C 
ENDBRANCH  27  28
ENDBRANCH  26  27
ENDBRANCH   9  26
TORSDOF 8
ENDMDL
MODEL 6
REMARK VINA RESULT:      -8.0      1.062      1.525
REMARK  Name = 
REMARK  12 active torsions:
REMARK  status: ('A' for Active; 'I' for Inactive)
REMARK    1  A    between atoms: C_1  and  C_2
REMARK    2  A    between atoms: C_2  and  C_3
REMARK    3  A    between atoms: C_4  and  C_5
REMARK    4  A    between atoms: C_5  and  O_6
REMARK    5  A    between atoms: O_6  and  C_7
REMARK    6  A    between atoms: C_9  and  O_10
REMARK    7  A    between atoms: C_16  and  O_17
REMARK    8  A    between atoms: O_17  and  C_18
REMARK    9  A    between atoms: C_18  and  C_19
REMARK   10  A    between atoms: C_20  and  C_21
REMARK   11  A    between atoms: C_20  and  C_22
REMARK   12  A    between atoms: C_23  and  O_24
REMARK                            x       y       z     vdW  Elec       q    Type
REMARK                         _______ _______ _______ _____ _____    ______ ____
ROOT
ATOM      1  C   UNL     1       5.535   4.710  16.373  0.00  0.00    +0.000 A 
ATOM      2  C   UNL     1       5.376   3.941  17.525  0.00  0.00    +0.000 A 
ATOM      3  C   UNL     1       4.547   4.389  18.560  0.00  0.00    +0.000 A 
ATOM      4  C   UNL     1       3.885   5.618  18.458  0.00  0.00    +0.000 A 
ATOM      5  C   UNL     1       2.954   6.150  19.484  0.00  0.00    +0.000 A 
ATOM      6  O   UNL     1       2.674   5.558  20.522  0.00  0.00    +0.000 OA
ATOM      7  C   UNL     1       2.335   7.458  19.211  0.00  0.00    +0.000 A 
ATOM      8  C   UNL     1       1.428   8.036  20.111  0.00  0.00    +0.000 A 
ATOM      9  C   UNL     1       0.832   9.268  19.817  0.00  0.00    +0.000 A 
ATOM     10  C   UNL     1       1.209   9.932  18.638  0.00  0.00    +0.000 A 
ATOM     11  C   UNL     1       2.091   9.346  17.737  0.00  0.00    +0.000 A 
ATOM     12  C   UNL     1       2.653   8.109  18.027  0.00  0.00    +0.000 A 
ATOM     13  O   UNL     1       3.517   7.620  17.091  0.00  0.00    +0.000 OA
ATOM     14  C   UNL     1       4.093   6.399  17.323  0.00  0.00    +0.000 A 
ATOM     15  C   UNL     1       4.926   5.959  16.295  0.00  0.00    +0.000 A 
ENDROOT
BRANCH   3  16
ATOM     16  O   UNL     1       4.388   3.597  19.662  0.00  0.00    +0.000 OA
ATOM     17  H   UNL     1       3.747   3.992  20.272  0.00  0.00    +0.000 HD
ENDBRANCH   3  16
BRANCH  10  18
ATOM     18  O   UNL     1       0.783  11.179  18.277  0.00  0.00    +0.000 OA
ATOM     19  H   UNL     1       0.181  11.068  17.522  0.00  0.00    +0.000 HD
ENDBRANCH  10  18
BRANCH   1  20
ATOM     20  O   UNL     1       6.286   4.153  15.371  0.00  0.00    +0.000 OA
BRANCH  20  21
ATOM     21  C   UNL     1       5.824   4.477  14.056  0.00  0.00    +0.000 C 
BRANCH  21  25
ATOM     22  C   UNL     1       6.403   1.903  11.196  0.00  0.00    +0.000 C 
ATOM     23  C   UNL     1       5.733   2.957  12.032  0.00  0.00    +0.000 C 
ATOM     24  C   UNL     1       4.327   3.350  11.661  0.00  0.00    +0.000 C 
ATOM     25  C   UNL     1       6.389   3.495  13.079  0.00  0.00    +0.000 C 
ENDBRANCH  21  25
ENDBRANCH  20  21
ENDBRANCH   1  20
BRANCH   9  26
ATOM     26  O   UNL     1      -0.100   9.684  20.740  0.00  0.00    +0.000 OA
BRANCH  26  27
ATOM     27  C   UNL     1       0.406  10.579  21.726  0.00  0.00    +0.000 C 
BRANCH  27  28
ATOM     28  C   UNL     1      -0.335  11.879  21.758  0.00  0.00    +0.000 C 
ATOM     29  C   UNL     1       0.237  13.035  21.355  0.00  0.00    +0.000 C 
ATOM     30  C   UNL     1       1.650  13.132  20.829  0.00  0.00    +0.000 C 
ATOM     31  C   UNL     1      -0.499  14.342  21.405  0.00  0.00    +0.000 C 
ENDBRANCH  27  28
ENDBRANCH  26  27
ENDBRANCH   9  26
TORSDOF 8
ENDMDL
MODEL 7
REMARK VINA RESULT:      -7.9      1.789      9.981
REMARK  Name = 
REMARK  12 active torsions:
REMARK  status: ('A' for Active; 'I' for Inactive)
REMARK    1  A    between atoms: C_1  and  C_2
REMARK    2  A    between atoms: C_2  and  C_3
REMARK    3  A    between atoms: C_4  and  C_5
REMARK    4  A    between atoms: C_5  and  O_6
REMARK    5  A    between atoms: O_6  and  C_7
REMARK    6  A    between atoms: C_9  and  O_10
REMARK    7  A    between atoms: C_16  and  O_17
REMARK    8  A    between atoms: O_17  and  C_18
REMARK    9  A    between atoms: C_18  and  C_19
REMARK   10  A    between atoms: C_20  and  C_21
REMARK   11  A    between atoms: C_20  and  C_22
REMARK   12  A    between atoms: C_23  and  O_24
REMARK                            x       y       z     vdW  Elec       q    Type
REMARK                         _______ _______ _______ _____ _____    ______ ____
ROOT
ATOM      1  C   UNL     1       0.286  10.504  21.865  0.00  0.00    +0.000 A 
ATOM      2  C   UNL     1       0.459  11.165  20.649  0.00  0.00    +0.000 A 
ATOM      3  C   UNL     1       0.996  10.485  19.550  0.00  0.00    +0.000 A 
ATOM      4  C   UNL     1       1.380   9.143  19.663  0.00  0.00    +0.000 A 
ATOM      5  C   UNL     1       1.914   8.333  18.541  0.00  0.00    +0.000 A 
ATOM      6  O   UNL     1       2.069   8.764  17.402  0.00  0.00    +0.000 OA
ATOM      7  C   UNL     1       2.260   6.932  18.834  0.00  0.00    +0.000 A 
ATOM      8  C   UNL     1       2.755   6.080  17.836  0.00  0.00    +0.000 A 
ATOM      9  C   UNL     1       3.052   4.745  18.132  0.00  0.00    +0.000 A 
ATOM     10  C   UNL     1       2.900   4.302  19.456  0.00  0.00    +0.000 A 
ATOM     11  C   UNL     1       2.386   5.141  20.438  0.00  0.00    +0.000 A 
ATOM     12  C   UNL     1       2.069   6.457  20.124  0.00  0.00    +0.000 A 
ATOM     13  O   UNL     1       1.585   7.208  21.155  0.00  0.00    +0.000 OA
ATOM     14  C   UNL     1       1.248   8.511  20.898  0.00  0.00    +0.000 A 
ATOM     15  C   UNL     1       0.722   9.189  21.996  0.00  0.00    +0.000 A 
ENDROOT
BRANCH   3  16
ATOM     16  O   UNL     1       1.123  11.152  18.365  0.00  0.00    +0.000 OA
ATOM     17  H   UNL     1       1.848  10.777  17.842  0.00  0.00    +0.000 HD
ENDBRANCH   3  16
BRANCH  10  18
ATOM     18  O   UNL     1       3.243   3.057  19.904  0.00  0.00    +0.000 OA
ATOM     19  H   UNL     1       2.549   2.773  20.522  0.00  0.00    +0.000 HD
ENDBRANCH  10  18
BRANCH   1  20
ATOM     20  O   UNL     1      -0.335  11.215  22.859  0.00  0.00    +0.000 OA
BRANCH  20  21
ATOM     21  C   UNL     1      -0.892  12.457  22.418  0.00  0.00    +0.000 C 
BRANCH  21  25
ATOM     22  C   UNL     1      -4.758  12.880  22.502  0.00  0.00    +0.000 C 
ATOM     23  C   UNL     1      -3.364  12.756  21.956  0.00  0.00    +0.000 C 
ATOM     24  C   UNL     1      -3.179  12.937  20.472  0.00  0.00    +0.000 C 
ATOM     25  C   UNL     1      -2.338  12.511  22.794  0.00  0.00    +0.000 C 
ENDBRANCH  21  25
ENDBRANCH  20  21
ENDBRANCH   1  20
BRANCH   9  26
ATOM     26  O   UNL     1       3.450   3.997  17.048  0.00  0.00    +0.000 OA
BRANCH  26  27
ATOM     27  C   UNL     1       4.844   4.068  16.763  0.00  0.00    +0.000 C 
BRANCH  27  28
ATOM     28  C   UNL     1       5.154   3.766  15.330  0.00  0.00    +0.000 C 
ATOM     29  C   UNL     1       6.255   4.259  14.721  0.00  0.00    +0.000 C 
ATOM     30  C   UNL     1       7.273   5.136  15.411  0.00  0.00    +0.000 C 
ATOM     31  C   UNL     1       6.556   3.974  13.278  0.00  0.00    +0.000 C 
ENDBRANCH  27  28
ENDBRANCH  26  27
ENDBRANCH   9  26
TORSDOF 8
ENDMDL
MODEL 8
REMARK VINA RESULT:      -7.9      2.019     10.235
REMARK  Name = 
REMARK  12 active torsions:
REMARK  status: ('A' for Active; 'I' for Inactive)
REMARK    1  A    between atoms: C_1  and  C_2
REMARK    2  A    between atoms: C_2  and  C_3
REMARK    3  A    between atoms: C_4  and  C_5
REMARK    4  A    between atoms: C_5  and  O_6
REMARK    5  A    between atoms: O_6  and  C_7
REMARK    6  A    between atoms: C_9  and  O_10
REMARK    7  A    between atoms: C_16  and  O_17
REMARK    8  A    between atoms: O_17  and  C_18
REMARK    9  A    between atoms: C_18  and  C_19
REMARK   10  A    between atoms: C_20  and  C_21
REMARK   11  A    between atoms: C_20  and  C_22
REMARK   12  A    between atoms: C_23  and  O_24
REMARK                            x       y       z     vdW  Elec       q    Type
REMARK                         _______ _______ _______ _____ _____    ______ ____
ROOT
ATOM      1  C   UNL     1       0.164  10.795  21.683  0.00  0.00    +0.000 A 
ATOM      2  C   UNL     1       0.453  11.418  20.470  0.00  0.00    +0.000 A 
ATOM      3  C   UNL     1       1.041  10.689  19.429  0.00  0.00    +0.000 A 
ATOM      4  C   UNL     1       1.359   9.336  19.600  0.00  0.00    +0.000 A 
ATOM      5  C   UNL     1       1.941   8.477  18.539  0.00  0.00    +0.000 A 
ATOM      6  O   UNL     1       2.196   8.873  17.406  0.00  0.00    +0.000 OA
ATOM      7  C   UNL     1       2.205   7.071  18.888  0.00  0.00    +0.000 A 
ATOM      8  C   UNL     1       2.736   6.176  17.948  0.00  0.00    +0.000 A 
ATOM      9  C   UNL     1       2.955   4.837  18.295  0.00  0.00    +0.000 A 
ATOM     10  C   UNL     1       2.687   4.434  19.614  0.00  0.00    +0.000 A 
ATOM     11  C   UNL     1       2.138   5.318  20.536  0.00  0.00    +0.000 A 
ATOM     12  C   UNL     1       1.900   6.637  20.170  0.00  0.00    +0.000 A 
ATOM     13  O   UNL     1       1.374   7.433  21.145  0.00  0.00    +0.000 OA
ATOM     14  C   UNL     1       1.110   8.741  20.836  0.00  0.00    +0.000 A 
ATOM     15  C   UNL     1       0.534   9.467  21.876  0.00  0.00    +0.000 A 
ENDROOT
BRANCH   3  16
ATOM     16  O   UNL     1       1.282  11.320  18.242  0.00  0.00    +0.000 OA
ATOM     17  H   UNL     1       0.726  10.948  17.541  0.00  0.00    +0.000 HD
ENDBRANCH   3  16
BRANCH  10  18
ATOM     18  O   UNL     1       2.944   3.188  20.114  0.00  0.00    +0.000 OA
ATOM     19  H   UNL     1       2.120   2.678  20.049  0.00  0.00    +0.000 HD
ENDBRANCH  10  18
BRANCH   1  20
ATOM     20  O   UNL     1      -0.498  11.555  22.612  0.00  0.00    +0.000 OA
BRANCH  20  21
ATOM     21  C   UNL     1      -1.529  12.377  22.057  0.00  0.00    +0.000 C 
BRANCH  21  25
ATOM     22  C   UNL     1      -3.029  14.862  24.647  0.00  0.00    +0.000 C 
ATOM     23  C   UNL     1      -2.827  13.602  23.853  0.00  0.00    +0.000 C 
ATOM     24  C   UNL     1      -3.813  12.483  24.062  0.00  0.00    +0.000 C 
ATOM     25  C   UNL     1      -1.802  13.519  22.982  0.00  0.00    +0.000 C 
ENDBRANCH  21  25
ENDBRANCH  20  21
ENDBRANCH   1  20
BRANCH   9  26
ATOM     26  O   UNL     1       3.400   4.047  17.261  0.00  0.00    +0.000 OA
BRANCH  26  27
ATOM     27  C   UNL     1       4.815   3.898  17.200  0.00  0.00    +0.000 C 
BRANCH  27  28
ATOM     28  C   UNL     1       5.340   3.966  15.800  0.00  0.00    +0.000 C 
ATOM     29  C   UNL     1       6.382   4.760  15.468  0.00  0.00    +0.000 C 
ATOM     30  C   UNL     1       7.118   5.634  16.457  0.00  0.00    +0.000 C 
ATOM     31  C   UNL     1       6.897   4.844  14.061  0.00  0.00    +0.000 C 
ENDBRANCH  27  28
ENDBRANCH  26  27
ENDBRANCH   9  26
TORSDOF 8
ENDMDL
MODEL 9
REMARK VINA RESULT:      -7.9      1.918      9.944
REMARK  Name = 
REMARK  12 active torsions:
REMARK  status: ('A' for Active; 'I' for Inactive)
REMARK    1  A    between atoms: C_1  and  C_2
REMARK    2  A    between atoms: C_2  and  C_3
REMARK    3  A    between atoms: C_4  and  C_5
REMARK    4  A    between atoms: C_5  and  O_6
REMARK    5  A    between atoms: O_6  and  C_7
REMARK    6  A    between atoms: C_9  and  O_10
REMARK    7  A    between atoms: C_16  and  O_17
REMARK    8  A    between atoms: O_17  and  C_18
REMARK    9  A    between atoms: C_18  and  C_19
REMARK   10  A    between atoms: C_20  and  C_21
REMARK   11  A    between atoms: C_20  and  C_22
REMARK   12  A    between atoms: C_23  and  O_24
REMARK                            x       y       z     vdW  Elec       q    Type
REMARK                         _______ _______ _______ _____ _____    ______ ____
ROOT
ATOM      1  C   UNL     1       0.026  10.824  20.626  0.00  0.00    +0.000 A 
ATOM      2  C   UNL     1       0.610  11.255  19.436  0.00  0.00    +0.000 A 
ATOM      3  C   UNL     1       1.393  10.376  18.679  0.00  0.00    +0.000 A 
ATOM      4  C   UNL     1       1.613   9.064  19.115  0.00  0.00    +0.000 A 
ATOM      5  C   UNL     1       2.390   8.054  18.357  0.00  0.00    +0.000 A 
ATOM      6  O   UNL     1       2.915   8.273  17.269  0.00  0.00    +0.000 OA
ATOM      7  C   UNL     1       2.515   6.716  18.960  0.00  0.00    +0.000 A 
ATOM      8  C   UNL     1       3.214   5.687  18.312  0.00  0.00    +0.000 A 
ATOM      9  C   UNL     1       3.296   4.416  18.893  0.00  0.00    +0.000 A 
ATOM     10  C   UNL     1       2.717   4.218  20.157  0.00  0.00    +0.000 A 
ATOM     11  C   UNL     1       2.004   5.232  20.786  0.00  0.00    +0.000 A 
ATOM     12  C   UNL     1       1.906   6.481  20.185  0.00  0.00    +0.000 A 
ATOM     13  O   UNL     1       1.200   7.416  20.884  0.00  0.00    +0.000 OA
ATOM     14  C   UNL     1       1.064   8.663  20.333  0.00  0.00    +0.000 A 
ATOM     15  C   UNL     1       0.291   9.540  21.092  0.00  0.00    +0.000 A 
ENDROOT
BRANCH   3  16
ATOM     16  O   UNL     1       1.925  10.820  17.502  0.00  0.00    +0.000 OA
ATOM     17  H   UNL     1       1.235  11.213  16.945  0.00  0.00    +0.000 HD
ENDBRANCH   3  16
BRANCH  10  18
ATOM     18  O   UNL     1       2.805   3.061  20.880  0.00  0.00    +0.000 OA
ATOM     19  H   UNL     1       2.520   2.337  20.298  0.00  0.00    +0.000 HD
ENDBRANCH  10  18
BRANCH   1  20
ATOM     20  O   UNL     1      -0.803  11.717  21.253  0.00  0.00    +0.000 OA
BRANCH  20  21
ATOM     21  C   UNL     1      -1.038  11.417  22.632  0.00  0.00    +0.000 C 
BRANCH  21  25
ATOM     22  C   UNL     1      -3.728  13.840  24.057  0.00  0.00    +0.000 C 
ATOM     23  C   UNL     1      -2.403  13.341  23.554  0.00  0.00    +0.000 C 
ATOM     24  C   UNL     1      -1.229  14.282  23.632  0.00  0.00    +0.000 C 
ATOM     25  C   UNL     1      -2.300  12.085  23.076  0.00  0.00    +0.000 C 
ENDBRANCH  21  25
ENDBRANCH  20  21
ENDBRANCH   1  20
BRANCH   9  26
ATOM     26  O   UNL     1       3.937   3.477  18.118  0.00  0.00    +0.000 OA
BRANCH  26  27
ATOM     27  C   UNL     1       5.276   3.816  17.768  0.00  0.00    +0.000 C 
BRANCH  27  28
ATOM     28  C   UNL     1       5.508   3.792  16.290  0.00  0.00    +0.000 C 
ATOM     29  C   UNL     1       6.315   4.689  15.681  0.00  0.00    +0.000 C 
ATOM     30  C   UNL     1       7.062   5.778  16.415  0.00  0.00    +0.000 C 
ATOM     31  C   UNL     1       6.533   4.677  14.197  0.00  0.00    +0.000 C 
ENDBRANCH  27  28
ENDBRANCH  26  27
ENDBRANCH   9  26
TORSDOF 8
ENDMDL
