MODEL 1
REMARK VINA RESULT:      -8.6      0.000      0.000
REMARK  Name = 
REMARK  3 active torsions:
REMARK  status: ('A' for Active; 'I' for Inactive)
REMARK    1  A    between atoms: N_11  and  C_12
REMARK    2  A    between atoms: C_12  and  C_13
REMARK    3  A    between atoms: C_13  and  N_14
REMARK                            x       y       z     vdW  Elec       q    Type
REMARK                         _______ _______ _______ _____ _____    ______ ____
ROOT
ATOM      1  O   UNL     1      -0.261   9.297  21.649  0.00  0.00    +0.000 OA
ATOM      2  C   UNL     1       0.298   9.494  20.579  0.00  0.00    +0.000 C 
ATOM      3  C   UNL     1       1.293   8.543  20.042  0.00  0.00    +0.000 A 
ATOM      4  C   UNL     1       1.533   7.336  20.699  0.00  0.00    +0.000 A 
ATOM      5  C   UNL     1       2.274   6.342  20.059  0.00  0.00    +0.000 A 
ATOM      6  C   UNL     1       2.829   6.586  18.810  0.00  0.00    +0.000 A 
ATOM      7  C   UNL     1       2.593   7.800  18.150  0.00  0.00    +0.000 A 
ATOM      8  C   UNL     1       1.819   8.777  18.769  0.00  0.00    +0.000 A 
ATOM      9  O   UNL     1       1.548   9.906  18.044  0.00  0.00    +0.000 OA
ATOM     10  C   UNL     1       1.058  10.976  18.852  0.00  0.00    +0.000 C 
ATOM     11  N   UNL     1      -0.017  10.506  19.696  0.00  0.00    +0.000 N 
ATOM     12  C   UNL     1       3.617   5.539  18.160  0.00  0.00    +0.000 C 
ATOM     13  O   UNL     1       4.054   5.703  17.026  0.00  0.00    +0.000 OA
ATOM     14  N   UNL     1       3.784   4.380  18.881  0.00  0.00    +0.000 N 
ATOM     15  C   UNL     1       4.062   3.140  18.174  0.00  0.00    +0.000 C 
ATOM     16  C   UNL     1       3.212   2.087  18.895  0.00  0.00    +0.000 C 
ATOM     17  C   UNL     1       2.197   2.921  19.675  0.00  0.00    +0.000 C 
ATOM     18  C   UNL     1       3.066   4.096  20.100  0.00  0.00    +0.000 C 
ATOM     19  O   UNL     1       2.332   5.147  20.700  0.00  0.00    +0.000 OA
ENDROOT
BRANCH  11  20
ATOM     20  C   UNL     1      -1.255  11.268  19.854  0.00  0.00    +0.000 C 
BRANCH  20  21
ATOM     21  C   UNL     1      -1.537  12.161  18.648  0.00  0.00    +0.000 C 
BRANCH  21  22
ATOM     22  N   UNL     1      -2.495  11.580  17.728  0.00  0.00    +0.000 N 
ATOM     23  C   UNL     1      -2.215  10.998  16.526  0.00  0.00    +0.000 A 
ATOM     24  C   UNL     1      -3.438  10.734  15.956  0.00  0.00    +0.000 A 
ATOM     25 CL   UNL     1      -3.757  10.039  14.449  0.00  0.00    +0.000 Cl
ATOM     26  C   UNL     1      -4.383  11.183  16.893  0.00  0.00    +0.000 A 
ATOM     27  N   UNL     1      -3.811  11.694  17.988  0.00  0.00    +0.000 NA
ENDBRANCH  21  22
ENDBRANCH  20  21
ENDBRANCH  11  20
TORSDOF 3
ENDMDL
MODEL 2
REMARK VINA RESULT:      -8.4      1.033      1.191
REMARK  Name = 
REMARK  3 active torsions:
REMARK  status: ('A' for Active; 'I' for Inactive)
REMARK    1  A    between atoms: N_11  and  C_12
REMARK    2  A    between atoms: C_12  and  C_13
REMARK    3  A    between atoms: C_13  and  N_14
REMARK                            x       y       z     vdW  Elec       q    Type
REMARK                         _______ _______ _______ _____ _____    ______ ____
ROOT
ATOM      1  O   UNL     1      -0.042   9.426  21.429  0.00  0.00    +0.000 OA
ATOM      2  C   UNL     1       0.535   9.555  20.359  0.00  0.00    +0.000 C 
ATOM      3  C   UNL     1       1.472   8.528  19.860  0.00  0.00    +0.000 A 
ATOM      4  C   UNL     1       1.630   7.328  20.554  0.00  0.00    +0.000 A 
ATOM      5  C   UNL     1       2.311   6.270  19.950  0.00  0.00    +0.000 A 
ATOM      6  C   UNL     1       2.889   6.442  18.700  0.00  0.00    +0.000 A 
ATOM      7  C   UNL     1       2.736   7.648  18.003  0.00  0.00    +0.000 A 
ATOM      8  C   UNL     1       2.022   8.690  18.585  0.00  0.00    +0.000 A 
ATOM      9  O   UNL     1       1.828   9.812  17.825  0.00  0.00    +0.000 OA
ATOM     10  C   UNL     1       1.401  10.935  18.597  0.00  0.00    +0.000 C 
ATOM     11  N   UNL     1       0.293  10.559  19.444  0.00  0.00    +0.000 N 
ATOM     12  C   UNL     1       3.614   5.327  18.087  0.00  0.00    +0.000 C 
ATOM     13  O   UNL     1       4.069   5.429  16.953  0.00  0.00    +0.000 OA
ATOM     14  N   UNL     1       3.701   4.182  18.844  0.00  0.00    +0.000 N 
ATOM     15  C   UNL     1       3.905   2.907  18.176  0.00  0.00    +0.000 C 
ATOM     16  C   UNL     1       2.984   1.932  18.919  0.00  0.00    +0.000 C 
ATOM     17  C   UNL     1       2.019   2.851  19.665  0.00  0.00    +0.000 C 
ATOM     18  C   UNL     1       2.958   3.981  20.064  0.00  0.00    +0.000 C 
ATOM     19  O   UNL     1       2.288   5.094  20.626  0.00  0.00    +0.000 OA
ENDROOT
BRANCH  11  20
ATOM     20  C   UNL     1      -0.895  11.402  19.568  0.00  0.00    +0.000 C 
BRANCH  20  21
ATOM     21  C   UNL     1      -1.260  12.077  18.249  0.00  0.00    +0.000 C 
BRANCH  21  22
ATOM     22  N   UNL     1      -2.594  11.736  17.790  0.00  0.00    +0.000 N 
ATOM     23  C   UNL     1      -3.740  11.774  18.530  0.00  0.00    +0.000 A 
ATOM     24  C   UNL     1      -4.711  11.230  17.724  0.00  0.00    +0.000 A 
ATOM     25 CL   UNL     1      -6.343  10.976  18.084  0.00  0.00    +0.000 Cl
ATOM     26  C   UNL     1      -4.054  10.907  16.525  0.00  0.00    +0.000 A 
ATOM     27  N   UNL     1      -2.756  11.225  16.556  0.00  0.00    +0.000 NA
ENDBRANCH  21  22
ENDBRANCH  20  21
ENDBRANCH  11  20
TORSDOF 3
ENDMDL
MODEL 3
REMARK VINA RESULT:      -8.3      3.551      8.116
REMARK  Name = 
REMARK  3 active torsions:
REMARK  status: ('A' for Active; 'I' for Inactive)
REMARK    1  A    between atoms: N_11  and  C_12
REMARK    2  A    between atoms: C_12  and  C_13
REMARK    3  A    between atoms: C_13  and  N_14
REMARK                            x       y       z     vdW  Elec       q    Type
REMARK                         _______ _______ _______ _____ _____    ______ ____
ROOT
ATOM      1  O   UNL     1       4.489   5.018  19.588  0.00  0.00    +0.000 OA
ATOM      2  C   UNL     1       4.308   5.896  18.756  0.00  0.00    +0.000 C 
ATOM      3  C   UNL     1       3.171   6.832  18.857  0.00  0.00    +0.000 A 
ATOM      4  C   UNL     1       2.338   6.804  19.977  0.00  0.00    +0.000 A 
ATOM      5  C   UNL     1       1.434   7.846  20.186  0.00  0.00    +0.000 A 
ATOM      6  C   UNL     1       1.316   8.861  19.246  0.00  0.00    +0.000 A 
ATOM      7  C   UNL     1       2.147   8.889  18.118  0.00  0.00    +0.000 A 
ATOM      8  C   UNL     1       3.079   7.873  17.929  0.00  0.00    +0.000 A 
ATOM      9  O   UNL     1       3.924   7.997  16.859  0.00  0.00    +0.000 OA
ATOM     10  C   UNL     1       4.596   6.777  16.542  0.00  0.00    +0.000 C 
ATOM     11  N   UNL     1       5.182   6.212  17.736  0.00  0.00    +0.000 N 
ATOM     12  C   UNL     1       0.351   9.938  19.473  0.00  0.00    +0.000 C 
ATOM     13  O   UNL     1       0.280  10.883  18.696  0.00  0.00    +0.000 OA
ATOM     14  N   UNL     1      -0.412   9.828  20.612  0.00  0.00    +0.000 N 
ATOM     15  C   UNL     1      -0.983  11.029  21.200  0.00  0.00    +0.000 C 
ATOM     16  C   UNL     1      -0.796  10.845  22.710  0.00  0.00    +0.000 C 
ATOM     17  C   UNL     1       0.259   9.744  22.807  0.00  0.00    +0.000 C 
ATOM     18  C   UNL     1      -0.157   8.854  21.645  0.00  0.00    +0.000 C 
ATOM     19  O   UNL     1       0.773   7.821  21.371  0.00  0.00    +0.000 OA
ENDROOT
BRANCH  11  20
ATOM     20  C   UNL     1       6.548   5.691  17.744  0.00  0.00    +0.000 C 
BRANCH  20  21
ATOM     21  C   UNL     1       6.643   4.317  17.086  0.00  0.00    +0.000 C 
BRANCH  21  22
ATOM     22  N   UNL     1       6.636   4.385  15.637  0.00  0.00    +0.000 N 
ATOM     23  C   UNL     1       5.879   3.625  14.793  0.00  0.00    +0.000 A 
ATOM     24  C   UNL     1       6.317   3.939  13.528  0.00  0.00    +0.000 A 
ATOM     25 CL   UNL     1       5.787   3.306  12.054  0.00  0.00    +0.000 Cl
ATOM     26  C   UNL     1       7.325   4.899  13.718  0.00  0.00    +0.000 A 
ATOM     27  N   UNL     1       7.518   5.185  15.010  0.00  0.00    +0.000 NA
ENDBRANCH  21  22
ENDBRANCH  20  21
ENDBRANCH  11  20
TORSDOF 3
ENDMDL
MODEL 4
REMARK VINA RESULT:      -8.1      2.669      3.209
REMARK  Name = 
REMARK  3 active torsions:
REMARK  status: ('A' for Active; 'I' for Inactive)
REMARK    1  A    between atoms: N_11  and  C_12
REMARK    2  A    between atoms: C_12  and  C_13
REMARK    3  A    between atoms: C_13  and  N_14
REMARK                            x       y       z     vdW  Elec       q    Type
REMARK                         _______ _______ _______ _____ _____    ______ ____
ROOT
ATOM      1  O   UNL     1      -0.121   9.180  21.605  0.00  0.00    +0.000 OA
ATOM      2  C   UNL     1       0.436   9.388  20.536  0.00  0.00    +0.000 C 
ATOM      3  C   UNL     1       1.414   8.433  19.978  0.00  0.00    +0.000 A 
ATOM      4  C   UNL     1       1.640   7.210  20.612  0.00  0.00    +0.000 A 
ATOM      5  C   UNL     1       2.364   6.217  19.951  0.00  0.00    +0.000 A 
ATOM      6  C   UNL     1       2.917   6.476  18.705  0.00  0.00    +0.000 A 
ATOM      7  C   UNL     1       2.696   7.704  18.067  0.00  0.00    +0.000 A 
ATOM      8  C   UNL     1       1.939   8.681  18.707  0.00  0.00    +0.000 A 
ATOM      9  O   UNL     1       1.681   9.827  18.003  0.00  0.00    +0.000 OA
ATOM     10  C   UNL     1       1.210  10.890  18.832  0.00  0.00    +0.000 C 
ATOM     11  N   UNL     1       0.133  10.421  19.672  0.00  0.00    +0.000 N 
ATOM     12  C   UNL     1       3.687   5.429  18.032  0.00  0.00    +0.000 C 
ATOM     13  O   UNL     1       4.121   5.606  16.899  0.00  0.00    +0.000 OA
ATOM     14  N   UNL     1       3.839   4.255  18.732  0.00  0.00    +0.000 N 
ATOM     15  C   UNL     1       4.096   3.024  18.002  0.00  0.00    +0.000 C 
ATOM     16  C   UNL     1       3.234   1.971  18.707  0.00  0.00    +0.000 C 
ATOM     17  C   UNL     1       2.234   2.805  19.507  0.00  0.00    +0.000 C 
ATOM     18  C   UNL     1       3.123   3.960  19.949  0.00  0.00    +0.000 C 
ATOM     19  O   UNL     1       2.407   5.011  20.571  0.00  0.00    +0.000 OA
ENDROOT
BRANCH  11  20
ATOM     20  C   UNL     1      -1.093  11.197  19.849  0.00  0.00    +0.000 C 
BRANCH  20  21
ATOM     21  C   UNL     1      -0.926  12.305  20.886  0.00  0.00    +0.000 C 
BRANCH  21  22
ATOM     22  N   UNL     1      -2.115  12.508  21.692  0.00  0.00    +0.000 N 
ATOM     23  C   UNL     1      -2.229  12.299  23.035  0.00  0.00    +0.000 A 
ATOM     24  C   UNL     1      -3.562  12.480  23.320  0.00  0.00    +0.000 A 
ATOM     25 CL   UNL     1      -4.339  12.333  24.813  0.00  0.00    +0.000 Cl
ATOM     26  C   UNL     1      -4.158  12.802  22.089  0.00  0.00    +0.000 A 
ATOM     27  N   UNL     1      -3.273  12.831  21.088  0.00  0.00    +0.000 NA
ENDBRANCH  21  22
ENDBRANCH  20  21
ENDBRANCH  11  20
TORSDOF 3
ENDMDL
MODEL 5
REMARK VINA RESULT:      -8.1      2.047      2.324
REMARK  Name = 
REMARK  3 active torsions:
REMARK  status: ('A' for Active; 'I' for Inactive)
REMARK    1  A    between atoms: N_11  and  C_12
REMARK    2  A    between atoms: C_12  and  C_13
REMARK    3  A    between atoms: C_13  and  N_14
REMARK                            x       y       z     vdW  Elec       q    Type
REMARK                         _______ _______ _______ _____ _____    ______ ____
ROOT
ATOM      1  O   UNL     1       0.227  10.262  21.146  0.00  0.00    +0.000 OA
ATOM      2  C   UNL     1       0.806  10.146  20.076  0.00  0.00    +0.000 C 
ATOM      3  C   UNL     1       1.542   8.914  19.727  0.00  0.00    +0.000 A 
ATOM      4  C   UNL     1       1.493   7.806  20.574  0.00  0.00    +0.000 A 
ATOM      5  C   UNL     1       1.971   6.575  20.122  0.00  0.00    +0.000 A 
ATOM      6  C   UNL     1       2.557   6.477  18.868  0.00  0.00    +0.000 A 
ATOM      7  C   UNL     1       2.611   7.589  18.017  0.00  0.00    +0.000 A 
ATOM      8  C   UNL     1       2.098   8.808  18.449  0.00  0.00    +0.000 A 
ATOM      9  O   UNL     1       2.096   9.837  17.546  0.00  0.00    +0.000 OA
ATOM     10  C   UNL     1       1.882  11.108  18.159  0.00  0.00    +0.000 C 
ATOM     11  N   UNL     1       0.734  11.048  19.034  0.00  0.00    +0.000 N 
ATOM     12  C   UNL     1       3.068   5.182  18.416  0.00  0.00    +0.000 C 
ATOM     13  O   UNL     1       3.521   5.053  17.284  0.00  0.00    +0.000 OA
ATOM     14  N   UNL     1       2.960   4.148  19.317  0.00  0.00    +0.000 N 
ATOM     15  C   UNL     1       2.929   2.781  18.824  0.00  0.00    +0.000 C 
ATOM     16  C   UNL     1       1.859   2.089  19.677  0.00  0.00    +0.000 C 
ATOM     17  C   UNL     1       1.079   3.254  20.284  0.00  0.00    +0.000 C 
ATOM     18  C   UNL     1       2.207   4.242  20.543  0.00  0.00    +0.000 C 
ATOM     19  O   UNL     1       1.749   5.520  20.946  0.00  0.00    +0.000 OA
ENDROOT
BRANCH  11  20
ATOM     20  C   UNL     1      -0.285  12.096  19.032  0.00  0.00    +0.000 C 
BRANCH  20  21
ATOM     21  C   UNL     1      -1.592  11.624  18.400  0.00  0.00    +0.000 C 
BRANCH  21  22
ATOM     22  N   UNL     1      -2.765  12.077  19.124  0.00  0.00    +0.000 N 
ATOM     23  C   UNL     1      -2.781  12.653  20.360  0.00  0.00    +0.000 A 
ATOM     24  C   UNL     1      -4.111  12.773  20.688  0.00  0.00    +0.000 A 
ATOM     25 CL   UNL     1      -4.783  13.391  22.110  0.00  0.00    +0.000 Cl
ATOM     26  C   UNL     1      -4.808  12.253  19.585  0.00  0.00    +0.000 A 
ATOM     27  N   UNL     1      -3.987  11.833  18.617  0.00  0.00    +0.000 NA
ENDBRANCH  21  22
ENDBRANCH  20  21
ENDBRANCH  11  20
TORSDOF 3
ENDMDL
MODEL 6
REMARK VINA RESULT:      -8.0      2.593      3.267
REMARK  Name = 
REMARK  3 active torsions:
REMARK  status: ('A' for Active; 'I' for Inactive)
REMARK    1  A    between atoms: N_11  and  C_12
REMARK    2  A    between atoms: C_12  and  C_13
REMARK    3  A    between atoms: C_13  and  N_14
REMARK                            x       y       z     vdW  Elec       q    Type
REMARK                         _______ _______ _______ _____ _____    ______ ____
ROOT
ATOM      1  O   UNL     1       0.088   9.472  21.020  0.00  0.00    +0.000 OA
ATOM      2  C   UNL     1       0.721   9.572  19.978  0.00  0.00    +0.000 C 
ATOM      3  C   UNL     1       1.648   8.511  19.535  0.00  0.00    +0.000 A 
ATOM      4  C   UNL     1       1.735   7.315  20.247  0.00  0.00    +0.000 A 
ATOM      5  C   UNL     1       2.412   6.231  19.688  0.00  0.00    +0.000 A 
ATOM      6  C   UNL     1       3.056   6.371  18.466  0.00  0.00    +0.000 A 
ATOM      7  C   UNL     1       2.974   7.573  17.751  0.00  0.00    +0.000 A 
ATOM      8  C   UNL     1       2.264   8.642  18.288  0.00  0.00    +0.000 A 
ATOM      9  O   UNL     1       2.142   9.761  17.508  0.00  0.00    +0.000 OA
ATOM     10  C   UNL     1       1.713  10.905  18.247  0.00  0.00    +0.000 C 
ATOM     11  N   UNL     1       0.554  10.572  19.042  0.00  0.00    +0.000 N 
ATOM     12  C   UNL     1       3.775   5.228  17.901  0.00  0.00    +0.000 C 
ATOM     13  O   UNL     1       4.288   5.304  16.789  0.00  0.00    +0.000 OA
ATOM     14  N   UNL     1       3.790   4.089  18.671  0.00  0.00    +0.000 N 
ATOM     15  C   UNL     1       3.987   2.801  18.027  0.00  0.00    +0.000 C 
ATOM     16  C   UNL     1       3.002   1.863  18.733  0.00  0.00    +0.000 C 
ATOM     17  C   UNL     1       2.030   2.819  19.422  0.00  0.00    +0.000 C 
ATOM     18  C   UNL     1       2.983   3.924  19.855  0.00  0.00    +0.000 C 
ATOM     19  O   UNL     1       2.320   5.063  20.373  0.00  0.00    +0.000 OA
ENDROOT
BRANCH  11  20
ATOM     20  C   UNL     1      -0.613  11.452  19.100  0.00  0.00    +0.000 C 
BRANCH  20  21
ATOM     21  C   UNL     1      -0.323  12.738  19.870  0.00  0.00    +0.000 C 
BRANCH  21  22
ATOM     22  N   UNL     1      -0.913  12.747  21.195  0.00  0.00    +0.000 N 
ATOM     23  C   UNL     1      -2.179  12.354  21.522  0.00  0.00    +0.000 A 
ATOM     24  C   UNL     1      -2.329  12.678  22.849  0.00  0.00    +0.000 A 
ATOM     25 CL   UNL     1      -3.691  12.466  23.827  0.00  0.00    +0.000 Cl
ATOM     26  C   UNL     1      -1.102  13.248  23.228  0.00  0.00    +0.000 A 
ATOM     27  N   UNL     1      -0.225  13.283  22.219  0.00  0.00    +0.000 NA
ENDBRANCH  21  22
ENDBRANCH  20  21
ENDBRANCH  11  20
TORSDOF 3
ENDMDL
MODEL 7
REMARK VINA RESULT:      -7.9      3.274      8.438
REMARK  Name = 
REMARK  3 active torsions:
REMARK  status: ('A' for Active; 'I' for Inactive)
REMARK    1  A    between atoms: N_11  and  C_12
REMARK    2  A    between atoms: C_12  and  C_13
REMARK    3  A    between atoms: C_13  and  N_14
REMARK                            x       y       z     vdW  Elec       q    Type
REMARK                         _______ _______ _______ _____ _____    ______ ____
ROOT
ATOM      1  O   UNL     1       4.077   6.993  16.537  0.00  0.00    +0.000 OA
ATOM      2  C   UNL     1       3.704   6.642  17.648  0.00  0.00    +0.000 C 
ATOM      3  C   UNL     1       2.901   7.534  18.509  0.00  0.00    +0.000 A 
ATOM      4  C   UNL     1       2.452   8.762  18.020  0.00  0.00    +0.000 A 
ATOM      5  C   UNL     1       1.491   9.476  18.736  0.00  0.00    +0.000 A 
ATOM      6  C   UNL     1       1.044   9.001  19.961  0.00  0.00    +0.000 A 
ATOM      7  C   UNL     1       1.496   7.771  20.456  0.00  0.00    +0.000 A 
ATOM      8  C   UNL     1       2.423   7.036  19.724  0.00  0.00    +0.000 A 
ATOM      9  O   UNL     1       2.763   5.802  20.211  0.00  0.00    +0.000 OA
ATOM     10  C   UNL     1       3.945   5.277  19.607  0.00  0.00    +0.000 C 
ATOM     11  N   UNL     1       3.849   5.372  18.169  0.00  0.00    +0.000 N 
ATOM     12  C   UNL     1       0.048   9.771  20.707  0.00  0.00    +0.000 C 
ATOM     13  O   UNL     1      -0.418   9.336  21.754  0.00  0.00    +0.000 OA
ATOM     14  N   UNL     1      -0.342  10.959  20.134  0.00  0.00    +0.000 N 
ATOM     15  C   UNL     1      -1.641  11.516  20.475  0.00  0.00    +0.000 C 
ATOM     16  C   UNL     1      -2.197  12.039  19.146  0.00  0.00    +0.000 C 
ATOM     17  C   UNL     1      -1.336  11.334  18.098  0.00  0.00    +0.000 C 
ATOM     18  C   UNL     1       0.018  11.347  18.793  0.00  0.00    +0.000 C 
ATOM     19  O   UNL     1       1.000  10.580  18.119  0.00  0.00    +0.000 OA
ENDROOT
BRANCH  11  20
ATOM     20  C   UNL     1       4.220   4.256  17.301  0.00  0.00    +0.000 C 
BRANCH  20  21
ATOM     21  C   UNL     1       5.733   4.140  17.130  0.00  0.00    +0.000 C 
BRANCH  21  22
ATOM     22  N   UNL     1       6.165   4.370  15.765  0.00  0.00    +0.000 N 
ATOM     23  C   UNL     1       5.822   3.631  14.670  0.00  0.00    +0.000 A 
ATOM     24  C   UNL     1       6.581   4.133  13.640  0.00  0.00    +0.000 A 
ATOM     25 CL   UNL     1       6.629   3.616  12.031  0.00  0.00    +0.000 Cl
ATOM     26  C   UNL     1       7.334   5.171  14.212  0.00  0.00    +0.000 A 
ATOM     27  N   UNL     1       7.075   5.329  15.514  0.00  0.00    +0.000 NA
ENDBRANCH  21  22
ENDBRANCH  20  21
ENDBRANCH  11  20
TORSDOF 3
ENDMDL
MODEL 8
REMARK VINA RESULT:      -7.9      3.069      8.417
REMARK  Name = 
REMARK  3 active torsions:
REMARK  status: ('A' for Active; 'I' for Inactive)
REMARK    1  A    between atoms: N_11  and  C_12
REMARK    2  A    between atoms: C_12  and  C_13
REMARK    3  A    between atoms: C_13  and  N_14
REMARK                            x       y       z     vdW  Elec       q    Type
REMARK                         _______ _______ _______ _____ _____    ______ ____
ROOT
ATOM      1  O   UNL     1       3.075   7.021  17.264  0.00  0.00    +0.000 OA
ATOM      2  C   UNL     1       2.702   6.720  18.389  0.00  0.00    +0.000 C 
ATOM      3  C   UNL     1       2.075   7.712  19.285  0.00  0.00    +0.000 A 
ATOM      4  C   UNL     1       1.790   8.996  18.817  0.00  0.00    +0.000 A 
ATOM      5  C   UNL     1       0.975   9.837  19.576  0.00  0.00    +0.000 A 
ATOM      6  C   UNL     1       0.516   9.423  20.818  0.00  0.00    +0.000 A 
ATOM      7  C   UNL     1       0.804   8.136  21.292  0.00  0.00    +0.000 A 
ATOM      8  C   UNL     1       1.582   7.280  20.519  0.00  0.00    +0.000 A 
ATOM      9  O   UNL     1       1.759   6.006  20.989  0.00  0.00    +0.000 OA
ATOM     10  C   UNL     1       2.825   5.319  20.333  0.00  0.00    +0.000 C 
ATOM     11  N   UNL     1       2.682   5.438  18.900  0.00  0.00    +0.000 N 
ATOM     12  C   UNL     1      -0.325  10.324  21.607  0.00  0.00    +0.000 C 
ATOM     13  O   UNL     1      -0.805   9.953  22.673  0.00  0.00    +0.000 OA
ATOM     14  N   UNL     1      -0.561  11.561  21.054  0.00  0.00    +0.000 N 
ATOM     15  C   UNL     1      -1.749  12.299  21.452  0.00  0.00    +0.000 C 
ATOM     16  C   UNL     1      -2.279  12.907  20.148  0.00  0.00    +0.000 C 
ATOM     17  C   UNL     1      -1.576  12.092  19.063  0.00  0.00    +0.000 C 
ATOM     18  C   UNL     1      -0.206  11.903  19.699  0.00  0.00    +0.000 C 
ATOM     19  O   UNL     1       0.624  11.006  18.982  0.00  0.00    +0.000 OA
ENDROOT
BRANCH  11  20
ATOM     20  C   UNL     1       2.849   4.287  18.016  0.00  0.00    +0.000 C 
BRANCH  20  21
ATOM     21  C   UNL     1       4.154   3.541  18.285  0.00  0.00    +0.000 C 
BRANCH  21  22
ATOM     22  N   UNL     1       5.271   4.067  17.522  0.00  0.00    +0.000 N 
ATOM     23  C   UNL     1       5.317   4.245  16.170  0.00  0.00    +0.000 A 
ATOM     24  C   UNL     1       6.611   4.621  15.897  0.00  0.00    +0.000 A 
ATOM     25 CL   UNL     1       7.303   4.960  14.393  0.00  0.00    +0.000 Cl
ATOM     26  C   UNL     1       7.255   4.649  17.145  0.00  0.00    +0.000 A 
ATOM     27  N   UNL     1       6.435   4.321  18.148  0.00  0.00    +0.000 NA
ENDBRANCH  21  22
ENDBRANCH  20  21
ENDBRANCH  11  20
TORSDOF 3
ENDMDL
MODEL 9
REMARK VINA RESULT:      -7.9      3.154      8.368
REMARK  Name = 
REMARK  3 active torsions:
REMARK  status: ('A' for Active; 'I' for Inactive)
REMARK    1  A    between atoms: N_11  and  C_12
REMARK    2  A    between atoms: C_12  and  C_13
REMARK    3  A    between atoms: C_13  and  N_14
REMARK                            x       y       z     vdW  Elec       q    Type
REMARK                         _______ _______ _______ _____ _____    ______ ____
ROOT
ATOM      1  O   UNL     1       3.305   6.900  17.243  0.00  0.00    +0.000 OA
ATOM      2  C   UNL     1       2.880   6.586  18.347  0.00  0.00    +0.000 C 
ATOM      3  C   UNL     1       2.216   7.570  19.225  0.00  0.00    +0.000 A 
ATOM      4  C   UNL     1       1.956   8.860  18.762  0.00  0.00    +0.000 A 
ATOM      5  C   UNL     1       1.110   9.695  19.493  0.00  0.00    +0.000 A 
ATOM      6  C   UNL     1       0.593   9.266  20.708  0.00  0.00    +0.000 A 
ATOM      7  C   UNL     1       0.856   7.973  21.178  0.00  0.00    +0.000 A 
ATOM      8  C   UNL     1       1.667   7.124  20.431  0.00  0.00    +0.000 A 
ATOM      9  O   UNL     1       1.818   5.843  20.892  0.00  0.00    +0.000 OA
ATOM     10  C   UNL     1       2.911   5.161  20.277  0.00  0.00    +0.000 C 
ATOM     11  N   UNL     1       2.834   5.299  18.841  0.00  0.00    +0.000 N 
ATOM     12  C   UNL     1      -0.280  10.160  21.469  0.00  0.00    +0.000 C 
ATOM     13  O   UNL     1      -0.808   9.778  22.508  0.00  0.00    +0.000 OA
ATOM     14  N   UNL     1      -0.487  11.405  20.921  0.00  0.00    +0.000 N 
ATOM     15  C   UNL     1      -1.690  12.142  21.274  0.00  0.00    +0.000 C 
ATOM     16  C   UNL     1      -2.158  12.767  19.956  0.00  0.00    +0.000 C 
ATOM     17  C   UNL     1      -1.409  11.964  18.893  0.00  0.00    +0.000 C 
ATOM     18  C   UNL     1      -0.070  11.762  19.588  0.00  0.00    +0.000 C 
ATOM     19  O   UNL     1       0.789  10.872  18.899  0.00  0.00    +0.000 OA
ENDROOT
BRANCH  11  20
ATOM     20  C   UNL     1       3.037   4.157  17.950  0.00  0.00    +0.000 C 
BRANCH  20  21
ATOM     21  C   UNL     1       4.397   3.497  18.166  0.00  0.00    +0.000 C 
BRANCH  21  22
ATOM     22  N   UNL     1       5.507   4.382  17.870  0.00  0.00    +0.000 N 
ATOM     23  C   UNL     1       6.231   5.105  18.774  0.00  0.00    +0.000 A 
ATOM     24  C   UNL     1       7.066   5.896  18.021  0.00  0.00    +0.000 A 
ATOM     25 CL   UNL     1       8.191   7.036  18.562  0.00  0.00    +0.000 Cl
ATOM     26  C   UNL     1       6.776   5.569  16.686  0.00  0.00    +0.000 A 
ATOM     27  N   UNL     1       5.827   4.632  16.587  0.00  0.00    +0.000 NA
ENDBRANCH  21  22
ENDBRANCH  20  21
ENDBRANCH  11  20
TORSDOF 3
ENDMDL
