MODEL 1
REMARK VINA RESULT:      -8.5      0.000      0.000
REMARK  Name = 
REMARK  1 active torsions:
REMARK  status: ('A' for Active; 'I' for Inactive)
REMARK    1  A    between atoms: C_4  and  N_5
REMARK                            x       y       z     vdW  Elec       q    Type
REMARK                         _______ _______ _______ _____ _____    ______ ____
ROOT
ATOM      1  N   UNL     1       0.066  10.506  19.381  0.00  0.00    +0.000 N 
ATOM      2  C   UNL     1       0.821  10.027  18.209  0.00  0.00    +0.000 C 
ATOM      3  C   UNL     1       2.129   9.333  18.662  0.00  0.00    +0.000 C 
ATOM      4  N   UNL     1       1.815   8.293  19.644  0.00  0.00    +0.000 N 
ATOM      5  C   UNL     1       2.359   7.042  19.572  0.00  0.00    +0.000 A 
ATOM      6  N   UNL     1       3.200   6.768  18.574  0.00  0.00    +0.000 NA
ATOM      7  C   UNL     1       3.740   5.535  18.474  0.00  0.00    +0.000 A 
ATOM      8  N   UNL     1       4.613   5.341  17.426  0.00  0.00    +0.000 N 
ATOM      9  C   UNL     1       4.953   6.377  16.475  0.00  0.00    +0.000 C 
ATOM     10  C   UNL     1       5.258   5.553  15.231  0.00  0.00    +0.000 C 
ATOM     11  C   UNL     1       5.963   4.321  15.784  0.00  0.00    +0.000 C 
ATOM     12  C   UNL     1       5.366   4.122  17.176  0.00  0.00    +0.000 C 
ATOM     13  C   UNL     1       3.412   4.517  19.373  0.00  0.00    +0.000 A 
ATOM     14  N   UNL     1       3.907   3.238  19.310  0.00  0.00    +0.000 NA
ATOM     15  C   UNL     1       3.502   2.356  20.227  0.00  0.00    +0.000 A 
ATOM     16  C   UNL     1       2.626   2.742  21.206  0.00  0.00    +0.000 A 
ATOM     17  N   UNL     1       2.127   4.001  21.288  0.00  0.00    +0.000 NA
ATOM     18  C   UNL     1       2.514   4.902  20.373  0.00  0.00    +0.000 A 
ATOM     19  N   UNL     1       2.011   6.128  20.475  0.00  0.00    +0.000 NA
ATOM     20  C   UNL     1       1.094   8.755  20.830  0.00  0.00    +0.000 C 
ATOM     21  C   UNL     1      -0.204   9.484  20.413  0.00  0.00    +0.000 C 
ENDROOT
BRANCH   1  25
ATOM     22  C   UNL     1      -1.306  14.471  19.746  0.00  0.00    +0.000 A 
ATOM     23  C   UNL     1      -0.269  14.170  18.874  0.00  0.00    +0.000 A 
ATOM     24  C   UNL     1       0.165  12.849  18.737  0.00  0.00    +0.000 A 
ATOM     25  C   UNL     1      -0.415  11.796  19.458  0.00  0.00    +0.000 A 
ATOM     26  C   UNL     1      -1.480  12.131  20.306  0.00  0.00    +0.000 A 
ATOM     27  C   UNL     1      -1.919  13.450  20.456  0.00  0.00    +0.000 A 
ENDBRANCH   1  25
TORSDOF 1
ENDMDL
MODEL 2
REMARK VINA RESULT:      -8.0      1.712      3.974
REMARK  Name = 
REMARK  1 active torsions:
REMARK  status: ('A' for Active; 'I' for Inactive)
REMARK    1  A    between atoms: C_4  and  N_5
REMARK                            x       y       z     vdW  Elec       q    Type
REMARK                         _______ _______ _______ _____ _____    ______ ____
ROOT
ATOM      1  N   UNL     1       0.262  10.929  21.689  0.00  0.00    +0.000 N 
ATOM      2  C   UNL     1       0.470   9.598  22.289  0.00  0.00    +0.000 C 
ATOM      3  C   UNL     1       0.271   8.495  21.222  0.00  0.00    +0.000 C 
ATOM      4  N   UNL     1       1.125   8.775  20.066  0.00  0.00    +0.000 N 
ATOM      5  C   UNL     1       1.888   7.807  19.477  0.00  0.00    +0.000 A 
ATOM      6  N   UNL     1       1.849   6.572  19.977  0.00  0.00    +0.000 NA
ATOM      7  C   UNL     1       2.604   5.601  19.421  0.00  0.00    +0.000 A 
ATOM      8  N   UNL     1       2.490   4.349  19.986  0.00  0.00    +0.000 N 
ATOM      9  C   UNL     1       1.620   4.060  21.105  0.00  0.00    +0.000 C 
ATOM     10  C   UNL     1       2.364   2.912  21.774  0.00  0.00    +0.000 C 
ATOM     11  C   UNL     1       2.915   2.112  20.600  0.00  0.00    +0.000 C 
ATOM     12  C   UNL     1       3.147   3.146  19.499  0.00  0.00    +0.000 C 
ATOM     13  C   UNL     1       3.461   5.863  18.350  0.00  0.00    +0.000 A 
ATOM     14  N   UNL     1       4.271   4.925  17.757  0.00  0.00    +0.000 NA
ATOM     15  C   UNL     1       5.053   5.313  16.747  0.00  0.00    +0.000 A 
ATOM     16  C   UNL     1       5.022   6.612  16.317  0.00  0.00    +0.000 A 
ATOM     17  N   UNL     1       4.227   7.552  16.886  0.00  0.00    +0.000 NA
ATOM     18  C   UNL     1       3.438   7.189  17.909  0.00  0.00    +0.000 A 
ATOM     19  N   UNL     1       2.669   8.129  18.448  0.00  0.00    +0.000 NA
ATOM     20  C   UNL     1       0.912  10.079  19.436  0.00  0.00    +0.000 C 
ATOM     21  C   UNL     1       1.069  11.207  20.483  0.00  0.00    +0.000 C 
ENDROOT
BRANCH   1  25
ATOM     22  C   UNL     1      -2.350  13.805  23.317  0.00  0.00    +0.000 A 
ATOM     23  C   UNL     1      -2.615  12.452  23.479  0.00  0.00    +0.000 A 
ATOM     24  C   UNL     1      -1.731  11.502  22.959  0.00  0.00    +0.000 A 
ATOM     25  C   UNL     1      -0.567  11.867  22.269  0.00  0.00    +0.000 A 
ATOM     26  C   UNL     1      -0.314  13.241  22.151  0.00  0.00    +0.000 A 
ATOM     27  C   UNL     1      -1.194  14.201  22.661  0.00  0.00    +0.000 A 
ENDBRANCH   1  25
TORSDOF 1
ENDMDL
MODEL 3
REMARK VINA RESULT:      -7.9      1.110      3.530
REMARK  Name = 
REMARK  1 active torsions:
REMARK  status: ('A' for Active; 'I' for Inactive)
REMARK    1  A    between atoms: C_4  and  N_5
REMARK                            x       y       z     vdW  Elec       q    Type
REMARK                         _______ _______ _______ _____ _____    ______ ____
ROOT
ATOM      1  N   UNL     1       0.876  11.355  19.683  0.00  0.00    +0.000 N 
ATOM      2  C   UNL     1       0.874  10.187  20.583  0.00  0.00    +0.000 C 
ATOM      3  C   UNL     1       0.735   8.881  19.764  0.00  0.00    +0.000 C 
ATOM      4  N   UNL     1       1.768   8.843  18.728  0.00  0.00    +0.000 N 
ATOM      5  C   UNL     1       2.518   7.725  18.495  0.00  0.00    +0.000 A 
ATOM      6  N   UNL     1       2.297   6.641  19.238  0.00  0.00    +0.000 NA
ATOM      7  C   UNL     1       3.035   5.529  19.036  0.00  0.00    +0.000 A 
ATOM      8  N   UNL     1       2.730   4.448  19.834  0.00  0.00    +0.000 N 
ATOM      9  C   UNL     1       1.685   4.471  20.835  0.00  0.00    +0.000 C 
ATOM     10  C   UNL     1       2.218   3.467  21.848  0.00  0.00    +0.000 C 
ATOM     11  C   UNL     1       2.860   2.391  20.981  0.00  0.00    +0.000 C 
ATOM     12  C   UNL     1       3.340   3.132  19.733  0.00  0.00    +0.000 C 
ATOM     13  C   UNL     1       4.058   5.492  18.086  0.00  0.00    +0.000 A 
ATOM     14  N   UNL     1       4.858   4.401  17.850  0.00  0.00    +0.000 NA
ATOM     15  C   UNL     1       5.810   4.503  16.919  0.00  0.00    +0.000 A 
ATOM     16  C   UNL     1       5.957   5.669  16.217  0.00  0.00    +0.000 A 
ATOM     17  N   UNL     1       5.175   6.757  16.432  0.00  0.00    +0.000 NA
ATOM     18  C   UNL     1       4.217   6.681  17.369  0.00  0.00    +0.000 A 
ATOM     19  N   UNL     1       3.466   7.760  17.560  0.00  0.00    +0.000 NA
ATOM     20  C   UNL     1       1.765   9.977  17.803  0.00  0.00    +0.000 C 
ATOM     21  C   UNL     1       1.869  11.304  18.591  0.00  0.00    +0.000 C 
ENDROOT
BRANCH   1  25
ATOM     22  C   UNL     1      -1.534  14.714  20.490  0.00  0.00    +0.000 A 
ATOM     23  C   UNL     1      -0.464  14.819  19.611  0.00  0.00    +0.000 A 
ATOM     24  C   UNL     1       0.317  13.695  19.327  0.00  0.00    +0.000 A 
ATOM     25  C   UNL     1       0.058  12.444  19.903  0.00  0.00    +0.000 A 
ATOM     26  C   UNL     1      -1.049  12.367  20.761  0.00  0.00    +0.000 A 
ATOM     27  C   UNL     1      -1.833  13.486  21.058  0.00  0.00    +0.000 A 
ENDBRANCH   1  25
TORSDOF 1
ENDMDL
MODEL 4
REMARK VINA RESULT:      -7.8      1.402      1.531
REMARK  Name = 
REMARK  1 active torsions:
REMARK  status: ('A' for Active; 'I' for Inactive)
REMARK    1  A    between atoms: C_4  and  N_5
REMARK                            x       y       z     vdW  Elec       q    Type
REMARK                         _______ _______ _______ _____ _____    ______ ____
ROOT
ATOM      1  N   UNL     1       0.101   9.905  20.787  0.00  0.00    +0.000 N 
ATOM      2  C   UNL     1       0.892   9.826  19.545  0.00  0.00    +0.000 C 
ATOM      3  C   UNL     1       2.123   8.911  19.753  0.00  0.00    +0.000 C 
ATOM      4  N   UNL     1       1.685   7.614  20.274  0.00  0.00    +0.000 N 
ATOM      5  C   UNL     1       2.150   6.435  19.764  0.00  0.00    +0.000 A 
ATOM      6  N   UNL     1       3.030   6.475  18.763  0.00  0.00    +0.000 NA
ATOM      7  C   UNL     1       3.494   5.323  18.234  0.00  0.00    +0.000 A 
ATOM      8  N   UNL     1       4.413   5.453  17.216  0.00  0.00    +0.000 N 
ATOM      9  C   UNL     1       4.876   6.733  16.724  0.00  0.00    +0.000 C 
ATOM     10  C   UNL     1       5.201   6.396  15.275  0.00  0.00    +0.000 C 
ATOM     11  C   UNL     1       5.790   4.994  15.358  0.00  0.00    +0.000 C 
ATOM     12  C   UNL     1       5.100   4.351  16.560  0.00  0.00    +0.000 C 
ATOM     13  C   UNL     1       3.048   4.078  18.685  0.00  0.00    +0.000 A 
ATOM     14  N   UNL     1       3.463   2.873  18.172  0.00  0.00    +0.000 NA
ATOM     15  C   UNL     1       2.947   1.755  18.688  0.00  0.00    +0.000 A 
ATOM     16  C   UNL     1       2.042   1.828  19.712  0.00  0.00    +0.000 A 
ATOM     17  N   UNL     1       1.621   3.007  20.235  0.00  0.00    +0.000 NA
ATOM     18  C   UNL     1       2.119   4.145  19.727  0.00  0.00    +0.000 A 
ATOM     19  N   UNL     1       1.691   5.287  20.257  0.00  0.00    +0.000 NA
ATOM     20  C   UNL     1       0.926   7.670  21.524  0.00  0.00    +0.000 C 
ATOM     21  C   UNL     1      -0.296   8.603  21.363  0.00  0.00    +0.000 C 
ENDROOT
BRANCH   1  25
ATOM     22  C   UNL     1      -0.985  13.599  22.497  0.00  0.00    +0.000 A 
ATOM     23  C   UNL     1      -0.338  13.562  21.269  0.00  0.00    +0.000 A 
ATOM     24  C   UNL     1      -0.003  12.333  20.694  0.00  0.00    +0.000 A 
ATOM     25  C   UNL     1      -0.299  11.114  21.318  0.00  0.00    +0.000 A 
ATOM     26  C   UNL     1      -0.981  11.186  22.541  0.00  0.00    +0.000 A 
ATOM     27  C   UNL     1      -1.315  12.410  23.129  0.00  0.00    +0.000 A 
ENDBRANCH   1  25
TORSDOF 1
ENDMDL
MODEL 5
REMARK VINA RESULT:      -7.8      1.612      3.783
REMARK  Name = 
REMARK  1 active torsions:
REMARK  status: ('A' for Active; 'I' for Inactive)
REMARK    1  A    between atoms: C_4  and  N_5
REMARK                            x       y       z     vdW  Elec       q    Type
REMARK                         _______ _______ _______ _____ _____    ______ ____
ROOT
ATOM      1  N   UNL     1       0.562  11.042  21.303  0.00  0.00    +0.000 N 
ATOM      2  C   UNL     1       0.749   9.733  21.956  0.00  0.00    +0.000 C 
ATOM      3  C   UNL     1       0.513   8.590  20.938  0.00  0.00    +0.000 C 
ATOM      4  N   UNL     1       1.357   8.804  19.761  0.00  0.00    +0.000 N 
ATOM      5  C   UNL     1       2.091   7.795  19.204  0.00  0.00    +0.000 A 
ATOM      6  N   UNL     1       2.032   6.583  19.756  0.00  0.00    +0.000 NA
ATOM      7  C   UNL     1       2.758   5.573  19.233  0.00  0.00    +0.000 A 
ATOM      8  N   UNL     1       2.625   4.349  19.851  0.00  0.00    +0.000 N 
ATOM      9  C   UNL     1       1.764   4.126  20.993  0.00  0.00    +0.000 C 
ATOM     10  C   UNL     1       2.492   2.991  21.700  0.00  0.00    +0.000 C 
ATOM     11  C   UNL     1       3.010   2.131  20.554  0.00  0.00    +0.000 C 
ATOM     12  C   UNL     1       3.250   3.112  19.407  0.00  0.00    +0.000 C 
ATOM     13  C   UNL     1       3.606   5.771  18.140  0.00  0.00    +0.000 A 
ATOM     14  N   UNL     1       4.388   4.792  17.578  0.00  0.00    +0.000 NA
ATOM     15  C   UNL     1       5.165   5.119  16.543  0.00  0.00    +0.000 A 
ATOM     16  C   UNL     1       5.155   6.400  16.058  0.00  0.00    +0.000 A 
ATOM     17  N   UNL     1       4.389   7.380  16.597  0.00  0.00    +0.000 NA
ATOM     18  C   UNL     1       3.606   7.077  17.644  0.00  0.00    +0.000 A 
ATOM     19  N   UNL     1       2.865   8.056  18.153  0.00  0.00    +0.000 NA
ATOM     20  C   UNL     1       1.163  10.084  19.080  0.00  0.00    +0.000 C 
ATOM     21  C   UNL     1       1.358  11.251  20.076  0.00  0.00    +0.000 C 
ENDROOT
BRANCH   1  25
ATOM     22  C   UNL     1      -1.813  14.005  23.126  0.00  0.00    +0.000 A 
ATOM     23  C   UNL     1      -0.644  14.357  22.466  0.00  0.00    +0.000 A 
ATOM     24  C   UNL     1       0.127  13.374  21.841  0.00  0.00    +0.000 A 
ATOM     25  C   UNL     1      -0.239  12.021  21.853  0.00  0.00    +0.000 A 
ATOM     26  C   UNL     1      -1.442  11.704  22.501  0.00  0.00    +0.000 A 
ATOM     27  C   UNL     1      -2.218  12.679  23.136  0.00  0.00    +0.000 A 
ENDBRANCH   1  25
TORSDOF 1
ENDMDL
MODEL 6
REMARK VINA RESULT:      -7.7      1.328      3.715
REMARK  Name = 
REMARK  1 active torsions:
REMARK  status: ('A' for Active; 'I' for Inactive)
REMARK    1  A    between atoms: C_4  and  N_5
REMARK                            x       y       z     vdW  Elec       q    Type
REMARK                         _______ _______ _______ _____ _____    ______ ____
ROOT
ATOM      1  N   UNL     1       0.644  11.269  20.582  0.00  0.00    +0.000 N 
ATOM      2  C   UNL     1       0.774  10.021  21.357  0.00  0.00    +0.000 C 
ATOM      3  C   UNL     1       0.571   8.795  20.433  0.00  0.00    +0.000 C 
ATOM      4  N   UNL     1       1.478   8.892  19.287  0.00  0.00    +0.000 N 
ATOM      5  C   UNL     1       2.222   7.829  18.861  0.00  0.00    +0.000 A 
ATOM      6  N   UNL     1       2.113   6.671  19.514  0.00  0.00    +0.000 NA
ATOM      7  C   UNL     1       2.848   5.610  19.120  0.00  0.00    +0.000 A 
ATOM      8  N   UNL     1       2.662   4.447  19.836  0.00  0.00    +0.000 N 
ATOM      9  C   UNL     1       1.740   4.338  20.946  0.00  0.00    +0.000 C 
ATOM     10  C   UNL     1       2.411   3.261  21.787  0.00  0.00    +0.000 C 
ATOM     11  C   UNL     1       2.972   2.296  20.750  0.00  0.00    +0.000 C 
ATOM     12  C   UNL     1       3.287   3.168  19.536  0.00  0.00    +0.000 C 
ATOM     13  C   UNL     1       3.755   5.699  18.061  0.00  0.00    +0.000 A 
ATOM     14  N   UNL     1       4.548   4.664  17.629  0.00  0.00    +0.000 NA
ATOM     15  C   UNL     1       5.382   4.888  16.611  0.00  0.00    +0.000 A 
ATOM     16  C   UNL     1       5.419   6.121  16.016  0.00  0.00    +0.000 A 
ATOM     17  N   UNL     1       4.643   7.155  16.425  0.00  0.00    +0.000 NA
ATOM     18  C   UNL     1       3.803   6.957  17.452  0.00  0.00    +0.000 A 
ATOM     19  N   UNL     1       3.053   7.986  17.834  0.00  0.00    +0.000 NA
ATOM     20  C   UNL     1       1.341  10.110  18.487  0.00  0.00    +0.000 C 
ATOM     21  C   UNL     1       1.505  11.357  19.385  0.00  0.00    +0.000 C 
ENDROOT
BRANCH   1  25
ATOM     22  C   UNL     1      -1.964  14.341  21.809  0.00  0.00    +0.000 A 
ATOM     23  C   UNL     1      -1.540  13.382  22.718  0.00  0.00    +0.000 A 
ATOM     24  C   UNL     1      -0.654  12.380  22.313  0.00  0.00    +0.000 A 
ATOM     25  C   UNL     1      -0.168  12.303  21.001  0.00  0.00    +0.000 A 
ATOM     26  C   UNL     1      -0.591  13.305  20.117  0.00  0.00    +0.000 A 
ATOM     27  C   UNL     1      -1.482  14.309  20.509  0.00  0.00    +0.000 A 
ENDBRANCH   1  25
TORSDOF 1
ENDMDL
MODEL 7
REMARK VINA RESULT:      -6.9      2.106      8.296
REMARK  Name = 
REMARK  1 active torsions:
REMARK  status: ('A' for Active; 'I' for Inactive)
REMARK    1  A    between atoms: C_4  and  N_5
REMARK                            x       y       z     vdW  Elec       q    Type
REMARK                         _______ _______ _______ _____ _____    ______ ____
ROOT
ATOM      1  N   UNL     1       4.078   6.423  17.581  0.00  0.00    +0.000 N 
ATOM      2  C   UNL     1       4.226   7.879  17.409  0.00  0.00    +0.000 C 
ATOM      3  C   UNL     1       2.838   8.564  17.439  0.00  0.00    +0.000 C 
ATOM      4  N   UNL     1       2.125   8.169  18.656  0.00  0.00    +0.000 N 
ATOM      5  C   UNL     1       1.477   9.079  19.443  0.00  0.00    +0.000 A 
ATOM      6  N   UNL     1       1.500  10.363  19.085  0.00  0.00    +0.000 NA
ATOM      7  C   UNL     1       0.878  11.282  19.854  0.00  0.00    +0.000 A 
ATOM      8  N   UNL     1       0.933  12.583  19.404  0.00  0.00    +0.000 N 
ATOM      9  C   UNL     1       1.606  12.972  18.183  0.00  0.00    +0.000 C 
ATOM     10  C   UNL     1       2.024  14.399  18.513  0.00  0.00    +0.000 C 
ATOM     11  C   UNL     1       0.848  14.938  19.317  0.00  0.00    +0.000 C 
ATOM     12  C   UNL     1       0.269  13.716  20.029  0.00  0.00    +0.000 C 
ATOM     13  C   UNL     1       0.237  10.929  21.044  0.00  0.00    +0.000 A 
ATOM     14  N   UNL     1      -0.391  11.819  21.880  0.00  0.00    +0.000 NA
ATOM     15  C   UNL     1      -0.956  11.349  22.995  0.00  0.00    +0.000 A 
ATOM     16  C   UNL     1      -0.914  10.009  23.270  0.00  0.00    +0.000 A 
ATOM     17  N   UNL     1      -0.302   9.113  22.457  0.00  0.00    +0.000 NA
ATOM     18  C   UNL     1       0.280   9.563  21.335  0.00  0.00    +0.000 A 
ATOM     19  N   UNL     1       0.873   8.665  20.554  0.00  0.00    +0.000 NA
ATOM     20  C   UNL     1       1.940   6.728  18.828  0.00  0.00    +0.000 C 
ATOM     21  C   UNL     1       3.306   6.006  18.770  0.00  0.00    +0.000 C 
ENDROOT
BRANCH   1  25
ATOM     22  C   UNL     1       6.085   3.706  15.064  0.00  0.00    +0.000 A 
ATOM     23  C   UNL     1       5.391   3.245  16.174  0.00  0.00    +0.000 A 
ATOM     24  C   UNL     1       4.706   4.148  16.992  0.00  0.00    +0.000 A 
ATOM     25  C   UNL     1       4.690   5.524  16.731  0.00  0.00    +0.000 A 
ATOM     26  C   UNL     1       5.374   5.952  15.584  0.00  0.00    +0.000 A 
ATOM     27  C   UNL     1       6.069   5.059  14.762  0.00  0.00    +0.000 A 
ENDBRANCH   1  25
TORSDOF 1
ENDMDL
MODEL 8
REMARK VINA RESULT:      -6.9      2.472      8.637
REMARK  Name = 
REMARK  1 active torsions:
REMARK  status: ('A' for Active; 'I' for Inactive)
REMARK    1  A    between atoms: C_4  and  N_5
REMARK                            x       y       z     vdW  Elec       q    Type
REMARK                         _______ _______ _______ _____ _____    ______ ____
ROOT
ATOM      1  N   UNL     1       1.684   6.787  20.267  0.00  0.00    +0.000 N 
ATOM      2  C   UNL     1       2.424   7.873  19.599  0.00  0.00    +0.000 C 
ATOM      3  C   UNL     1       1.454   9.008  19.188  0.00  0.00    +0.000 C 
ATOM      4  N   UNL     1       0.680   9.433  20.356  0.00  0.00    +0.000 N 
ATOM      5  C   UNL     1       0.499  10.752  20.662  0.00  0.00    +0.000 A 
ATOM      6  N   UNL     1       1.047  11.673  19.869  0.00  0.00    +0.000 NA
ATOM      7  C   UNL     1       0.894  12.983  20.159  0.00  0.00    +0.000 A 
ATOM      8  N   UNL     1       1.476  13.869  19.278  0.00  0.00    +0.000 N 
ATOM      9  C   UNL     1       2.210  13.451  18.104  0.00  0.00    +0.000 C 
ATOM     10  C   UNL     1       3.199  14.599  17.946  0.00  0.00    +0.000 C 
ATOM     11  C   UNL     1       2.384  15.827  18.331  0.00  0.00    +0.000 C 
ATOM     12  C   UNL     1       1.368  15.317  19.352  0.00  0.00    +0.000 C 
ATOM     13  C   UNL     1       0.201  13.405  21.296  0.00  0.00    +0.000 A 
ATOM     14  N   UNL     1       0.031  14.719  21.658  0.00  0.00    +0.000 NA
ATOM     15  C   UNL     1      -0.644  14.984  22.779  0.00  0.00    +0.000 A 
ATOM     16  C   UNL     1      -1.159  13.960  23.526  0.00  0.00    +0.000 A 
ATOM     17  N   UNL     1      -1.006  12.656  23.185  0.00  0.00    +0.000 NA
ATOM     18  C   UNL     1      -0.324  12.364  22.067  0.00  0.00    +0.000 A 
ATOM     19  N   UNL     1      -0.188  11.079  21.755  0.00  0.00    +0.000 NA
ATOM     20  C   UNL     1      -0.088   8.375  21.013  0.00  0.00    +0.000 C 
ATOM     21  C   UNL     1       0.846   7.208  21.408  0.00  0.00    +0.000 C 
ENDROOT
BRANCH   1  25
ATOM     22  C   UNL     1       1.986   2.755  19.083  0.00  0.00    +0.000 A 
ATOM     23  C   UNL     1       2.326   3.769  18.198  0.00  0.00    +0.000 A 
ATOM     24  C   UNL     1       2.249   5.105  18.604  0.00  0.00    +0.000 A 
ATOM     25  C   UNL     1       1.835   5.468  19.892  0.00  0.00    +0.000 A 
ATOM     26  C   UNL     1       1.530   4.418  20.771  0.00  0.00    +0.000 A 
ATOM     27  C   UNL     1       1.597   3.079  20.374  0.00  0.00    +0.000 A 
ENDBRANCH   1  25
TORSDOF 1
ENDMDL
MODEL 9
REMARK VINA RESULT:      -6.6      8.021      8.673
REMARK  Name = 
REMARK  1 active torsions:
REMARK  status: ('A' for Active; 'I' for Inactive)
REMARK    1  A    between atoms: C_4  and  N_5
REMARK                            x       y       z     vdW  Elec       q    Type
REMARK                         _______ _______ _______ _____ _____    ______ ____
ROOT
ATOM      1  N   UNL     1       2.085  16.323  19.075  0.00  0.00    +0.000 N 
ATOM      2  C   UNL     1       3.426  16.171  18.482  0.00  0.00    +0.000 C 
ATOM      3  C   UNL     1       4.515  16.407  19.557  0.00  0.00    +0.000 C 
ATOM      4  N   UNL     1       4.262  15.537  20.707  0.00  0.00    +0.000 N 
ATOM      5  C   UNL     1       5.256  14.809  21.297  0.00  0.00    +0.000 A 
ATOM      6  N   UNL     1       6.492  14.900  20.804  0.00  0.00    +0.000 NA
ATOM      7  C   UNL     1       7.489  14.180  21.362  0.00  0.00    +0.000 A 
ATOM      8  N   UNL     1       8.738  14.345  20.805  0.00  0.00    +0.000 N 
ATOM      9  C   UNL     1       8.998  15.232  19.691  0.00  0.00    +0.000 C 
ATOM     10  C   UNL     1      10.179  14.537  19.025  0.00  0.00    +0.000 C 
ATOM     11  C   UNL     1      10.993  14.012  20.201  0.00  0.00    +0.000 C 
ATOM     12  C   UNL     1       9.963  13.733  21.295  0.00  0.00    +0.000 C 
ATOM     13  C   UNL     1       7.254  13.307  22.427  0.00  0.00    +0.000 A 
ATOM     14  N   UNL     1       8.220  12.531  23.021  0.00  0.00    +0.000 NA
ATOM     15  C   UNL     1       7.858  11.729  24.025  0.00  0.00    +0.000 A 
ATOM     16  C   UNL     1       6.556  11.708  24.448  0.00  0.00    +0.000 A 
ATOM     17  N   UNL     1       5.588  12.468  23.878  0.00  0.00    +0.000 NA
ATOM     18  C   UNL     1       5.926  13.276  22.861  0.00  0.00    +0.000 A 
ATOM     19  N   UNL     1       4.960  14.011  22.320  0.00  0.00    +0.000 NA
ATOM     20  C   UNL     1       2.947  15.696  21.330  0.00  0.00    +0.000 C 
ATOM     21  C   UNL     1       1.833  15.500  20.277  0.00  0.00    +0.000 C 
ENDROOT
BRANCH   1  25
ATOM     22  C   UNL     1      -0.898  18.631  17.198  0.00  0.00    +0.000 A 
ATOM     23  C   UNL     1      -1.196  17.905  18.344  0.00  0.00    +0.000 A 
ATOM     24  C   UNL     1      -0.196  17.162  18.978  0.00  0.00    +0.000 A 
ATOM     25  C   UNL     1       1.119  17.119  18.495  0.00  0.00    +0.000 A 
ATOM     26  C   UNL     1       1.392  17.888  17.355  0.00  0.00    +0.000 A 
ATOM     27  C   UNL     1       0.399  18.631  16.709  0.00  0.00    +0.000 A 
ENDBRANCH   1  25
TORSDOF 1
ENDMDL
