MODEL 1
REMARK VINA RESULT:      -8.1      0.000      0.000
REMARK  Name = 
REMARK  4 active torsions:
REMARK  status: ('A' for Active; 'I' for Inactive)
REMARK    1  A    between atoms: C_2  and  C_15
REMARK    2  A    between atoms: N_3  and  C_4
REMARK    3  A    between atoms: C_7  and  C_8
REMARK    4  A    between atoms: C_21  and  O_22
REMARK                            x       y       z     vdW  Elec       q    Type
REMARK                         _______ _______ _______ _____ _____    ______ ____
ROOT
ATOM      1  O   UNL     1       6.735   4.162  16.813  0.00  0.00    +0.000 OA
ATOM      2  C   UNL     1       5.874   4.028  15.941  0.00  0.00    +0.000 C 
ATOM      3  N   UNL     1       4.549   3.723  16.185  0.00  0.00    +0.000 N 
ATOM      4  H   UNL     1       3.971   3.492  15.378  0.00  0.00    +0.000 HD
ENDROOT
BRANCH   3   5
ATOM      5  C   UNL     1       3.950   3.607  17.466  0.00  0.00    +0.000 A 
ATOM      6  C   UNL     1       3.702   2.362  18.052  0.00  0.00    +0.000 A 
ATOM      7  C   UNL     1       3.100   2.255  19.306  0.00  0.00    +0.000 A 
ATOM      8  C   UNL     1       2.735   3.397  20.021  0.00  0.00    +0.000 A 
ATOM      9  C   UNL     1       2.996   4.656  19.453  0.00  0.00    +0.000 A 
ATOM     10  C   UNL     1       3.602   4.759  18.192  0.00  0.00    +0.000 A 
ATOM     11 CL   UNL     1       3.874   6.341  17.547  0.00  0.00    +0.000 Cl
BRANCH   8  12
ATOM     12  C   UNL     1       2.087   3.275  21.377  0.00  0.00    +0.000 C 
ATOM     13  F   UNL     1       2.526   2.201  22.093  0.00  0.00    +0.000 F 
ATOM     14  F   UNL     1       2.316   4.362  22.161  0.00  0.00    +0.000 F 
ATOM     15  F   UNL     1       0.734   3.142  21.300  0.00  0.00    +0.000 F 
ENDBRANCH   8  12
ENDBRANCH   3   5
BRANCH   2  16
ATOM     16  C   UNL     1       6.319   4.163  14.524  0.00  0.00    +0.000 A 
ATOM     17  C   UNL     1       5.692   3.310  13.595  0.00  0.00    +0.000 A 
ATOM     18  C   UNL     1       6.048   3.336  12.253  0.00  0.00    +0.000 A 
ATOM     19 CL   UNL     1       5.265   2.284  11.141  0.00  0.00    +0.000 Cl
ATOM     20  C   UNL     1       7.034   4.210  11.809  0.00  0.00    +0.000 A 
ATOM     21  C   UNL     1       7.670   5.062  12.715  0.00  0.00    +0.000 A 
ATOM     22  C   UNL     1       7.314   5.038  14.069  0.00  0.00    +0.000 A 
BRANCH  22  23
ATOM     23  O   UNL     1       7.957   5.879  14.937  0.00  0.00    +0.000 OA
ATOM     24  H   UNL     1       7.385   6.033  15.712  0.00  0.00    +0.000 HD
ENDBRANCH  22  23
ENDBRANCH   2  16
TORSDOF 4
ENDMDL
MODEL 2
REMARK VINA RESULT:      -8.0      1.098      1.323
REMARK  Name = 
REMARK  4 active torsions:
REMARK  status: ('A' for Active; 'I' for Inactive)
REMARK    1  A    between atoms: C_2  and  C_15
REMARK    2  A    between atoms: N_3  and  C_4
REMARK    3  A    between atoms: C_7  and  C_8
REMARK    4  A    between atoms: C_21  and  O_22
REMARK                            x       y       z     vdW  Elec       q    Type
REMARK                         _______ _______ _______ _____ _____    ______ ____
ROOT
ATOM      1  O   UNL     1       4.790   5.618  16.109  0.00  0.00    +0.000 OA
ATOM      2  C   UNL     1       5.147   4.490  15.763  0.00  0.00    +0.000 C 
ATOM      3  N   UNL     1       4.929   3.338  16.494  0.00  0.00    +0.000 N 
ATOM      4  H   UNL     1       5.400   2.493  16.176  0.00  0.00    +0.000 HD
ENDROOT
BRANCH   3   5
ATOM      5  C   UNL     1       4.190   3.253  17.702  0.00  0.00    +0.000 A 
ATOM      6  C   UNL     1       2.944   2.620  17.759  0.00  0.00    +0.000 A 
ATOM      7  C   UNL     1       2.216   2.551  18.947  0.00  0.00    +0.000 A 
ATOM      8  C   UNL     1       2.720   3.109  20.124  0.00  0.00    +0.000 A 
ATOM      9  C   UNL     1       3.979   3.731  20.086  0.00  0.00    +0.000 A 
ATOM     10  C   UNL     1       4.709   3.796  18.890  0.00  0.00    +0.000 A 
ATOM     11 CL   UNL     1       6.243   4.596  18.914  0.00  0.00    +0.000 Cl
BRANCH   8  12
ATOM     12  C   UNL     1       1.929   3.030  21.406  0.00  0.00    +0.000 C 
ATOM     13  F   UNL     1       2.287   3.972  22.323  0.00  0.00    +0.000 F 
ATOM     14  F   UNL     1       0.594   3.199  21.202  0.00  0.00    +0.000 F 
ATOM     15  F   UNL     1       2.067   1.829  22.032  0.00  0.00    +0.000 F 
ENDBRANCH   8  12
ENDBRANCH   3   5
BRANCH   2  16
ATOM     16  C   UNL     1       5.904   4.382  14.483  0.00  0.00    +0.000 A 
ATOM     17  C   UNL     1       5.327   3.567  13.490  0.00  0.00    +0.000 A 
ATOM     18  C   UNL     1       5.960   3.379  12.268  0.00  0.00    +0.000 A 
ATOM     19 CL   UNL     1       5.232   2.379  11.074  0.00  0.00    +0.000 Cl
ATOM     20  C   UNL     1       7.180   3.995  12.011  0.00  0.00    +0.000 A 
ATOM     21  C   UNL     1       7.770   4.805  12.985  0.00  0.00    +0.000 A 
ATOM     22  C   UNL     1       7.135   4.997  14.218  0.00  0.00    +0.000 A 
BRANCH  22  23
ATOM     23  O   UNL     1       7.738   5.790  15.156  0.00  0.00    +0.000 OA
ATOM     24  H   UNL     1       8.083   5.227  15.873  0.00  0.00    +0.000 HD
ENDBRANCH  22  23
ENDBRANCH   2  16
TORSDOF 4
ENDMDL
MODEL 3
REMARK VINA RESULT:      -7.5      5.476      8.411
REMARK  Name = 
REMARK  4 active torsions:
REMARK  status: ('A' for Active; 'I' for Inactive)
REMARK    1  A    between atoms: C_2  and  C_15
REMARK    2  A    between atoms: N_3  and  C_4
REMARK    3  A    between atoms: C_7  and  C_8
REMARK    4  A    between atoms: C_21  and  O_22
REMARK                            x       y       z     vdW  Elec       q    Type
REMARK                         _______ _______ _______ _____ _____    ______ ____
ROOT
ATOM      1  O   UNL     1       2.013   8.961  17.390  0.00  0.00    +0.000 OA
ATOM      2  C   UNL     1       1.975   8.417  18.495  0.00  0.00    +0.000 C 
ATOM      3  N   UNL     1       2.612   7.231  18.810  0.00  0.00    +0.000 N 
ATOM      4  H   UNL     1       2.384   6.808  19.708  0.00  0.00    +0.000 HD
ENDROOT
BRANCH   3   5
ATOM      5  C   UNL     1       3.477   6.505  17.952  0.00  0.00    +0.000 A 
ATOM      6  C   UNL     1       4.582   7.106  17.341  0.00  0.00    +0.000 A 
ATOM      7  C   UNL     1       5.421   6.389  16.487  0.00  0.00    +0.000 A 
ATOM      8  C   UNL     1       5.184   5.038  16.225  0.00  0.00    +0.000 A 
ATOM      9  C   UNL     1       4.089   4.416  16.847  0.00  0.00    +0.000 A 
ATOM     10  C   UNL     1       3.249   5.140  17.707  0.00  0.00    +0.000 A 
ATOM     11 CL   UNL     1       1.907   4.313  18.421  0.00  0.00    +0.000 Cl
BRANCH   8  12
ATOM     12  C   UNL     1       6.096   4.268  15.303  0.00  0.00    +0.000 C 
ATOM     13  F   UNL     1       7.419   4.510  15.523  0.00  0.00    +0.000 F 
ATOM     14  F   UNL     1       5.939   2.922  15.424  0.00  0.00    +0.000 F 
ATOM     15  F   UNL     1       5.878   4.558  13.991  0.00  0.00    +0.000 F 
ENDBRANCH   8  12
ENDBRANCH   3   5
BRANCH   2  16
ATOM     16  C   UNL     1       1.142   9.072  19.545  0.00  0.00    +0.000 A 
ATOM     17  C   UNL     1       0.337  10.144  19.115  0.00  0.00    +0.000 A 
ATOM     18  C   UNL     1      -0.459  10.840  20.015  0.00  0.00    +0.000 A 
ATOM     19 CL   UNL     1      -1.433  12.145  19.462  0.00  0.00    +0.000 Cl
ATOM     20  C   UNL     1      -0.470  10.484  21.360  0.00  0.00    +0.000 A 
ATOM     21  C   UNL     1       0.324   9.425  21.806  0.00  0.00    +0.000 A 
ATOM     22  C   UNL     1       1.129   8.721  20.901  0.00  0.00    +0.000 A 
BRANCH  22  23
ATOM     23  O   UNL     1       1.903   7.692  21.366  0.00  0.00    +0.000 OA
ATOM     24  H   UNL     1       1.682   7.527  22.301  0.00  0.00    +0.000 HD
ENDBRANCH  22  23
ENDBRANCH   2  16
TORSDOF 4
ENDMDL
MODEL 4
REMARK VINA RESULT:      -7.4      5.565      8.431
REMARK  Name = 
REMARK  4 active torsions:
REMARK  status: ('A' for Active; 'I' for Inactive)
REMARK    1  A    between atoms: C_2  and  C_15
REMARK    2  A    between atoms: N_3  and  C_4
REMARK    3  A    between atoms: C_7  and  C_8
REMARK    4  A    between atoms: C_21  and  O_22
REMARK                            x       y       z     vdW  Elec       q    Type
REMARK                         _______ _______ _______ _____ _____    ______ ____
ROOT
ATOM      1  O   UNL     1       2.084   9.122  17.187  0.00  0.00    +0.000 OA
ATOM      2  C   UNL     1       1.900   8.611  18.293  0.00  0.00    +0.000 C 
ATOM      3  N   UNL     1       2.463   7.421  18.713  0.00  0.00    +0.000 N 
ATOM      4  H   UNL     1       2.119   7.029  19.588  0.00  0.00    +0.000 HD
ENDROOT
BRANCH   3   5
ATOM      5  C   UNL     1       3.403   6.649  17.983  0.00  0.00    +0.000 A 
ATOM      6  C   UNL     1       4.557   7.219  17.435  0.00  0.00    +0.000 A 
ATOM      7  C   UNL     1       5.471   6.457  16.707  0.00  0.00    +0.000 A 
ATOM      8  C   UNL     1       5.262   5.091  16.511  0.00  0.00    +0.000 A 
ATOM      9  C   UNL     1       4.117   4.500  17.072  0.00  0.00    +0.000 A 
ATOM     10  C   UNL     1       3.201   5.269  17.805  0.00  0.00    +0.000 A 
ATOM     11 CL   UNL     1       1.803   4.478  18.448  0.00  0.00    +0.000 Cl
BRANCH   8  12
ATOM     12  C   UNL     1       6.255   4.272  15.725  0.00  0.00    +0.000 C 
ATOM     13  F   UNL     1       6.492   4.761  14.475  0.00  0.00    +0.000 F 
ATOM     14  F   UNL     1       7.470   4.206  16.333  0.00  0.00    +0.000 F 
ATOM     15  F   UNL     1       5.849   2.985  15.549  0.00  0.00    +0.000 F 
ENDBRANCH   8  12
ENDBRANCH   3   5
BRANCH   2  16
ATOM     16  C   UNL     1       0.968   9.317  19.219  0.00  0.00    +0.000 A 
ATOM     17  C   UNL     1       1.160   9.075  20.593  0.00  0.00    +0.000 A 
ATOM     18  C   UNL     1       0.333   9.663  21.541  0.00  0.00    +0.000 A 
ATOM     19 CL   UNL     1       0.592   9.351  23.212  0.00  0.00    +0.000 Cl
ATOM     20  C   UNL     1      -0.703  10.501  21.141  0.00  0.00    +0.000 A 
ATOM     21  C   UNL     1      -0.912  10.751  19.782  0.00  0.00    +0.000 A 
ATOM     22  C   UNL     1      -0.080  10.159  18.824  0.00  0.00    +0.000 A 
BRANCH  22  23
ATOM     23  O   UNL     1      -0.310  10.416  17.499  0.00  0.00    +0.000 OA
ATOM     24  H   UNL     1      -0.963  11.136  17.425  0.00  0.00    +0.000 HD
ENDBRANCH  22  23
ENDBRANCH   2  16
TORSDOF 4
ENDMDL
MODEL 5
REMARK VINA RESULT:      -7.2      1.269      1.689
REMARK  Name = 
REMARK  4 active torsions:
REMARK  status: ('A' for Active; 'I' for Inactive)
REMARK    1  A    between atoms: C_2  and  C_15
REMARK    2  A    between atoms: N_3  and  C_4
REMARK    3  A    between atoms: C_7  and  C_8
REMARK    4  A    between atoms: C_21  and  O_22
REMARK                            x       y       z     vdW  Elec       q    Type
REMARK                         _______ _______ _______ _____ _____    ______ ____
ROOT
ATOM      1  O   UNL     1       6.450   4.944  16.607  0.00  0.00    +0.000 OA
ATOM      2  C   UNL     1       5.692   4.489  15.750  0.00  0.00    +0.000 C 
ATOM      3  N   UNL     1       4.403   4.053  15.992  0.00  0.00    +0.000 N 
ATOM      4  H   UNL     1       3.931   3.562  15.235  0.00  0.00    +0.000 HD
ENDROOT
BRANCH   3   5
ATOM      5  C   UNL     1       3.720   4.141  17.232  0.00  0.00    +0.000 A 
ATOM      6  C   UNL     1       3.230   5.358  17.717  0.00  0.00    +0.000 A 
ATOM      7  C   UNL     1       2.571   5.441  18.943  0.00  0.00    +0.000 A 
ATOM      8  C   UNL     1       2.372   4.300  19.723  0.00  0.00    +0.000 A 
ATOM      9  C   UNL     1       2.842   3.067  19.241  0.00  0.00    +0.000 A 
ATOM     10  C   UNL     1       3.503   2.988  18.005  0.00  0.00    +0.000 A 
ATOM     11 CL   UNL     1       4.072   1.440  17.484  0.00  0.00    +0.000 Cl
BRANCH   8  12
ATOM     12  C   UNL     1       1.657   4.396  21.048  0.00  0.00    +0.000 C 
ATOM     13  F   UNL     1       2.485   4.259  22.122  0.00  0.00    +0.000 F 
ATOM     14  F   UNL     1       1.030   5.591  21.213  0.00  0.00    +0.000 F 
ATOM     15  F   UNL     1       0.698   3.442  21.194  0.00  0.00    +0.000 F 
ENDBRANCH   8  12
ENDBRANCH   3   5
BRANCH   2  16
ATOM     16  C   UNL     1       6.231   4.365  14.365  0.00  0.00    +0.000 A 
ATOM     17  C   UNL     1       5.549   3.475  13.513  0.00  0.00    +0.000 A 
ATOM     18  C   UNL     1       5.981   3.266  12.210  0.00  0.00    +0.000 A 
ATOM     19 CL   UNL     1       5.128   2.173  11.192  0.00  0.00    +0.000 Cl
ATOM     20  C   UNL     1       7.100   3.937  11.729  0.00  0.00    +0.000 A 
ATOM     21  C   UNL     1       7.792   4.822  12.560  0.00  0.00    +0.000 A 
ATOM     22  C   UNL     1       7.360   5.034  13.874  0.00  0.00    +0.000 A 
BRANCH  22  23
ATOM     23  O   UNL     1       8.060   5.902  14.669  0.00  0.00    +0.000 OA
ATOM     24  H   UNL     1       8.639   6.449  14.107  0.00  0.00    +0.000 HD
ENDBRANCH  22  23
ENDBRANCH   2  16
TORSDOF 4
ENDMDL
MODEL 6
REMARK VINA RESULT:      -7.1      1.162      1.464
REMARK  Name = 
REMARK  4 active torsions:
REMARK  status: ('A' for Active; 'I' for Inactive)
REMARK    1  A    between atoms: C_2  and  C_15
REMARK    2  A    between atoms: N_3  and  C_4
REMARK    3  A    between atoms: C_7  and  C_8
REMARK    4  A    between atoms: C_21  and  O_22
REMARK                            x       y       z     vdW  Elec       q    Type
REMARK                         _______ _______ _______ _____ _____    ______ ____
ROOT
ATOM      1  O   UNL     1       5.019   5.600  16.541  0.00  0.00    +0.000 OA
ATOM      2  C   UNL     1       5.208   4.481  16.060  0.00  0.00    +0.000 C 
ATOM      3  N   UNL     1       4.856   3.293  16.671  0.00  0.00    +0.000 N 
ATOM      4  H   UNL     1       5.196   2.434  16.243  0.00  0.00    +0.000 HD
ENDROOT
BRANCH   3   5
ATOM      5  C   UNL     1       4.148   3.171  17.894  0.00  0.00    +0.000 A 
ATOM      6  C   UNL     1       4.796   2.850  19.091  0.00  0.00    +0.000 A 
ATOM      7  C   UNL     1       4.093   2.719  20.288  0.00  0.00    +0.000 A 
ATOM      8  C   UNL     1       2.711   2.914  20.326  0.00  0.00    +0.000 A 
ATOM      9  C   UNL     1       2.048   3.256  19.136  0.00  0.00    +0.000 A 
ATOM     10  C   UNL     1       2.760   3.390  17.934  0.00  0.00    +0.000 A 
ATOM     11 CL   UNL     1       1.875   3.792  16.503  0.00  0.00    +0.000 Cl
BRANCH   8  12
ATOM     12  C   UNL     1       1.955   2.773  21.624  0.00  0.00    +0.000 C 
ATOM     13  F   UNL     1       0.602   2.829  21.473  0.00  0.00    +0.000 F 
ATOM     14  F   UNL     1       2.210   1.589  22.246  0.00  0.00    +0.000 F 
ATOM     15  F   UNL     1       2.270   3.746  22.522  0.00  0.00    +0.000 F 
ENDBRANCH   8  12
ENDBRANCH   3   5
BRANCH   2  16
ATOM     16  C   UNL     1       5.905   4.419  14.743  0.00  0.00    +0.000 A 
ATOM     17  C   UNL     1       5.309   3.599  13.766  0.00  0.00    +0.000 A 
ATOM     18  C   UNL     1       5.888   3.451  12.512  0.00  0.00    +0.000 A 
ATOM     19 CL   UNL     1       5.137   2.444  11.339  0.00  0.00    +0.000 Cl
ATOM     20  C   UNL     1       7.072   4.114  12.207  0.00  0.00    +0.000 A 
ATOM     21  C   UNL     1       7.680   4.930  13.164  0.00  0.00    +0.000 A 
ATOM     22  C   UNL     1       7.099   5.081  14.429  0.00  0.00    +0.000 A 
BRANCH  22  23
ATOM     23  O   UNL     1       7.720   5.882  15.350  0.00  0.00    +0.000 OA
ATOM     24  H   UNL     1       7.576   5.511  16.240  0.00  0.00    +0.000 HD
ENDBRANCH  22  23
ENDBRANCH   2  16
TORSDOF 4
ENDMDL
MODEL 7
REMARK VINA RESULT:      -7.1      5.637      8.392
REMARK  Name = 
REMARK  4 active torsions:
REMARK  status: ('A' for Active; 'I' for Inactive)
REMARK    1  A    between atoms: C_2  and  C_15
REMARK    2  A    between atoms: N_3  and  C_4
REMARK    3  A    between atoms: C_7  and  C_8
REMARK    4  A    between atoms: C_21  and  O_22
REMARK                            x       y       z     vdW  Elec       q    Type
REMARK                         _______ _______ _______ _____ _____    ______ ____
ROOT
ATOM      1  O   UNL     1       1.904   9.157  17.121  0.00  0.00    +0.000 OA
ATOM      2  C   UNL     1       1.974   8.806  18.300  0.00  0.00    +0.000 C 
ATOM      3  N   UNL     1       2.638   7.680  18.747  0.00  0.00    +0.000 N 
ATOM      4  H   UNL     1       2.500   7.417  19.721  0.00  0.00    +0.000 HD
ENDROOT
BRANCH   3   5
ATOM      5  C   UNL     1       3.415   6.806  17.944  0.00  0.00    +0.000 A 
ATOM      6  C   UNL     1       4.480   7.272  17.167  0.00  0.00    +0.000 A 
ATOM      7  C   UNL     1       5.231   6.408  16.369  0.00  0.00    +0.000 A 
ATOM      8  C   UNL     1       4.944   5.042  16.331  0.00  0.00    +0.000 A 
ATOM      9  C   UNL     1       3.890   4.557  17.122  0.00  0.00    +0.000 A 
ATOM     10  C   UNL     1       3.138   5.428  17.925  0.00  0.00    +0.000 A 
ATOM     11 CL   UNL     1       1.840   4.762  18.856  0.00  0.00    +0.000 Cl
BRANCH   8  12
ATOM     12  C   UNL     1       5.762   4.114  15.468  0.00  0.00    +0.000 C 
ATOM     13  F   UNL     1       7.077   4.463  15.392  0.00  0.00    +0.000 F 
ATOM     14  F   UNL     1       5.744   2.832  15.924  0.00  0.00    +0.000 F 
ATOM     15  F   UNL     1       5.314   4.065  14.184  0.00  0.00    +0.000 F 
ENDBRANCH   8  12
ENDBRANCH   3   5
BRANCH   2  16
ATOM     16  C   UNL     1       1.249   9.642  19.300  0.00  0.00    +0.000 A 
ATOM     17  C   UNL     1       0.749   8.963  20.427  0.00  0.00    +0.000 A 
ATOM     18  C   UNL     1       0.037   9.641  21.409  0.00  0.00    +0.000 A 
ATOM     19 CL   UNL     1      -0.561   8.785  22.775  0.00  0.00    +0.000 Cl
ATOM     20  C   UNL     1      -0.192  11.007  21.287  0.00  0.00    +0.000 A 
ATOM     21  C   UNL     1       0.293  11.699  20.174  0.00  0.00    +0.000 A 
ATOM     22  C   UNL     1       1.011  11.018  19.182  0.00  0.00    +0.000 A 
BRANCH  22  23
ATOM     23  O   UNL     1       1.470  11.718  18.099  0.00  0.00    +0.000 OA
ATOM     24  H   UNL     1       1.794  12.587  18.398  0.00  0.00    +0.000 HD
ENDBRANCH  22  23
ENDBRANCH   2  16
TORSDOF 4
ENDMDL
MODEL 8
REMARK VINA RESULT:      -7.1      5.470      7.143
REMARK  Name = 
REMARK  4 active torsions:
REMARK  status: ('A' for Active; 'I' for Inactive)
REMARK    1  A    between atoms: C_2  and  C_15
REMARK    2  A    between atoms: N_3  and  C_4
REMARK    3  A    between atoms: C_7  and  C_8
REMARK    4  A    between atoms: C_21  and  O_22
REMARK                            x       y       z     vdW  Elec       q    Type
REMARK                         _______ _______ _______ _____ _____    ______ ____
ROOT
ATOM      1  O   UNL     1       1.309   5.789  20.566  0.00  0.00    +0.000 OA
ATOM      2  C   UNL     1       2.118   6.418  19.882  0.00  0.00    +0.000 C 
ATOM      3  N   UNL     1       2.134   7.794  19.752  0.00  0.00    +0.000 N 
ATOM      4  H   UNL     1       2.755   8.184  19.045  0.00  0.00    +0.000 HD
ENDROOT
BRANCH   3   5
ATOM      5  C   UNL     1       1.292   8.700  20.446  0.00  0.00    +0.000 A 
ATOM      6  C   UNL     1       1.214   8.710  21.842  0.00  0.00    +0.000 A 
ATOM      7  C   UNL     1       0.374   9.594  22.518  0.00  0.00    +0.000 A 
ATOM      8  C   UNL     1      -0.412  10.508  21.814  0.00  0.00    +0.000 A 
ATOM      9  C   UNL     1      -0.330  10.524  20.412  0.00  0.00    +0.000 A 
ATOM     10  C   UNL     1       0.518   9.634  19.736  0.00  0.00    +0.000 A 
ATOM     11 CL   UNL     1       0.552   9.696  18.007  0.00  0.00    +0.000 Cl
BRANCH   8  12
ATOM     12  C   UNL     1      -1.317  11.464  22.551  0.00  0.00    +0.000 C 
ATOM     13  F   UNL     1      -1.987  10.886  23.588  0.00  0.00    +0.000 F 
ATOM     14  F   UNL     1      -0.637  12.512  23.088  0.00  0.00    +0.000 F 
ATOM     15  F   UNL     1      -2.273  12.005  21.747  0.00  0.00    +0.000 F 
ENDBRANCH   8  12
ENDBRANCH   3   5
BRANCH   2  16
ATOM     16  C   UNL     1       3.117   5.623  19.112  0.00  0.00    +0.000 A 
ATOM     17  C   UNL     1       3.635   6.236  17.954  0.00  0.00    +0.000 A 
ATOM     18  C   UNL     1       4.554   5.575  17.150  0.00  0.00    +0.000 A 
ATOM     19 CL   UNL     1       5.169   6.347  15.743  0.00  0.00    +0.000 Cl
ATOM     20  C   UNL     1       4.975   4.291  17.481  0.00  0.00    +0.000 A 
ATOM     21  C   UNL     1       4.471   3.665  18.623  0.00  0.00    +0.000 A 
ATOM     22  C   UNL     1       3.543   4.329  19.436  0.00  0.00    +0.000 A 
BRANCH  22  23
ATOM     23  O   UNL     1       3.060   3.690  20.547  0.00  0.00    +0.000 OA
ATOM     24  H   UNL     1       2.804   4.357  21.209  0.00  0.00    +0.000 HD
ENDBRANCH  22  23
ENDBRANCH   2  16
TORSDOF 4
ENDMDL
MODEL 9
REMARK VINA RESULT:      -7.0      5.334      7.082
REMARK  Name = 
REMARK  4 active torsions:
REMARK  status: ('A' for Active; 'I' for Inactive)
REMARK    1  A    between atoms: C_2  and  C_15
REMARK    2  A    between atoms: N_3  and  C_4
REMARK    3  A    between atoms: C_7  and  C_8
REMARK    4  A    between atoms: C_21  and  O_22
REMARK                            x       y       z     vdW  Elec       q    Type
REMARK                         _______ _______ _______ _____ _____    ______ ____
ROOT
ATOM      1  O   UNL     1       1.439   5.608  20.447  0.00  0.00    +0.000 OA
ATOM      2  C   UNL     1       2.192   6.233  19.698  0.00  0.00    +0.000 C 
ATOM      3  N   UNL     1       2.181   7.605  19.537  0.00  0.00    +0.000 N 
ATOM      4  H   UNL     1       2.748   7.987  18.782  0.00  0.00    +0.000 HD
ENDROOT
BRANCH   3   5
ATOM      5  C   UNL     1       1.373   8.516  20.265  0.00  0.00    +0.000 A 
ATOM      6  C   UNL     1       1.289   8.471  21.661  0.00  0.00    +0.000 A 
ATOM      7  C   UNL     1       0.483   9.361  22.370  0.00  0.00    +0.000 A 
ATOM      8  C   UNL     1      -0.262  10.335  21.702  0.00  0.00    +0.000 A 
ATOM      9  C   UNL     1      -0.172  10.405  20.302  0.00  0.00    +0.000 A 
ATOM     10  C   UNL     1       0.641   9.509  19.592  0.00  0.00    +0.000 A 
ATOM     11 CL   UNL     1       0.686   9.641  17.867  0.00  0.00    +0.000 Cl
BRANCH   8  12
ATOM     12  C   UNL     1      -1.131  11.296  22.475  0.00  0.00    +0.000 C 
ATOM     13  F   UNL     1      -2.174  11.788  21.749  0.00  0.00    +0.000 F 
ATOM     14  F   UNL     1      -1.684  10.722  23.578  0.00  0.00    +0.000 F 
ATOM     15  F   UNL     1      -0.441  12.382  22.920  0.00  0.00    +0.000 F 
ENDBRANCH   8  12
ENDBRANCH   3   5
BRANCH   2  16
ATOM     16  C   UNL     1       3.150   5.433  18.881  0.00  0.00    +0.000 A 
ATOM     17  C   UNL     1       4.517   5.661  19.132  0.00  0.00    +0.000 A 
ATOM     18  C   UNL     1       5.494   4.987  18.411  0.00  0.00    +0.000 A 
ATOM     19 CL   UNL     1       7.155   5.284  18.740  0.00  0.00    +0.000 Cl
ATOM     20  C   UNL     1       5.131   4.075  17.425  0.00  0.00    +0.000 A 
ATOM     21  C   UNL     1       3.780   3.838  17.159  0.00  0.00    +0.000 A 
ATOM     22  C   UNL     1       2.792   4.516  17.884  0.00  0.00    +0.000 A 
BRANCH  22  23
ATOM     23  O   UNL     1       1.476   4.270  17.599  0.00  0.00    +0.000 OA
ATOM     24  H   UNL     1       0.918   4.735  18.249  0.00  0.00    +0.000 HD
ENDBRANCH  22  23
ENDBRANCH   2  16
TORSDOF 4
ENDMDL
