MODEL 1
REMARK VINA RESULT:      -6.1      0.000      0.000
REMARK  Name = 
REMARK  9 active torsions:
REMARK  status: ('A' for Active; 'I' for Inactive)
REMARK    1  A    between atoms: C_1  and  N_2
REMARK    2  A    between atoms: N_2  and  C_3
REMARK    3  A    between atoms: N_2  and  C_6
REMARK    4  A    between atoms: C_3  and  C_4
REMARK    5  A    between atoms: C_4  and  O_5
REMARK    6  A    between atoms: C_6  and  C_7
REMARK    7  A    between atoms: C_7  and  C_8
REMARK    8  A    between atoms: C_8  and  N_9
REMARK    9  A    between atoms: N_9  and  C_10
REMARK                            x       y       z     vdW  Elec       q    Type
REMARK                         _______ _______ _______ _____ _____    ______ ____
ROOT
ATOM      1  N   UNL     1       4.317   5.127  18.519  0.00  0.00    +0.000 N 
ATOM      2  H   UNL     1       4.127   4.142  18.353  0.00  0.00    +0.000 HD
ENDROOT
BRANCH   1   3
ATOM      3  C   UNL     1       5.430   5.568  17.760  0.00  0.00    +0.000 A 
ATOM      4  C   UNL     1       6.389   6.412  18.321  0.00  0.00    +0.000 A 
ATOM      5  C   UNL     1       7.491   6.780  17.579  0.00  0.00    +0.000 A 
ATOM      6  N   UNL     1       7.731   6.341  16.329  0.00  0.00    +0.000 NA
ATOM      7  C   UNL     1       6.856   5.485  15.789  0.00  0.00    +0.000 A 
ATOM      8  C   UNL     1       7.142   5.021  14.515  0.00  0.00    +0.000 A 
ATOM      9  C   UNL     1       6.298   4.126  13.864  0.00  0.00    +0.000 A 
ATOM     10 CL   UNL     1       6.690   3.575  12.284  0.00  0.00    +0.000 Cl
ATOM     11  C   UNL     1       5.144   3.678  14.488  0.00  0.00    +0.000 A 
ATOM     12  C   UNL     1       4.839   4.129  15.772  0.00  0.00    +0.000 A 
ATOM     13  C   UNL     1       5.683   5.046  16.454  0.00  0.00    +0.000 A 
ENDBRANCH   1   3
BRANCH   1  14
ATOM     14  C   UNL     1       3.078   5.907  18.406  0.00  0.00    +0.000 C 
BRANCH  14  15
ATOM     15  C   UNL     1       1.902   4.972  18.129  0.00  0.00    +0.000 C 
BRANCH  15  16
ATOM     16  C   UNL     1       1.388   4.307  19.415  0.00  0.00    +0.000 C 
BRANCH  16  18
ATOM     17  C   UNL     1       2.088   3.377  21.546  0.00  0.00    +0.000 C 
ATOM     18  N   UNL     1       2.389   3.473  20.107  0.00  0.00    +0.000 NA
BRANCH  18  19
ATOM     19  C   UNL     1       2.446   2.095  19.554  0.00  0.00    +0.000 C 
BRANCH  19  20
ATOM     20  C   UNL     1       3.725   1.762  18.767  0.00  0.00    +0.000 C 
BRANCH  20  21
ATOM     21  O   UNL     1       4.880   2.266  19.430  0.00  0.00    +0.000 OA
ATOM     22  H   UNL     1       4.631   2.343  20.369  0.00  0.00    +0.000 HD
ENDBRANCH  20  21
ENDBRANCH  19  20
ENDBRANCH  18  19
ENDBRANCH  16  18
ENDBRANCH  15  16
ENDBRANCH  14  15
ENDBRANCH   1  14
TORSDOF 8
ENDMDL
MODEL 2
REMARK VINA RESULT:      -6.0      1.441      1.441
REMARK  Name = 
REMARK  9 active torsions:
REMARK  status: ('A' for Active; 'I' for Inactive)
REMARK    1  A    between atoms: C_1  and  N_2
REMARK    2  A    between atoms: N_2  and  C_3
REMARK    3  A    between atoms: N_2  and  C_6
REMARK    4  A    between atoms: C_3  and  C_4
REMARK    5  A    between atoms: C_4  and  O_5
REMARK    6  A    between atoms: C_6  and  C_7
REMARK    7  A    between atoms: C_7  and  C_8
REMARK    8  A    between atoms: C_8  and  N_9
REMARK    9  A    between atoms: N_9  and  C_10
REMARK                            x       y       z     vdW  Elec       q    Type
REMARK                         _______ _______ _______ _____ _____    ______ ____
ROOT
ATOM      1  N   UNL     1       3.769   5.325  18.506  0.00  0.00    +0.000 N 
ATOM      2  H   UNL     1       3.288   6.066  18.004  0.00  0.00    +0.000 HD
ENDROOT
BRANCH   1   3
ATOM      3  C   UNL     1       5.134   5.255  18.128  0.00  0.00    +0.000 A 
ATOM      4  C   UNL     1       6.146   5.350  19.084  0.00  0.00    +0.000 A 
ATOM      5  C   UNL     1       7.463   5.221  18.697  0.00  0.00    +0.000 A 
ATOM      6  N   UNL     1       7.849   4.968  17.432  0.00  0.00    +0.000 NA
ATOM      7  C   UNL     1       6.896   4.815  16.506  0.00  0.00    +0.000 A 
ATOM      8  C   UNL     1       7.316   4.522  15.220  0.00  0.00    +0.000 A 
ATOM      9  C   UNL     1       6.405   4.341  14.184  0.00  0.00    +0.000 A 
ATOM     10 CL   UNL     1       6.968   3.977  12.601  0.00  0.00    +0.000 Cl
ATOM     11  C   UNL     1       5.044   4.452  14.426  0.00  0.00    +0.000 A 
ATOM     12  C   UNL     1       4.599   4.743  15.715  0.00  0.00    +0.000 A 
ATOM     13  C   UNL     1       5.510   4.936  16.787  0.00  0.00    +0.000 A 
ENDBRANCH   1   3
BRANCH   1  14
ATOM     14  C   UNL     1       3.475   5.414  19.942  0.00  0.00    +0.000 C 
BRANCH  14  15
ATOM     15  C   UNL     1       1.992   5.718  20.150  0.00  0.00    +0.000 C 
BRANCH  15  16
ATOM     16  C   UNL     1       1.170   4.434  20.340  0.00  0.00    +0.000 C 
BRANCH  16  18
ATOM     17  C   UNL     1       1.936   2.523  21.629  0.00  0.00    +0.000 C 
ATOM     18  N   UNL     1       1.970   3.193  20.317  0.00  0.00    +0.000 NA
BRANCH  18  19
ATOM     19  C   UNL     1       1.480   2.233  19.295  0.00  0.00    +0.000 C 
BRANCH  19  20
ATOM     20  C   UNL     1       2.249   2.249  17.964  0.00  0.00    +0.000 C 
BRANCH  20  21
ATOM     21  O   UNL     1       1.874   3.371  17.170  0.00  0.00    +0.000 OA
ATOM     22  H   UNL     1       0.920   3.263  16.998  0.00  0.00    +0.000 HD
ENDBRANCH  20  21
ENDBRANCH  19  20
ENDBRANCH  18  19
ENDBRANCH  16  18
ENDBRANCH  15  16
ENDBRANCH  14  15
ENDBRANCH   1  14
TORSDOF 8
ENDMDL
MODEL 3
REMARK VINA RESULT:      -5.9      1.343      1.823
REMARK  Name = 
REMARK  9 active torsions:
REMARK  status: ('A' for Active; 'I' for Inactive)
REMARK    1  A    between atoms: C_1  and  N_2
REMARK    2  A    between atoms: N_2  and  C_3
REMARK    3  A    between atoms: N_2  and  C_6
REMARK    4  A    between atoms: C_3  and  C_4
REMARK    5  A    between atoms: C_4  and  O_5
REMARK    6  A    between atoms: C_6  and  C_7
REMARK    7  A    between atoms: C_7  and  C_8
REMARK    8  A    between atoms: C_8  and  N_9
REMARK    9  A    between atoms: N_9  and  C_10
REMARK                            x       y       z     vdW  Elec       q    Type
REMARK                         _______ _______ _______ _____ _____    ______ ____
ROOT
ATOM      1  N   UNL     1       5.744   3.772  19.056  0.00  0.00    +0.000 N 
ATOM      2  H   UNL     1       6.290   2.915  19.044  0.00  0.00    +0.000 HD
ENDROOT
BRANCH   1   3
ATOM      3  C   UNL     1       6.289   4.737  18.172  0.00  0.00    +0.000 A 
ATOM      4  C   UNL     1       6.940   5.869  18.663  0.00  0.00    +0.000 A 
ATOM      5  C   UNL     1       7.510   6.763  17.781  0.00  0.00    +0.000 A 
ATOM      6  N   UNL     1       7.513   6.597  16.445  0.00  0.00    +0.000 NA
ATOM      7  C   UNL     1       6.946   5.490  15.952  0.00  0.00    +0.000 A 
ATOM      8  C   UNL     1       6.991   5.325  14.577  0.00  0.00    +0.000 A 
ATOM      9  C   UNL     1       6.432   4.208  13.964  0.00  0.00    +0.000 A 
ATOM     10 CL   UNL     1       6.511   4.040  12.255  0.00  0.00    +0.000 Cl
ATOM     11  C   UNL     1       5.814   3.230  14.727  0.00  0.00    +0.000 A 
ATOM     12  C   UNL     1       5.760   3.375  16.114  0.00  0.00    +0.000 A 
ATOM     13  C   UNL     1       6.320   4.508  16.762  0.00  0.00    +0.000 A 
ENDBRANCH   1   3
BRANCH   1  14
ATOM     14  C   UNL     1       4.316   3.463  18.914  0.00  0.00    +0.000 C 
BRANCH  14  15
ATOM     15  C   UNL     1       3.483   4.698  19.254  0.00  0.00    +0.000 C 
BRANCH  15  16
ATOM     16  C   UNL     1       2.119   4.677  18.547  0.00  0.00    +0.000 C 
BRANCH  16  18
ATOM     17  C   UNL     1       0.907   2.605  18.914  0.00  0.00    +0.000 C 
ATOM     18  N   UNL     1       1.047   4.016  19.316  0.00  0.00    +0.000 NA
BRANCH  18  19
ATOM     19  C   UNL     1       1.304   4.056  20.779  0.00  0.00    +0.000 C 
BRANCH  19  20
ATOM     20  C   UNL     1       1.424   2.681  21.457  0.00  0.00    +0.000 C 
BRANCH  20  21
ATOM     21  O   UNL     1       2.706   2.517  22.056  0.00  0.00    +0.000 OA
ATOM     22  H   UNL     1       3.286   3.165  21.616  0.00  0.00    +0.000 HD
ENDBRANCH  20  21
ENDBRANCH  19  20
ENDBRANCH  18  19
ENDBRANCH  16  18
ENDBRANCH  15  16
ENDBRANCH  14  15
ENDBRANCH   1  14
TORSDOF 8
ENDMDL
MODEL 4
REMARK VINA RESULT:      -5.9      2.980      6.239
REMARK  Name = 
REMARK  9 active torsions:
REMARK  status: ('A' for Active; 'I' for Inactive)
REMARK    1  A    between atoms: C_1  and  N_2
REMARK    2  A    between atoms: N_2  and  C_3
REMARK    3  A    between atoms: N_2  and  C_6
REMARK    4  A    between atoms: C_3  and  C_4
REMARK    5  A    between atoms: C_4  and  O_5
REMARK    6  A    between atoms: C_6  and  C_7
REMARK    7  A    between atoms: C_7  and  C_8
REMARK    8  A    between atoms: C_8  and  N_9
REMARK    9  A    between atoms: N_9  and  C_10
REMARK                            x       y       z     vdW  Elec       q    Type
REMARK                         _______ _______ _______ _____ _____    ______ ____
ROOT
ATOM      1  N   UNL     1       4.870   3.492  18.295  0.00  0.00    +0.000 N 
ATOM      2  H   UNL     1       5.659   4.104  18.485  0.00  0.00    +0.000 HD
ENDROOT
BRANCH   1   3
ATOM      3  C   UNL     1       3.858   3.643  19.277  0.00  0.00    +0.000 A 
ATOM      4  C   UNL     1       3.550   2.601  20.152  0.00  0.00    +0.000 A 
ATOM      5  C   UNL     1       2.602   2.794  21.134  0.00  0.00    +0.000 A 
ATOM      6  N   UNL     1       1.960   3.960  21.335  0.00  0.00    +0.000 NA
ATOM      7  C   UNL     1       2.279   4.993  20.546  0.00  0.00    +0.000 A 
ATOM      8  C   UNL     1       1.630   6.191  20.794  0.00  0.00    +0.000 A 
ATOM      9  C   UNL     1       1.891   7.326  20.032  0.00  0.00    +0.000 A 
ATOM     10 CL   UNL     1       1.065   8.794  20.374  0.00  0.00    +0.000 Cl
ATOM     11  C   UNL     1       2.816   7.276  19.001  0.00  0.00    +0.000 A 
ATOM     12  C   UNL     1       3.483   6.080  18.737  0.00  0.00    +0.000 A 
ATOM     13  C   UNL     1       3.231   4.908  19.498  0.00  0.00    +0.000 A 
ENDBRANCH   1   3
BRANCH   1  14
ATOM     14  C   UNL     1       4.464   3.614  16.890  0.00  0.00    +0.000 C 
BRANCH  14  15
ATOM     15  C   UNL     1       5.660   4.040  16.039  0.00  0.00    +0.000 C 
BRANCH  15  16
ATOM     16  C   UNL     1       5.869   5.562  16.075  0.00  0.00    +0.000 C 
BRANCH  16  18
ATOM     17  C   UNL     1       7.117   7.346  17.149  0.00  0.00    +0.000 C 
ATOM     18  N   UNL     1       7.183   5.981  16.599  0.00  0.00    +0.000 NA
BRANCH  18  19
ATOM     19  C   UNL     1       7.672   5.075  17.670  0.00  0.00    +0.000 C 
BRANCH  19  20
ATOM     20  C   UNL     1       7.829   5.727  19.054  0.00  0.00    +0.000 C 
BRANCH  20  21
ATOM     21  O   UNL     1       6.854   5.232  19.967  0.00  0.00    +0.000 OA
ATOM     22  H   UNL     1       6.456   6.021  20.379  0.00  0.00    +0.000 HD
ENDBRANCH  20  21
ENDBRANCH  19  20
ENDBRANCH  18  19
ENDBRANCH  16  18
ENDBRANCH  15  16
ENDBRANCH  14  15
ENDBRANCH   1  14
TORSDOF 8
ENDMDL
MODEL 5
REMARK VINA RESULT:      -5.9      0.966      1.331
REMARK  Name = 
REMARK  9 active torsions:
REMARK  status: ('A' for Active; 'I' for Inactive)
REMARK    1  A    between atoms: C_1  and  N_2
REMARK    2  A    between atoms: N_2  and  C_3
REMARK    3  A    between atoms: N_2  and  C_6
REMARK    4  A    between atoms: C_3  and  C_4
REMARK    5  A    between atoms: C_4  and  O_5
REMARK    6  A    between atoms: C_6  and  C_7
REMARK    7  A    between atoms: C_7  and  C_8
REMARK    8  A    between atoms: C_8  and  N_9
REMARK    9  A    between atoms: N_9  and  C_10
REMARK                            x       y       z     vdW  Elec       q    Type
REMARK                         _______ _______ _______ _____ _____    ______ ____
ROOT
ATOM      1  N   UNL     1       5.410   4.407  19.172  0.00  0.00    +0.000 N 
ATOM      2  H   UNL     1       5.106   3.517  18.786  0.00  0.00    +0.000 HD
ENDROOT
BRANCH   1   3
ATOM      3  C   UNL     1       6.135   5.158  18.213  0.00  0.00    +0.000 A 
ATOM      4  C   UNL     1       6.939   6.230  18.603  0.00  0.00    +0.000 A 
ATOM      5  C   UNL     1       7.678   6.907  17.656  0.00  0.00    +0.000 A 
ATOM      6  N   UNL     1       7.706   6.576  16.352  0.00  0.00    +0.000 NA
ATOM      7  C   UNL     1       6.989   5.517  15.961  0.00  0.00    +0.000 A 
ATOM      8  C   UNL     1       7.060   5.175  14.620  0.00  0.00    +0.000 A 
ATOM      9  C   UNL     1       6.354   4.089  14.112  0.00  0.00    +0.000 A 
ATOM     10 CL   UNL     1       6.471   3.698  12.442  0.00  0.00    +0.000 Cl
ATOM     11  C   UNL     1       5.560   3.321  14.949  0.00  0.00    +0.000 A 
ATOM     12  C   UNL     1       5.476   3.645  16.303  0.00  0.00    +0.000 A 
ATOM     13  C   UNL     1       6.184   4.752  16.844  0.00  0.00    +0.000 A 
ENDBRANCH   1   3
BRANCH   1  14
ATOM     14  C   UNL     1       4.289   5.078  19.840  0.00  0.00    +0.000 C 
BRANCH  14  15
ATOM     15  C   UNL     1       3.130   5.251  18.858  0.00  0.00    +0.000 C 
BRANCH  15  16
ATOM     16  C   UNL     1       1.879   4.486  19.315  0.00  0.00    +0.000 C 
BRANCH  16  18
ATOM     17  C   UNL     1       2.177   3.352  17.188  0.00  0.00    +0.000 C 
ATOM     18  N   UNL     1       1.602   3.260  18.542  0.00  0.00    +0.000 NA
BRANCH  18  19
ATOM     19  C   UNL     1       2.157   2.048  19.199  0.00  0.00    +0.000 C 
BRANCH  19  20
ATOM     20  C   UNL     1       3.398   1.448  18.516  0.00  0.00    +0.000 C 
BRANCH  20  21
ATOM     21  O   UNL     1       4.558   1.613  19.326  0.00  0.00    +0.000 OA
ATOM     22  H   UNL     1       4.629   2.571  19.490  0.00  0.00    +0.000 HD
ENDBRANCH  20  21
ENDBRANCH  19  20
ENDBRANCH  18  19
ENDBRANCH  16  18
ENDBRANCH  15  16
ENDBRANCH  14  15
ENDBRANCH   1  14
TORSDOF 8
ENDMDL
MODEL 6
REMARK VINA RESULT:      -5.8      2.151      3.119
REMARK  Name = 
REMARK  9 active torsions:
REMARK  status: ('A' for Active; 'I' for Inactive)
REMARK    1  A    between atoms: C_1  and  N_2
REMARK    2  A    between atoms: N_2  and  C_3
REMARK    3  A    between atoms: N_2  and  C_6
REMARK    4  A    between atoms: C_3  and  C_4
REMARK    5  A    between atoms: C_4  and  O_5
REMARK    6  A    between atoms: C_6  and  C_7
REMARK    7  A    between atoms: C_7  and  C_8
REMARK    8  A    between atoms: C_8  and  N_9
REMARK    9  A    between atoms: N_9  and  C_10
REMARK                            x       y       z     vdW  Elec       q    Type
REMARK                         _______ _______ _______ _____ _____    ______ ____
ROOT
ATOM      1  N   UNL     1       2.819   5.568  20.520  0.00  0.00    +0.000 N 
ATOM      2  H   UNL     1       3.503   4.818  20.557  0.00  0.00    +0.000 HD
ENDROOT
BRANCH   1   3
ATOM      3  C   UNL     1       2.967   6.334  19.336  0.00  0.00    +0.000 A 
ATOM      4  C   UNL     1       2.242   7.513  19.153  0.00  0.00    +0.000 A 
ATOM      5  C   UNL     1       2.447   8.269  18.017  0.00  0.00    +0.000 A 
ATOM      6  N   UNL     1       3.347   7.959  17.065  0.00  0.00    +0.000 NA
ATOM      7  C   UNL     1       4.095   6.865  17.245  0.00  0.00    +0.000 A 
ATOM      8  C   UNL     1       5.037   6.585  16.268  0.00  0.00    +0.000 A 
ATOM      9  C   UNL     1       5.867   5.472  16.360  0.00  0.00    +0.000 A 
ATOM     10 CL   UNL     1       7.023   5.162  15.127  0.00  0.00    +0.000 Cl
ATOM     11  C   UNL     1       5.764   4.615  17.445  0.00  0.00    +0.000 A 
ATOM     12  C   UNL     1       4.825   4.879  18.442  0.00  0.00    +0.000 A 
ATOM     13  C   UNL     1       3.965   6.007  18.367  0.00  0.00    +0.000 A 
ENDBRANCH   1   3
BRANCH   1  14
ATOM     14  C   UNL     1       1.480   5.047  20.817  0.00  0.00    +0.000 C 
BRANCH  14  15
ATOM     15  C   UNL     1       1.097   3.985  19.787  0.00  0.00    +0.000 C 
BRANCH  15  16
ATOM     16  C   UNL     1       1.782   2.640  20.075  0.00  0.00    +0.000 C 
BRANCH  16  18
ATOM     17  C   UNL     1       2.118   2.779  17.674  0.00  0.00    +0.000 C 
ATOM     18  N   UNL     1       2.256   1.931  18.871  0.00  0.00    +0.000 NA
BRANCH  18  19
ATOM     19  C   UNL     1       3.681   1.525  18.988  0.00  0.00    +0.000 C 
BRANCH  19  20
ATOM     20  C   UNL     1       4.402   2.035  20.248  0.00  0.00    +0.000 C 
BRANCH  20  21
ATOM     21  O   UNL     1       5.493   1.185  20.592  0.00  0.00    +0.000 OA
ATOM     22  H   UNL     1       6.132   1.270  19.861  0.00  0.00    +0.000 HD
ENDBRANCH  20  21
ENDBRANCH  19  20
ENDBRANCH  18  19
ENDBRANCH  16  18
ENDBRANCH  15  16
ENDBRANCH  14  15
ENDBRANCH   1  14
TORSDOF 8
ENDMDL
MODEL 7
REMARK VINA RESULT:      -5.8      3.374      6.292
REMARK  Name = 
REMARK  9 active torsions:
REMARK  status: ('A' for Active; 'I' for Inactive)
REMARK    1  A    between atoms: C_1  and  N_2
REMARK    2  A    between atoms: N_2  and  C_3
REMARK    3  A    between atoms: N_2  and  C_6
REMARK    4  A    between atoms: C_3  and  C_4
REMARK    5  A    between atoms: C_4  and  O_5
REMARK    6  A    between atoms: C_6  and  C_7
REMARK    7  A    between atoms: C_7  and  C_8
REMARK    8  A    between atoms: C_8  and  N_9
REMARK    9  A    between atoms: N_9  and  C_10
REMARK                            x       y       z     vdW  Elec       q    Type
REMARK                         _______ _______ _______ _____ _____    ______ ____
ROOT
ATOM      1  N   UNL     1       3.997   5.397  17.112  0.00  0.00    +0.000 N 
ATOM      2  H   UNL     1       3.526   5.784  16.299  0.00  0.00    +0.000 HD
ENDROOT
BRANCH   1   3
ATOM      3  C   UNL     1       3.247   5.624  18.294  0.00  0.00    +0.000 A 
ATOM      4  C   UNL     1       3.178   4.654  19.295  0.00  0.00    +0.000 A 
ATOM      5  C   UNL     1       2.489   4.924  20.458  0.00  0.00    +0.000 A 
ATOM      6  N   UNL     1       1.890   6.102  20.717  0.00  0.00    +0.000 NA
ATOM      7  C   UNL     1       1.990   7.068  19.798  0.00  0.00    +0.000 A 
ATOM      8  C   UNL     1       1.395   8.282  20.101  0.00  0.00    +0.000 A 
ATOM      9  C   UNL     1       1.442   9.353  19.214  0.00  0.00    +0.000 A 
ATOM     10 CL   UNL     1       0.692  10.843  19.630  0.00  0.00    +0.000 Cl
ATOM     11  C   UNL     1       2.094   9.222  17.998  0.00  0.00    +0.000 A 
ATOM     12  C   UNL     1       2.703   8.010  17.674  0.00  0.00    +0.000 A 
ATOM     13  C   UNL     1       2.665   6.901  18.561  0.00  0.00    +0.000 A 
ENDBRANCH   1   3
BRANCH   1  14
ATOM     14  C   UNL     1       4.419   4.017  16.842  0.00  0.00    +0.000 C 
BRANCH  14  15
ATOM     15  C   UNL     1       5.718   4.020  16.038  0.00  0.00    +0.000 C 
BRANCH  15  16
ATOM     16  C   UNL     1       6.180   5.449  15.710  0.00  0.00    +0.000 C 
BRANCH  16  18
ATOM     17  C   UNL     1       7.026   7.259  17.090  0.00  0.00    +0.000 C 
ATOM     18  N   UNL     1       7.309   5.925  16.532  0.00  0.00    +0.000 NA
BRANCH  18  19
ATOM     19  C   UNL     1       7.604   5.005  17.661  0.00  0.00    +0.000 C 
BRANCH  19  20
ATOM     20  C   UNL     1       7.598   5.660  19.053  0.00  0.00    +0.000 C 
BRANCH  20  21
ATOM     21  O   UNL     1       6.591   5.089  19.882  0.00  0.00    +0.000 OA
ATOM     22  H   UNL     1       7.069   4.574  20.559  0.00  0.00    +0.000 HD
ENDBRANCH  20  21
ENDBRANCH  19  20
ENDBRANCH  18  19
ENDBRANCH  16  18
ENDBRANCH  15  16
ENDBRANCH  14  15
ENDBRANCH   1  14
TORSDOF 8
ENDMDL
MODEL 8
REMARK VINA RESULT:      -5.8      5.047      7.401
REMARK  Name = 
REMARK  9 active torsions:
REMARK  status: ('A' for Active; 'I' for Inactive)
REMARK    1  A    between atoms: C_1  and  N_2
REMARK    2  A    between atoms: N_2  and  C_3
REMARK    3  A    between atoms: N_2  and  C_6
REMARK    4  A    between atoms: C_3  and  C_4
REMARK    5  A    between atoms: C_4  and  O_5
REMARK    6  A    between atoms: C_6  and  C_7
REMARK    7  A    between atoms: C_7  and  C_8
REMARK    8  A    between atoms: C_8  and  N_9
REMARK    9  A    between atoms: N_9  and  C_10
REMARK                            x       y       z     vdW  Elec       q    Type
REMARK                         _______ _______ _______ _____ _____    ______ ____
ROOT
ATOM      1  N   UNL     1       2.702   6.499  19.989  0.00  0.00    +0.000 N 
ATOM      2  H   UNL     1       3.717   6.532  19.998  0.00  0.00    +0.000 HD
ENDROOT
BRANCH   1   3
ATOM      3  C   UNL     1       2.154   7.718  19.515  0.00  0.00    +0.000 A 
ATOM      4  C   UNL     1       2.223   8.054  18.163  0.00  0.00    +0.000 A 
ATOM      5  C   UNL     1       1.632   9.219  17.720  0.00  0.00    +0.000 A 
ATOM      6  N   UNL     1       0.945  10.059  18.516  0.00  0.00    +0.000 NA
ATOM      7  C   UNL     1       0.815   9.730  19.806  0.00  0.00    +0.000 A 
ATOM      8  C   UNL     1       0.076  10.593  20.598  0.00  0.00    +0.000 A 
ATOM      9  C   UNL     1      -0.122  10.342  21.953  0.00  0.00    +0.000 A 
ATOM     10 CL   UNL     1      -1.047  11.438  22.900  0.00  0.00    +0.000 Cl
ATOM     11  C   UNL     1       0.425   9.211  22.538  0.00  0.00    +0.000 A 
ATOM     12  C   UNL     1       1.170   8.327  21.758  0.00  0.00    +0.000 A 
ATOM     13  C   UNL     1       1.388   8.564  20.375  0.00  0.00    +0.000 A 
ENDBRANCH   1   3
BRANCH   1  14
ATOM     14  C   UNL     1       2.242   5.263  19.345  0.00  0.00    +0.000 C 
BRANCH  14  15
ATOM     15  C   UNL     1       3.362   4.679  18.485  0.00  0.00    +0.000 C 
BRANCH  15  16
ATOM     16  C   UNL     1       4.535   4.180  19.342  0.00  0.00    +0.000 C 
BRANCH  16  18
ATOM     17  C   UNL     1       5.790   4.127  17.263  0.00  0.00    +0.000 C 
ATOM     18  N   UNL     1       5.861   4.356  18.717  0.00  0.00    +0.000 NA
BRANCH  18  19
ATOM     19  C   UNL     1       6.408   5.718  18.944  0.00  0.00    +0.000 C 
BRANCH  19  20
ATOM     20  C   UNL     1       7.904   5.768  19.298  0.00  0.00    +0.000 C 
BRANCH  20  21
ATOM     21  O   UNL     1       8.125   5.366  20.647  0.00  0.00    +0.000 OA
ATOM     22  H   UNL     1       7.347   4.833  20.892  0.00  0.00    +0.000 HD
ENDBRANCH  20  21
ENDBRANCH  19  20
ENDBRANCH  18  19
ENDBRANCH  16  18
ENDBRANCH  15  16
ENDBRANCH  14  15
ENDBRANCH   1  14
TORSDOF 8
ENDMDL
MODEL 9
REMARK VINA RESULT:      -5.8      1.834      2.530
REMARK  Name = 
REMARK  9 active torsions:
REMARK  status: ('A' for Active; 'I' for Inactive)
REMARK    1  A    between atoms: C_1  and  N_2
REMARK    2  A    between atoms: N_2  and  C_3
REMARK    3  A    between atoms: N_2  and  C_6
REMARK    4  A    between atoms: C_3  and  C_4
REMARK    5  A    between atoms: C_4  and  O_5
REMARK    6  A    between atoms: C_6  and  C_7
REMARK    7  A    between atoms: C_7  and  C_8
REMARK    8  A    between atoms: C_8  and  N_9
REMARK    9  A    between atoms: N_9  and  C_10
REMARK                            x       y       z     vdW  Elec       q    Type
REMARK                         _______ _______ _______ _____ _____    ______ ____
ROOT
ATOM      1  N   UNL     1       3.504   3.058  17.658  0.00  0.00    +0.000 N 
ATOM      2  H   UNL     1       2.649   3.600  17.574  0.00  0.00    +0.000 HD
ENDROOT
BRANCH   1   3
ATOM      3  C   UNL     1       4.640   3.904  17.729  0.00  0.00    +0.000 A 
ATOM      4  C   UNL     1       5.127   4.345  18.960  0.00  0.00    +0.000 A 
ATOM      5  C   UNL     1       6.267   5.120  19.004  0.00  0.00    +0.000 A 
ATOM      6  N   UNL     1       6.981   5.461  17.916  0.00  0.00    +0.000 NA
ATOM      7  C   UNL     1       6.568   5.003  16.728  0.00  0.00    +0.000 A 
ATOM      8  C   UNL     1       7.339   5.339  15.627  0.00  0.00    +0.000 A 
ATOM      9  C   UNL     1       6.998   4.912  14.348  0.00  0.00    +0.000 A 
ATOM     10 CL   UNL     1       7.982   5.350  13.008  0.00  0.00    +0.000 Cl
ATOM     11  C   UNL     1       5.868   4.133  14.152  0.00  0.00    +0.000 A 
ATOM     12  C   UNL     1       5.080   3.780  15.247  0.00  0.00    +0.000 A 
ATOM     13  C   UNL     1       5.406   4.208  16.562  0.00  0.00    +0.000 A 
ENDBRANCH   1   3
BRANCH   1  14
ATOM     14  C   UNL     1       3.359   2.043  18.709  0.00  0.00    +0.000 C 
BRANCH  14  15
ATOM     15  C   UNL     1       1.892   1.933  19.122  0.00  0.00    +0.000 C 
BRANCH  15  16
ATOM     16  C   UNL     1       1.240   3.315  19.280  0.00  0.00    +0.000 C 
BRANCH  16  18
ATOM     17  C   UNL     1       1.373   2.685  21.622  0.00  0.00    +0.000 C 
ATOM     18  N   UNL     1       1.162   3.793  20.674  0.00  0.00    +0.000 NA
BRANCH  18  19
ATOM     19  C   UNL     1       2.171   4.845  20.961  0.00  0.00    +0.000 C 
BRANCH  19  20
ATOM     20  C   UNL     1       1.772   6.266  20.528  0.00  0.00    +0.000 C 
BRANCH  20  21
ATOM     21  O   UNL     1       2.535   6.691  19.402  0.00  0.00    +0.000 OA
ATOM     22  H   UNL     1       2.451   5.977  18.744  0.00  0.00    +0.000 HD
ENDBRANCH  20  21
ENDBRANCH  19  20
ENDBRANCH  18  19
ENDBRANCH  16  18
ENDBRANCH  15  16
ENDBRANCH  14  15
ENDBRANCH   1  14
TORSDOF 8
ENDMDL
