MODEL 1
REMARK VINA RESULT:      -8.4      0.000      0.000
REMARK  Name = 
REMARK  6 active torsions:
REMARK  status: ('A' for Active; 'I' for Inactive)
REMARK    1  A    between atoms: C_1  and  C_2
REMARK    2  A    between atoms: C_2  and  N_3
REMARK    3  A    between atoms: N_5  and  S_6
REMARK    4  A    between atoms: S_6  and  C_9
REMARK    5  A    between atoms: C_18  and  C_19
REMARK    6  A    between atoms: C_19  and  C_20
REMARK                            x       y       z     vdW  Elec       q    Type
REMARK                         _______ _______ _______ _____ _____    ______ ____
ROOT
ATOM      1  N   UNL     1       7.268   6.261  16.424  0.00  0.00    +0.000 N 
ATOM      2  C   UNL     1       6.467   5.166  16.169  0.00  0.00    +0.000 C 
ATOM      3  N   UNL     1       5.575   4.566  16.883  0.00  0.00    +0.000 NA
ATOM      4  N   UNL     1       6.743   4.715  14.867  0.00  0.00    +0.000 N 
ATOM      5  C   UNL     1       6.036   3.599  14.235  0.00  0.00    +0.000 C 
ATOM      6  C   UNL     1       6.422   3.683  12.754  0.00  0.00    +0.000 C 
ATOM      7  C   UNL     1       7.442   4.774  12.834  0.00  0.00    +0.000 C 
ATOM      8  N   UNL     1       7.600   5.342  13.986  0.00  0.00    +0.000 NA
ATOM      9  H   UNL     1       7.809   6.491  15.591  0.00  0.00    +0.000 HD
ENDROOT
BRANCH   3  10
ATOM     10  S   UNL     1       5.105   5.019  18.360  0.00  0.00    +0.000 S 
ATOM     11  O   UNL     1       6.067   4.703  19.386  0.00  0.00    +0.000 OA
ATOM     12  O   UNL     1       4.512   6.346  18.275  0.00  0.00    +0.000 OA
BRANCH  10  13
ATOM     13  C   UNL     1       3.780   3.891  18.717  0.00  0.00    +0.000 A 
ATOM     14  C   UNL     1       3.343   2.978  17.754  0.00  0.00    +0.000 A 
ATOM     15  C   UNL     1       2.317   2.090  18.079  0.00  0.00    +0.000 A 
ATOM     16  C   UNL     1       1.737   2.136  19.349  0.00  0.00    +0.000 A 
ATOM     17  C   UNL     1       2.160   3.084  20.277  0.00  0.00    +0.000 A 
ATOM     18  F   UNL     1       1.589   3.126  21.487  0.00  0.00    +0.000 F 
ATOM     19  C   UNL     1       3.172   3.975  19.972  0.00  0.00    +0.000 A 
ENDBRANCH  10  13
ENDBRANCH   3  10
BRANCH   1  21
ATOM     20  C   UNL     1       8.150   7.630  18.279  0.00  0.00    +0.000 C 
ATOM     21  C   UNL     1       6.997   7.343  17.340  0.00  0.00    +0.000 C 
ENDBRANCH   1  21
BRANCH   6  22
ATOM     22  C   UNL     1       5.261   4.076  11.836  0.00  0.00    +0.000 C 
ATOM     23  C   UNL     1       4.434   2.877  11.378  0.00  0.00    +0.000 C 
ENDBRANCH   6  22
TORSDOF 4
ENDMDL
MODEL 2
REMARK VINA RESULT:      -8.2      1.040      1.408
REMARK  Name = 
REMARK  6 active torsions:
REMARK  status: ('A' for Active; 'I' for Inactive)
REMARK    1  A    between atoms: C_1  and  C_2
REMARK    2  A    between atoms: C_2  and  N_3
REMARK    3  A    between atoms: N_5  and  S_6
REMARK    4  A    between atoms: S_6  and  C_9
REMARK    5  A    between atoms: C_18  and  C_19
REMARK    6  A    between atoms: C_19  and  C_20
REMARK                            x       y       z     vdW  Elec       q    Type
REMARK                         _______ _______ _______ _____ _____    ______ ____
ROOT
ATOM      1  N   UNL     1       7.295   6.546  16.534  0.00  0.00    +0.000 N 
ATOM      2  C   UNL     1       6.462   5.458  16.371  0.00  0.00    +0.000 C 
ATOM      3  N   UNL     1       5.547   4.952  17.128  0.00  0.00    +0.000 NA
ATOM      4  N   UNL     1       6.732   4.884  15.117  0.00  0.00    +0.000 N 
ATOM      5  C   UNL     1       5.995   3.738  14.581  0.00  0.00    +0.000 C 
ATOM      6  C   UNL     1       6.392   3.677  13.102  0.00  0.00    +0.000 C 
ATOM      7  C   UNL     1       7.447   4.738  13.094  0.00  0.00    +0.000 C 
ATOM      8  N   UNL     1       7.614   5.402  14.191  0.00  0.00    +0.000 NA
ATOM      9  H   UNL     1       7.849   6.684  15.689  0.00  0.00    +0.000 HD
ENDROOT
BRANCH   3  10
ATOM     10  S   UNL     1       5.081   5.550  18.554  0.00  0.00    +0.000 S 
ATOM     11  O   UNL     1       6.112   5.489  19.561  0.00  0.00    +0.000 OA
ATOM     12  O   UNL     1       4.333   6.778  18.323  0.00  0.00    +0.000 OA
BRANCH  10  13
ATOM     13  C   UNL     1       3.913   4.341  19.127  0.00  0.00    +0.000 A 
ATOM     14  C   UNL     1       2.935   4.684  20.065  0.00  0.00    +0.000 A 
ATOM     15  C   UNL     1       2.019   3.714  20.472  0.00  0.00    +0.000 A 
ATOM     16  C   UNL     1       2.100   2.421  19.951  0.00  0.00    +0.000 A 
ATOM     17  C   UNL     1       3.111   2.092  19.051  0.00  0.00    +0.000 A 
ATOM     18  F   UNL     1       3.186   0.846  18.567  0.00  0.00    +0.000 F 
ATOM     19  C   UNL     1       4.031   3.038  18.639  0.00  0.00    +0.000 A 
ENDBRANCH  10  13
ENDBRANCH   3  10
BRANCH   1  21
ATOM     20  C   UNL     1       8.272   8.159  18.127  0.00  0.00    +0.000 C 
ATOM     21  C   UNL     1       7.053   7.714  17.348  0.00  0.00    +0.000 C 
ENDBRANCH   1  21
BRANCH   6  22
ATOM     22  C   UNL     1       5.251   4.021  12.142  0.00  0.00    +0.000 C 
ATOM     23  C   UNL     1       4.679   2.794  11.435  0.00  0.00    +0.000 C 
ENDBRANCH   6  22
TORSDOF 4
ENDMDL
MODEL 3
REMARK VINA RESULT:      -7.8      4.413      7.151
REMARK  Name = 
REMARK  6 active torsions:
REMARK  status: ('A' for Active; 'I' for Inactive)
REMARK    1  A    between atoms: C_1  and  C_2
REMARK    2  A    between atoms: C_2  and  N_3
REMARK    3  A    between atoms: N_5  and  S_6
REMARK    4  A    between atoms: S_6  and  C_9
REMARK    5  A    between atoms: C_18  and  C_19
REMARK    6  A    between atoms: C_19  and  C_20
REMARK                            x       y       z     vdW  Elec       q    Type
REMARK                         _______ _______ _______ _____ _____    ______ ____
ROOT
ATOM      1  N   UNL     1       2.388   5.704  20.755  0.00  0.00    +0.000 N 
ATOM      2  C   UNL     1       2.670   6.316  19.550  0.00  0.00    +0.000 C 
ATOM      3  N   UNL     1       3.278   5.896  18.491  0.00  0.00    +0.000 NA
ATOM      4  N   UNL     1       2.140   7.617  19.584  0.00  0.00    +0.000 N 
ATOM      5  C   UNL     1       2.202   8.541  18.450  0.00  0.00    +0.000 C 
ATOM      6  C   UNL     1       1.235   9.673  18.818  0.00  0.00    +0.000 C 
ATOM      7  C   UNL     1       0.903   9.259  20.216  0.00  0.00    +0.000 C 
ATOM      8  N   UNL     1       1.387   8.129  20.621  0.00  0.00    +0.000 NA
ATOM      9  H   UNL     1       1.827   6.329  21.333  0.00  0.00    +0.000 HD
ENDROOT
BRANCH   3  10
ATOM     10  S   UNL     1       3.868   4.407  18.285  0.00  0.00    +0.000 S 
ATOM     11  O   UNL     1       4.619   3.930  19.420  0.00  0.00    +0.000 OA
ATOM     12  O   UNL     1       2.841   3.580  17.666  0.00  0.00    +0.000 OA
BRANCH  10  13
ATOM     13  C   UNL     1       5.133   4.649  17.062  0.00  0.00    +0.000 A 
ATOM     14  C   UNL     1       6.244   5.451  17.336  0.00  0.00    +0.000 A 
ATOM     15  C   UNL     1       7.230   5.597  16.359  0.00  0.00    +0.000 A 
ATOM     16  C   UNL     1       7.087   4.954  15.127  0.00  0.00    +0.000 A 
ATOM     17  C   UNL     1       5.950   4.195  14.863  0.00  0.00    +0.000 A 
ATOM     18  F   UNL     1       5.817   3.594  13.675  0.00  0.00    +0.000 F 
ATOM     19  C   UNL     1       4.959   4.043  15.815  0.00  0.00    +0.000 A 
ENDBRANCH  10  13
ENDBRANCH   3  10
BRANCH   1  21
ATOM     20  C   UNL     1       0.915   3.737  20.526  0.00  0.00    +0.000 C 
ATOM     21  C   UNL     1       2.243   4.289  20.999  0.00  0.00    +0.000 C 
ENDBRANCH   1  21
BRANCH   6  22
ATOM     22  C   UNL     1      -0.019   9.723  17.941  0.00  0.00    +0.000 C 
ATOM     23  C   UNL     1      -1.204  10.391  18.635  0.00  0.00    +0.000 C 
ENDBRANCH   6  22
TORSDOF 4
ENDMDL
MODEL 4
REMARK VINA RESULT:      -7.8      4.418      7.145
REMARK  Name = 
REMARK  6 active torsions:
REMARK  status: ('A' for Active; 'I' for Inactive)
REMARK    1  A    between atoms: C_1  and  C_2
REMARK    2  A    between atoms: C_2  and  N_3
REMARK    3  A    between atoms: N_5  and  S_6
REMARK    4  A    between atoms: S_6  and  C_9
REMARK    5  A    between atoms: C_18  and  C_19
REMARK    6  A    between atoms: C_19  and  C_20
REMARK                            x       y       z     vdW  Elec       q    Type
REMARK                         _______ _______ _______ _____ _____    ______ ____
ROOT
ATOM      1  N   UNL     1       2.253   5.613  20.819  0.00  0.00    +0.000 N 
ATOM      2  C   UNL     1       2.565   6.256  19.638  0.00  0.00    +0.000 C 
ATOM      3  N   UNL     1       3.172   5.854  18.571  0.00  0.00    +0.000 NA
ATOM      4  N   UNL     1       2.072   7.570  19.710  0.00  0.00    +0.000 N 
ATOM      5  C   UNL     1       2.172   8.529  18.608  0.00  0.00    +0.000 C 
ATOM      6  C   UNL     1       1.234   9.675  19.004  0.00  0.00    +0.000 C 
ATOM      7  C   UNL     1       0.875   9.225  20.384  0.00  0.00    +0.000 C 
ATOM      8  N   UNL     1       1.323   8.069  20.756  0.00  0.00    +0.000 NA
ATOM      9  H   UNL     1       1.704   6.235  21.412  0.00  0.00    +0.000 HD
ENDROOT
BRANCH   3  10
ATOM     10  S   UNL     1       3.722   4.356  18.322  0.00  0.00    +0.000 S 
ATOM     11  O   UNL     1       4.409   3.804  19.463  0.00  0.00    +0.000 OA
ATOM     12  O   UNL     1       2.696   3.593  17.625  0.00  0.00    +0.000 OA
BRANCH  10  13
ATOM     13  C   UNL     1       5.045   4.608  17.164  0.00  0.00    +0.000 A 
ATOM     14  C   UNL     1       5.190   3.771  16.054  0.00  0.00    +0.000 A 
ATOM     15  C   UNL     1       6.226   4.016  15.153  0.00  0.00    +0.000 A 
ATOM     16  C   UNL     1       7.104   5.079  15.378  0.00  0.00    +0.000 A 
ATOM     17  C   UNL     1       6.966   5.872  16.514  0.00  0.00    +0.000 A 
ATOM     18  F   UNL     1       7.820   6.880  16.725  0.00  0.00    +0.000 F 
ATOM     19  C   UNL     1       5.949   5.642  17.422  0.00  0.00    +0.000 A 
ENDBRANCH  10  13
ENDBRANCH   3  10
BRANCH   1  21
ATOM     20  C   UNL     1       0.766   3.682  20.433  0.00  0.00    +0.000 C 
ATOM     21  C   UNL     1       2.066   4.196  21.015  0.00  0.00    +0.000 C 
ENDBRANCH   1  21
BRANCH   6  22
ATOM     22  C   UNL     1      -0.009   9.789  18.117  0.00  0.00    +0.000 C 
ATOM     23  C   UNL     1      -1.218  10.356  18.857  0.00  0.00    +0.000 C 
ENDBRANCH   6  22
TORSDOF 4
ENDMDL
MODEL 5
REMARK VINA RESULT:      -7.7      1.162      1.352
REMARK  Name = 
REMARK  6 active torsions:
REMARK  status: ('A' for Active; 'I' for Inactive)
REMARK    1  A    between atoms: C_1  and  C_2
REMARK    2  A    between atoms: C_2  and  N_3
REMARK    3  A    between atoms: N_5  and  S_6
REMARK    4  A    between atoms: S_6  and  C_9
REMARK    5  A    between atoms: C_18  and  C_19
REMARK    6  A    between atoms: C_19  and  C_20
REMARK                            x       y       z     vdW  Elec       q    Type
REMARK                         _______ _______ _______ _____ _____    ______ ____
ROOT
ATOM      1  N   UNL     1       7.400   6.323  16.611  0.00  0.00    +0.000 N 
ATOM      2  C   UNL     1       6.613   5.221  16.344  0.00  0.00    +0.000 C 
ATOM      3  N   UNL     1       5.736   4.595  17.055  0.00  0.00    +0.000 NA
ATOM      4  N   UNL     1       6.882   4.797  15.031  0.00  0.00    +0.000 N 
ATOM      5  C   UNL     1       6.185   3.683  14.386  0.00  0.00    +0.000 C 
ATOM      6  C   UNL     1       6.556   3.799  12.903  0.00  0.00    +0.000 C 
ATOM      7  C   UNL     1       7.561   4.902  12.994  0.00  0.00    +0.000 C 
ATOM      8  N   UNL     1       7.722   5.452  14.154  0.00  0.00    +0.000 NA
ATOM      9  H   UNL     1       7.930   6.575  15.777  0.00  0.00    +0.000 HD
ENDROOT
BRANCH   3  10
ATOM     10  S   UNL     1       5.273   5.014  18.545  0.00  0.00    +0.000 S 
ATOM     11  O   UNL     1       6.116   4.465  19.579  0.00  0.00    +0.000 OA
ATOM     12  O   UNL     1       4.917   6.426  18.542  0.00  0.00    +0.000 OA
BRANCH  10  13
ATOM     13  C   UNL     1       3.762   4.107  18.760  0.00  0.00    +0.000 A 
ATOM     14  C   UNL     1       3.666   3.101  19.726  0.00  0.00    +0.000 A 
ATOM     15  C   UNL     1       2.454   2.428  19.883  0.00  0.00    +0.000 A 
ATOM     16  C   UNL     1       1.367   2.757  19.069  0.00  0.00    +0.000 A 
ATOM     17  C   UNL     1       1.500   3.733  18.085  0.00  0.00    +0.000 A 
ATOM     18  F   UNL     1       0.456   4.032  17.304  0.00  0.00    +0.000 F 
ATOM     19  C   UNL     1       2.695   4.407  17.910  0.00  0.00    +0.000 A 
ENDBRANCH  10  13
ENDBRANCH   3  10
BRANCH   1  21
ATOM     20  C   UNL     1       8.181   8.466  17.553  0.00  0.00    +0.000 C 
ATOM     21  C   UNL     1       7.123   7.383  17.550  0.00  0.00    +0.000 C 
ENDBRANCH   1  21
BRANCH   6  22
ATOM     22  C   UNL     1       5.380   4.191  12.003  0.00  0.00    +0.000 C 
ATOM     23  C   UNL     1       4.580   2.987  11.513  0.00  0.00    +0.000 C 
ENDBRANCH   6  22
TORSDOF 4
ENDMDL
MODEL 6
REMARK VINA RESULT:      -7.7      0.969      1.029
REMARK  Name = 
REMARK  6 active torsions:
REMARK  status: ('A' for Active; 'I' for Inactive)
REMARK    1  A    between atoms: C_1  and  C_2
REMARK    2  A    between atoms: C_2  and  N_3
REMARK    3  A    between atoms: N_5  and  S_6
REMARK    4  A    between atoms: S_6  and  C_9
REMARK    5  A    between atoms: C_18  and  C_19
REMARK    6  A    between atoms: C_19  and  C_20
REMARK                            x       y       z     vdW  Elec       q    Type
REMARK                         _______ _______ _______ _____ _____    ______ ____
ROOT
ATOM      1  N   UNL     1       7.336   6.251  16.524  0.00  0.00    +0.000 N 
ATOM      2  C   UNL     1       6.580   5.140  16.209  0.00  0.00    +0.000 C 
ATOM      3  N   UNL     1       5.701   4.476  16.882  0.00  0.00    +0.000 NA
ATOM      4  N   UNL     1       6.891   4.758  14.892  0.00  0.00    +0.000 N 
ATOM      5  C   UNL     1       6.234   3.647  14.201  0.00  0.00    +0.000 C 
ATOM      6  C   UNL     1       6.637   3.811  12.731  0.00  0.00    +0.000 C 
ATOM      7  C   UNL     1       7.616   4.933  12.876  0.00  0.00    +0.000 C 
ATOM      8  N   UNL     1       7.736   5.454  14.053  0.00  0.00    +0.000 NA
ATOM      9  H   UNL     1       7.880   6.537  15.711  0.00  0.00    +0.000 HD
ENDROOT
BRANCH   3  10
ATOM     10  S   UNL     1       5.193   4.845  18.370  0.00  0.00    +0.000 S 
ATOM     11  O   UNL     1       5.889   4.121  19.405  0.00  0.00    +0.000 OA
ATOM     12  O   UNL     1       5.015   6.288  18.458  0.00  0.00    +0.000 OA
BRANCH  10  13
ATOM     13  C   UNL     1       3.570   4.127  18.424  0.00  0.00    +0.000 A 
ATOM     14  C   UNL     1       2.495   4.748  17.783  0.00  0.00    +0.000 A 
ATOM     15  C   UNL     1       1.240   4.141  17.826  0.00  0.00    +0.000 A 
ATOM     16  C   UNL     1       1.075   2.936  18.514  0.00  0.00    +0.000 A 
ATOM     17  C   UNL     1       2.152   2.359  19.181  0.00  0.00    +0.000 A 
ATOM     18  F   UNL     1       1.980   1.211  19.846  0.00  0.00    +0.000 F 
ATOM     19  C   UNL     1       3.403   2.948  19.155  0.00  0.00    +0.000 A 
ENDBRANCH  10  13
ENDBRANCH   3  10
BRANCH   1  21
ATOM     20  C   UNL     1       8.105   8.319  17.632  0.00  0.00    +0.000 C 
ATOM     21  C   UNL     1       7.013   7.280  17.484  0.00  0.00    +0.000 C 
ENDBRANCH   1  21
BRANCH   6  22
ATOM     22  C   UNL     1       5.476   4.202  11.813  0.00  0.00    +0.000 C 
ATOM     23  C   UNL     1       4.503   3.052  11.563  0.00  0.00    +0.000 C 
ENDBRANCH   6  22
TORSDOF 4
ENDMDL
MODEL 7
REMARK VINA RESULT:      -7.5      2.823      6.139
REMARK  Name = 
REMARK  6 active torsions:
REMARK  status: ('A' for Active; 'I' for Inactive)
REMARK    1  A    between atoms: C_1  and  C_2
REMARK    2  A    between atoms: C_2  and  N_3
REMARK    3  A    between atoms: N_5  and  S_6
REMARK    4  A    between atoms: S_6  and  C_9
REMARK    5  A    between atoms: C_18  and  C_19
REMARK    6  A    between atoms: C_19  and  C_20
REMARK                            x       y       z     vdW  Elec       q    Type
REMARK                         _______ _______ _______ _____ _____    ______ ____
ROOT
ATOM      1  N   UNL     1       5.975   5.612  19.083  0.00  0.00    +0.000 N 
ATOM      2  C   UNL     1       5.250   5.189  17.987  0.00  0.00    +0.000 C 
ATOM      3  N   UNL     1       5.588   4.979  16.759  0.00  0.00    +0.000 NA
ATOM      4  N   UNL     1       3.926   4.960  18.399  0.00  0.00    +0.000 N 
ATOM      5  C   UNL     1       2.884   4.447  17.508  0.00  0.00    +0.000 C 
ATOM      6  C   UNL     1       1.734   4.051  18.442  0.00  0.00    +0.000 C 
ATOM      7  C   UNL     1       2.282   4.577  19.731  0.00  0.00    +0.000 C 
ATOM      8  N   UNL     1       3.483   5.055  19.702  0.00  0.00    +0.000 NA
ATOM      9  H   UNL     1       5.381   5.598  19.912  0.00  0.00    +0.000 HD
ENDROOT
BRANCH   3  10
ATOM     10  S   UNL     1       7.082   5.128  16.166  0.00  0.00    +0.000 S 
ATOM     11  O   UNL     1       7.539   6.494  16.109  0.00  0.00    +0.000 OA
ATOM     12  O   UNL     1       7.919   4.083  16.740  0.00  0.00    +0.000 OA
BRANCH  10  13
ATOM     13  C   UNL     1       6.869   4.724  14.449  0.00  0.00    +0.000 A 
ATOM     14  C   UNL     1       7.804   5.140  13.498  0.00  0.00    +0.000 A 
ATOM     15  C   UNL     1       7.616   4.781  12.163  0.00  0.00    +0.000 A 
ATOM     16  C   UNL     1       6.497   4.029  11.798  0.00  0.00    +0.000 A 
ATOM     17  C   UNL     1       5.556   3.664  12.757  0.00  0.00    +0.000 A 
ATOM     18  F   UNL     1       4.482   2.954  12.394  0.00  0.00    +0.000 F 
ATOM     19  C   UNL     1       5.722   4.015  14.085  0.00  0.00    +0.000 A 
ENDBRANCH  10  13
ENDBRANCH   3  10
BRANCH   1  21
ATOM     20  C   UNL     1       8.159   6.760  19.145  0.00  0.00    +0.000 C 
ATOM     21  C   UNL     1       7.394   5.462  19.299  0.00  0.00    +0.000 C 
ENDBRANCH   1  21
BRANCH   6  22
ATOM     22  C   UNL     1       1.491   2.541  18.516  0.00  0.00    +0.000 C 
ATOM     23  C   UNL     1       2.785   1.731  18.531  0.00  0.00    +0.000 C 
ENDBRANCH   6  22
TORSDOF 4
ENDMDL
MODEL 8
REMARK VINA RESULT:      -7.4      1.935      2.308
REMARK  Name = 
REMARK  6 active torsions:
REMARK  status: ('A' for Active; 'I' for Inactive)
REMARK    1  A    between atoms: C_1  and  C_2
REMARK    2  A    between atoms: C_2  and  N_3
REMARK    3  A    between atoms: N_5  and  S_6
REMARK    4  A    between atoms: S_6  and  C_9
REMARK    5  A    between atoms: C_18  and  C_19
REMARK    6  A    between atoms: C_19  and  C_20
REMARK                            x       y       z     vdW  Elec       q    Type
REMARK                         _______ _______ _______ _____ _____    ______ ____
ROOT
ATOM      1  N   UNL     1       7.578   5.933  16.926  0.00  0.00    +0.000 N 
ATOM      2  C   UNL     1       6.740   4.869  16.660  0.00  0.00    +0.000 C 
ATOM      3  N   UNL     1       5.924   4.204  17.408  0.00  0.00    +0.000 NA
ATOM      4  N   UNL     1       6.864   4.543  15.298  0.00  0.00    +0.000 N 
ATOM      5  C   UNL     1       6.077   3.495  14.646  0.00  0.00    +0.000 C 
ATOM      6  C   UNL     1       6.298   3.719  13.146  0.00  0.00    +0.000 C 
ATOM      7  C   UNL     1       7.335   4.795  13.215  0.00  0.00    +0.000 C 
ATOM      8  N   UNL     1       7.626   5.250  14.390  0.00  0.00    +0.000 NA
ATOM      9  H   UNL     1       8.026   6.240  16.064  0.00  0.00    +0.000 HD
ENDROOT
BRANCH   3  10
ATOM     10  S   UNL     1       5.626   4.515  18.965  0.00  0.00    +0.000 S 
ATOM     11  O   UNL     1       5.046   3.398  19.668  0.00  0.00    +0.000 OA
ATOM     12  O   UNL     1       6.759   5.242  19.521  0.00  0.00    +0.000 OA
BRANCH  10  13
ATOM     13  C   UNL     1       4.273   5.663  18.887  0.00  0.00    +0.000 A 
ATOM     14  C   UNL     1       4.163   6.563  17.824  0.00  0.00    +0.000 A 
ATOM     15  C   UNL     1       3.073   7.432  17.783  0.00  0.00    +0.000 A 
ATOM     16  C   UNL     1       2.121   7.399  18.806  0.00  0.00    +0.000 A 
ATOM     17  C   UNL     1       2.276   6.523  19.877  0.00  0.00    +0.000 A 
ATOM     18  F   UNL     1       1.364   6.508  20.856  0.00  0.00    +0.000 F 
ATOM     19  C   UNL     1       3.353   5.658  19.938  0.00  0.00    +0.000 A 
ENDBRANCH  10  13
ENDBRANCH   3  10
BRANCH   1  21
ATOM     20  C   UNL     1       7.880   8.303  17.544  0.00  0.00    +0.000 C 
ATOM     21  C   UNL     1       7.424   6.922  17.966  0.00  0.00    +0.000 C 
ENDBRANCH   1  21
BRANCH   6  22
ATOM     22  C   UNL     1       5.048   4.200  12.404  0.00  0.00    +0.000 C 
ATOM     23  C   UNL     1       4.491   3.156  11.439  0.00  0.00    +0.000 C 
ENDBRANCH   6  22
TORSDOF 4
ENDMDL
MODEL 9
REMARK VINA RESULT:      -7.3      4.353      7.191
REMARK  Name = 
REMARK  6 active torsions:
REMARK  status: ('A' for Active; 'I' for Inactive)
REMARK    1  A    between atoms: C_1  and  C_2
REMARK    2  A    between atoms: C_2  and  N_3
REMARK    3  A    between atoms: N_5  and  S_6
REMARK    4  A    between atoms: S_6  and  C_9
REMARK    5  A    between atoms: C_18  and  C_19
REMARK    6  A    between atoms: C_19  and  C_20
REMARK                            x       y       z     vdW  Elec       q    Type
REMARK                         _______ _______ _______ _____ _____    ______ ____
ROOT
ATOM      1  N   UNL     1       1.698   5.018  20.615  0.00  0.00    +0.000 N 
ATOM      2  C   UNL     1       2.206   5.795  19.594  0.00  0.00    +0.000 C 
ATOM      3  N   UNL     1       2.859   5.493  18.522  0.00  0.00    +0.000 NA
ATOM      4  N   UNL     1       1.884   7.137  19.863  0.00  0.00    +0.000 N 
ATOM      5  C   UNL     1       2.217   8.241  18.961  0.00  0.00    +0.000 C 
ATOM      6  C   UNL     1       1.402   9.429  19.484  0.00  0.00    +0.000 C 
ATOM      7  C   UNL     1       0.853   8.812  20.731  0.00  0.00    +0.000 C 
ATOM      8  N   UNL     1       1.106   7.558  20.922  0.00  0.00    +0.000 NA
ATOM      9  H   UNL     1       1.178   5.605  21.267  0.00  0.00    +0.000 HD
ENDROOT
BRANCH   3  10
ATOM     10  S   UNL     1       3.231   3.994  18.050  0.00  0.00    +0.000 S 
ATOM     11  O   UNL     1       3.695   3.156  19.129  0.00  0.00    +0.000 OA
ATOM     12  O   UNL     1       2.204   3.526  17.129  0.00  0.00    +0.000 OA
BRANCH  10  13
ATOM     13  C   UNL     1       4.706   4.236  17.090  0.00  0.00    +0.000 A 
ATOM     14  C   UNL     1       4.635   4.391  15.704  0.00  0.00    +0.000 A 
ATOM     15  C   UNL     1       5.812   4.605  14.986  0.00  0.00    +0.000 A 
ATOM     16  C   UNL     1       7.036   4.647  15.659  0.00  0.00    +0.000 A 
ATOM     17  C   UNL     1       7.085   4.445  17.036  0.00  0.00    +0.000 A 
ATOM     18  F   UNL     1       8.264   4.476  17.667  0.00  0.00    +0.000 F 
ATOM     19  C   UNL     1       5.930   4.227  17.763  0.00  0.00    +0.000 A 
ENDBRANCH  10  13
ENDBRANCH   3  10
BRANCH   1  21
ATOM     20  C   UNL     1       1.701   2.835  21.767  0.00  0.00    +0.000 C 
ATOM     21  C   UNL     1       1.308   3.630  20.539  0.00  0.00    +0.000 C 
ENDBRANCH   1  21
BRANCH   6  22
ATOM     22  C   UNL     1       0.279   9.870  18.541  0.00  0.00    +0.000 C 
ATOM     23  C   UNL     1      -0.705  10.834  19.198  0.00  0.00    +0.000 C 
ENDBRANCH   6  22
TORSDOF 4
ENDMDL
