MODEL 1
REMARK VINA RESULT:      -7.2      0.000      0.000
REMARK  Name = 
REMARK  5 active torsions:
REMARK  status: ('A' for Active; 'I' for Inactive)
REMARK    1  A    between atoms: C_1  and  C_2
REMARK    2  A    between atoms: C_5  and  S_6
REMARK    3  A    between atoms: S_6  and  N_9
REMARK    4  A    between atoms: N_9  and  C_10
REMARK    5  A    between atoms: C_13  and  N_14
REMARK                            x       y       z     vdW  Elec       q    Type
REMARK                         _______ _______ _______ _____ _____    ______ ____
ROOT
ATOM      1  N   UNL     1       4.186   2.762  18.137  0.00  0.00    +0.000 N 
ATOM      2  H   UNL     1       4.526   1.895  17.724  0.00  0.00    +0.000 HD
ENDROOT
BRANCH   1   3
ATOM      3  C   UNL     1       5.006   3.924  18.070  0.00  0.00    +0.000 A 
ATOM      4  C   UNL     1       5.320   4.482  16.828  0.00  0.00    +0.000 A 
ATOM      5  C   UNL     1       6.212   5.562  16.745  0.00  0.00    +0.000 A 
ATOM      6  C   UNL     1       6.780   6.083  17.913  0.00  0.00    +0.000 A 
ATOM      7  C   UNL     1       6.452   5.536  19.160  0.00  0.00    +0.000 A 
ATOM      8  C   UNL     1       5.559   4.462  19.231  0.00  0.00    +0.000 A 
BRANCH   6   9
ATOM      9  N   UNL     1       7.730   7.202  17.838  0.00  0.00    +0.000 N 
ATOM     10  O   UNL     1       7.742   7.881  16.801  0.00  0.00    +0.000 OA
ATOM     11  O   UNL     1       8.465   7.400  18.817  0.00  0.00    +0.000 OA
ENDBRANCH   6   9
ENDBRANCH   1   3
BRANCH   1  12
ATOM     12  S   UNL     1       2.494   2.968  18.116  0.00  0.00    +0.000 S 
ATOM     13  O   UNL     1       1.903   1.967  18.959  0.00  0.00    +0.000 OA
ATOM     14  O   UNL     1       2.098   3.108  16.719  0.00  0.00    +0.000 OA
BRANCH  12  19
ATOM     15  C   UNL     1       1.539   8.315  20.855  0.00  0.00    +0.000 C 
ATOM     16  C   UNL     1       1.777   7.000  20.173  0.00  0.00    +0.000 A 
ATOM     17  C   UNL     1       1.698   5.798  20.882  0.00  0.00    +0.000 A 
ATOM     18  C   UNL     1       1.927   4.584  20.238  0.00  0.00    +0.000 A 
ATOM     19  C   UNL     1       2.214   4.559  18.871  0.00  0.00    +0.000 A 
ATOM     20  C   UNL     1       2.319   5.753  18.150  0.00  0.00    +0.000 A 
ATOM     21  C   UNL     1       2.087   6.969  18.806  0.00  0.00    +0.000 A 
ENDBRANCH  12  19
ENDBRANCH   1  12
TORSDOF 4
ENDMDL
MODEL 2
REMARK VINA RESULT:      -7.2      0.100      1.289
REMARK  Name = 
REMARK  5 active torsions:
REMARK  status: ('A' for Active; 'I' for Inactive)
REMARK    1  A    between atoms: C_1  and  C_2
REMARK    2  A    between atoms: C_5  and  S_6
REMARK    3  A    between atoms: S_6  and  N_9
REMARK    4  A    between atoms: N_9  and  C_10
REMARK    5  A    between atoms: C_13  and  N_14
REMARK                            x       y       z     vdW  Elec       q    Type
REMARK                         _______ _______ _______ _____ _____    ______ ____
ROOT
ATOM      1  N   UNL     1       4.283   2.765  18.117  0.00  0.00    +0.000 N 
ATOM      2  H   UNL     1       4.632   1.910  17.685  0.00  0.00    +0.000 HD
ENDROOT
BRANCH   1   3
ATOM      3  C   UNL     1       5.094   3.935  18.080  0.00  0.00    +0.000 A 
ATOM      4  C   UNL     1       5.385   4.539  16.855  0.00  0.00    +0.000 A 
ATOM      5  C   UNL     1       6.268   5.628  16.797  0.00  0.00    +0.000 A 
ATOM      6  C   UNL     1       6.850   6.112  17.975  0.00  0.00    +0.000 A 
ATOM      7  C   UNL     1       6.544   5.518  19.206  0.00  0.00    +0.000 A 
ATOM      8  C   UNL     1       5.660   4.435  19.251  0.00  0.00    +0.000 A 
BRANCH   6   9
ATOM      9  N   UNL     1       7.790   7.241  17.926  0.00  0.00    +0.000 N 
ATOM     10  O   UNL     1       8.510   7.436  18.915  0.00  0.00    +0.000 OA
ATOM     11  O   UNL     1       7.805   7.933  16.897  0.00  0.00    +0.000 OA
ENDBRANCH   6   9
ENDBRANCH   1   3
BRANCH   1  12
ATOM     12  S   UNL     1       2.590   2.957  18.095  0.00  0.00    +0.000 S 
ATOM     13  O   UNL     1       2.003   1.912  18.885  0.00  0.00    +0.000 OA
ATOM     14  O   UNL     1       2.201   3.161  16.704  0.00  0.00    +0.000 OA
BRANCH  12  19
ATOM     15  C   UNL     1       1.565   8.326  20.765  0.00  0.00    +0.000 C 
ATOM     16  C   UNL     1       1.815   6.998  20.113  0.00  0.00    +0.000 A 
ATOM     17  C   UNL     1       2.111   6.911  18.750  0.00  0.00    +0.000 A 
ATOM     18  C   UNL     1       2.335   5.671  18.155  0.00  0.00    +0.000 A 
ATOM     19  C   UNL     1       2.291   4.507  18.925  0.00  0.00    +0.000 A 
ATOM     20  C   UNL     1       1.975   4.572  20.286  0.00  0.00    +0.000 A 
ATOM     21  C   UNL     1       1.750   5.823  20.875  0.00  0.00    +0.000 A 
ENDBRANCH  12  19
ENDBRANCH   1  12
TORSDOF 4
ENDMDL
MODEL 3
REMARK VINA RESULT:      -6.9      2.644      3.355
REMARK  Name = 
REMARK  5 active torsions:
REMARK  status: ('A' for Active; 'I' for Inactive)
REMARK    1  A    between atoms: C_1  and  C_2
REMARK    2  A    between atoms: C_5  and  S_6
REMARK    3  A    between atoms: S_6  and  N_9
REMARK    4  A    between atoms: N_9  and  C_10
REMARK    5  A    between atoms: C_13  and  N_14
REMARK                            x       y       z     vdW  Elec       q    Type
REMARK                         _______ _______ _______ _____ _____    ______ ____
ROOT
ATOM      1  N   UNL     1       4.685   5.897  19.187  0.00  0.00    +0.000 N 
ATOM      2  H   UNL     1       5.215   5.745  20.044  0.00  0.00    +0.000 HD
ENDROOT
BRANCH   1   3
ATOM      3  C   UNL     1       5.326   5.681  17.935  0.00  0.00    +0.000 A 
ATOM      4  C   UNL     1       5.017   6.501  16.846  0.00  0.00    +0.000 A 
ATOM      5  C   UNL     1       5.562   6.231  15.582  0.00  0.00    +0.000 A 
ATOM      6  C   UNL     1       6.424   5.141  15.417  0.00  0.00    +0.000 A 
ATOM      7  C   UNL     1       6.748   4.329  16.511  0.00  0.00    +0.000 A 
ATOM      8  C   UNL     1       6.202   4.609  17.768  0.00  0.00    +0.000 A 
BRANCH   6   9
ATOM      9  N   UNL     1       6.987   4.836  14.094  0.00  0.00    +0.000 N 
ATOM     10  O   UNL     1       6.483   3.904  13.452  0.00  0.00    +0.000 OA
ATOM     11  O   UNL     1       7.937   5.530  13.699  0.00  0.00    +0.000 OA
ENDBRANCH   6   9
ENDBRANCH   1   3
BRANCH   1  12
ATOM     12  S   UNL     1       3.012   5.594  19.298  0.00  0.00    +0.000 S 
ATOM     13  O   UNL     1       2.743   4.983  20.570  0.00  0.00    +0.000 OA
ATOM     14  O   UNL     1       2.610   4.951  18.053  0.00  0.00    +0.000 OA
BRANCH  12  19
ATOM     15  C   UNL     1       0.417  11.093  19.095  0.00  0.00    +0.000 C 
ATOM     16  C   UNL     1       1.054   9.735  19.153  0.00  0.00    +0.000 A 
ATOM     17  C   UNL     1       1.603   9.150  18.008  0.00  0.00    +0.000 A 
ATOM     18  C   UNL     1       2.186   7.886  18.074  0.00  0.00    +0.000 A 
ATOM     19  C   UNL     1       2.249   7.206  19.292  0.00  0.00    +0.000 A 
ATOM     20  C   UNL     1       1.686   7.766  20.443  0.00  0.00    +0.000 A 
ATOM     21  C   UNL     1       1.101   9.037  20.368  0.00  0.00    +0.000 A 
ENDBRANCH  12  19
ENDBRANCH   1  12
TORSDOF 4
ENDMDL
MODEL 4
REMARK VINA RESULT:      -6.9      1.506      2.380
REMARK  Name = 
REMARK  5 active torsions:
REMARK  status: ('A' for Active; 'I' for Inactive)
REMARK    1  A    between atoms: C_1  and  C_2
REMARK    2  A    between atoms: C_5  and  S_6
REMARK    3  A    between atoms: S_6  and  N_9
REMARK    4  A    between atoms: N_9  and  C_10
REMARK    5  A    between atoms: C_13  and  N_14
REMARK                            x       y       z     vdW  Elec       q    Type
REMARK                         _______ _______ _______ _____ _____    ______ ____
ROOT
ATOM      1  N   UNL     1       3.548   2.752  19.625  0.00  0.00    +0.000 N 
ATOM      2  H   UNL     1       3.675   1.756  19.798  0.00  0.00    +0.000 HD
ENDROOT
BRANCH   1   3
ATOM      3  C   UNL     1       4.443   3.416  18.739  0.00  0.00    +0.000 A 
ATOM      4  C   UNL     1       5.342   4.362  19.239  0.00  0.00    +0.000 A 
ATOM      5  C   UNL     1       6.153   5.098  18.363  0.00  0.00    +0.000 A 
ATOM      6  C   UNL     1       6.065   4.874  16.984  0.00  0.00    +0.000 A 
ATOM      7  C   UNL     1       5.177   3.913  16.482  0.00  0.00    +0.000 A 
ATOM      8  C   UNL     1       4.375   3.184  17.366  0.00  0.00    +0.000 A 
BRANCH   6   9
ATOM      9  N   UNL     1       6.896   5.651  16.053  0.00  0.00    +0.000 N 
ATOM     10  O   UNL     1       7.557   6.590  16.516  0.00  0.00    +0.000 OA
ATOM     11  O   UNL     1       6.885   5.320  14.858  0.00  0.00    +0.000 OA
ENDBRANCH   6   9
ENDBRANCH   1   3
BRANCH   1  12
ATOM     12  S   UNL     1       1.941   3.312  19.714  0.00  0.00    +0.000 S 
ATOM     13  O   UNL     1       1.492   3.192  21.073  0.00  0.00    +0.000 OA
ATOM     14  O   UNL     1       1.209   2.686  18.620  0.00  0.00    +0.000 OA
BRANCH  12  19
ATOM     15  C   UNL     1       2.224   9.195  18.191  0.00  0.00    +0.000 C 
ATOM     16  C   UNL     1       2.153   7.746  18.574  0.00  0.00    +0.000 A 
ATOM     17  C   UNL     1       2.090   6.747  17.599  0.00  0.00    +0.000 A 
ATOM     18  C   UNL     1       2.018   5.405  17.968  0.00  0.00    +0.000 A 
ATOM     19  C   UNL     1       2.034   5.048  19.318  0.00  0.00    +0.000 A 
ATOM     20  C   UNL     1       2.076   6.036  20.309  0.00  0.00    +0.000 A 
ATOM     21  C   UNL     1       2.147   7.382  19.928  0.00  0.00    +0.000 A 
ENDBRANCH  12  19
ENDBRANCH   1  12
TORSDOF 4
ENDMDL
MODEL 5
REMARK VINA RESULT:      -6.9      2.595      3.405
REMARK  Name = 
REMARK  5 active torsions:
REMARK  status: ('A' for Active; 'I' for Inactive)
REMARK    1  A    between atoms: C_1  and  C_2
REMARK    2  A    between atoms: C_5  and  S_6
REMARK    3  A    between atoms: S_6  and  N_9
REMARK    4  A    between atoms: N_9  and  C_10
REMARK    5  A    between atoms: C_13  and  N_14
REMARK                            x       y       z     vdW  Elec       q    Type
REMARK                         _______ _______ _______ _____ _____    ______ ____
ROOT
ATOM      1  N   UNL     1       4.229   5.695  19.509  0.00  0.00    +0.000 N 
ATOM      2  H   UNL     1       4.751   5.406  20.335  0.00  0.00    +0.000 HD
ENDROOT
BRANCH   1   3
ATOM      3  C   UNL     1       4.797   5.472  18.223  0.00  0.00    +0.000 A 
ATOM      4  C   UNL     1       5.144   4.176  17.832  0.00  0.00    +0.000 A 
ATOM      5  C   UNL     1       5.801   3.959  16.611  0.00  0.00    +0.000 A 
ATOM      6  C   UNL     1       6.101   5.046  15.782  0.00  0.00    +0.000 A 
ATOM      7  C   UNL     1       5.738   6.344  16.165  0.00  0.00    +0.000 A 
ATOM      8  C   UNL     1       5.080   6.548  17.383  0.00  0.00    +0.000 A 
BRANCH   6   9
ATOM      9  N   UNL     1       6.805   4.834  14.510  0.00  0.00    +0.000 N 
ATOM     10  O   UNL     1       7.834   5.492  14.303  0.00  0.00    +0.000 OA
ATOM     11  O   UNL     1       6.326   4.009  13.717  0.00  0.00    +0.000 OA
ENDBRANCH   6   9
ENDBRANCH   1   3
BRANCH   1  12
ATOM     12  S   UNL     1       2.532   5.639  19.660  0.00  0.00    +0.000 S 
ATOM     13  O   UNL     1       2.208   5.199  20.988  0.00  0.00    +0.000 OA
ATOM     14  O   UNL     1       2.022   4.939  18.487  0.00  0.00    +0.000 OA
BRANCH  12  19
ATOM     15  C   UNL     1       0.724  11.401  18.924  0.00  0.00    +0.000 C 
ATOM     16  C   UNL     1       1.167   9.980  19.113  0.00  0.00    +0.000 A 
ATOM     17  C   UNL     1       1.663   9.233  18.040  0.00  0.00    +0.000 A 
ATOM     18  C   UNL     1       2.065   7.912  18.228  0.00  0.00    +0.000 A 
ATOM     19  C   UNL     1       1.999   7.333  19.497  0.00  0.00    +0.000 A 
ATOM     20  C   UNL     1       1.485   8.058  20.578  0.00  0.00    +0.000 A 
ATOM     21  C   UNL     1       1.082   9.385  20.380  0.00  0.00    +0.000 A 
ENDBRANCH  12  19
ENDBRANCH   1  12
TORSDOF 4
ENDMDL
MODEL 6
REMARK VINA RESULT:      -6.9      1.459      2.105
REMARK  Name = 
REMARK  5 active torsions:
REMARK  status: ('A' for Active; 'I' for Inactive)
REMARK    1  A    between atoms: C_1  and  C_2
REMARK    2  A    between atoms: C_5  and  S_6
REMARK    3  A    between atoms: S_6  and  N_9
REMARK    4  A    between atoms: N_9  and  C_10
REMARK    5  A    between atoms: C_13  and  N_14
REMARK                            x       y       z     vdW  Elec       q    Type
REMARK                         _______ _______ _______ _____ _____    ______ ____
ROOT
ATOM      1  N   UNL     1       3.763   2.896  19.620  0.00  0.00    +0.000 N 
ATOM      2  H   UNL     1       3.928   1.893  19.686  0.00  0.00    +0.000 HD
ENDROOT
BRANCH   1   3
ATOM      3  C   UNL     1       4.572   3.670  18.741  0.00  0.00    +0.000 A 
ATOM      4  C   UNL     1       4.561   3.401  17.370  0.00  0.00    +0.000 A 
ATOM      5  C   UNL     1       5.432   4.085  16.509  0.00  0.00    +0.000 A 
ATOM      6  C   UNL     1       6.307   5.046  17.028  0.00  0.00    +0.000 A 
ATOM      7  C   UNL     1       6.307   5.330  18.400  0.00  0.00    +0.000 A 
ATOM      8  C   UNL     1       5.431   4.643  19.248  0.00  0.00    +0.000 A 
BRANCH   6   9
ATOM      9  N   UNL     1       7.237   5.757  16.140  0.00  0.00    +0.000 N 
ATOM     10  O   UNL     1       7.679   6.849  16.521  0.00  0.00    +0.000 OA
ATOM     11  O   UNL     1       7.524   5.222  15.058  0.00  0.00    +0.000 OA
ENDBRANCH   6   9
ENDBRANCH   1   3
BRANCH   1  12
ATOM     12  S   UNL     1       2.153   3.392  19.879  0.00  0.00    +0.000 S 
ATOM     13  O   UNL     1       1.867   3.295  21.283  0.00  0.00    +0.000 OA
ATOM     14  O   UNL     1       1.330   2.703  18.891  0.00  0.00    +0.000 OA
BRANCH  12  19
ATOM     15  C   UNL     1       2.018   9.231  18.178  0.00  0.00    +0.000 C 
ATOM     16  C   UNL     1       2.050   7.793  18.605  0.00  0.00    +0.000 A 
ATOM     17  C   UNL     1       2.046   6.763  17.661  0.00  0.00    +0.000 A 
ATOM     18  C   UNL     1       2.069   5.431  18.070  0.00  0.00    +0.000 A 
ATOM     19  C   UNL     1       2.123   5.117  19.430  0.00  0.00    +0.000 A 
ATOM     20  C   UNL     1       2.107   6.135  20.391  0.00  0.00    +0.000 A 
ATOM     21  C   UNL     1       2.082   7.470  19.969  0.00  0.00    +0.000 A 
ENDBRANCH  12  19
ENDBRANCH   1  12
TORSDOF 4
ENDMDL
MODEL 7
REMARK VINA RESULT:      -6.9      3.527      5.408
REMARK  Name = 
REMARK  5 active torsions:
REMARK  status: ('A' for Active; 'I' for Inactive)
REMARK    1  A    between atoms: C_1  and  C_2
REMARK    2  A    between atoms: C_5  and  S_6
REMARK    3  A    between atoms: S_6  and  N_9
REMARK    4  A    between atoms: N_9  and  C_10
REMARK    5  A    between atoms: C_13  and  N_14
REMARK                            x       y       z     vdW  Elec       q    Type
REMARK                         _______ _______ _______ _____ _____    ______ ____
ROOT
ATOM      1  N   UNL     1       6.907   6.207  15.935  0.00  0.00    +0.000 N 
ATOM      2  H   UNL     1       7.394   7.063  15.674  0.00  0.00    +0.000 HD
ENDROOT
BRANCH   1   3
ATOM      3  C   UNL     1       6.603   5.252  14.924  0.00  0.00    +0.000 A 
ATOM      4  C   UNL     1       7.462   5.101  13.832  0.00  0.00    +0.000 A 
ATOM      5  C   UNL     1       7.118   4.240  12.778  0.00  0.00    +0.000 A 
ATOM      6  C   UNL     1       5.915   3.527  12.829  0.00  0.00    +0.000 A 
ATOM      7  C   UNL     1       5.062   3.664  13.932  0.00  0.00    +0.000 A 
ATOM      8  C   UNL     1       5.417   4.523  14.978  0.00  0.00    +0.000 A 
BRANCH   6   9
ATOM      9  N   UNL     1       5.535   2.636  11.724  0.00  0.00    +0.000 N 
ATOM     10  O   UNL     1       4.407   2.773  11.233  0.00  0.00    +0.000 OA
ATOM     11  O   UNL     1       6.368   1.796  11.349  0.00  0.00    +0.000 OA
ENDBRANCH   6   9
ENDBRANCH   1   3
BRANCH   1  12
ATOM     12  S   UNL     1       7.219   5.639  17.511  0.00  0.00    +0.000 S 
ATOM     13  O   UNL     1       7.801   6.708  18.273  0.00  0.00    +0.000 OA
ATOM     14  O   UNL     1       7.895   4.354  17.375  0.00  0.00    +0.000 OA
BRANCH  12  19
ATOM     15  C   UNL     1       1.675   4.568  19.773  0.00  0.00    +0.000 C 
ATOM     16  C   UNL     1       3.045   4.824  19.217  0.00  0.00    +0.000 A 
ATOM     17  C   UNL     1       3.328   6.002  18.519  0.00  0.00    +0.000 A 
ATOM     18  C   UNL     1       4.602   6.225  18.002  0.00  0.00    +0.000 A 
ATOM     19  C   UNL     1       5.614   5.284  18.200  0.00  0.00    +0.000 A 
ATOM     20  C   UNL     1       5.344   4.089  18.878  0.00  0.00    +0.000 A 
ATOM     21  C   UNL     1       4.059   3.873  19.393  0.00  0.00    +0.000 A 
ENDBRANCH  12  19
ENDBRANCH   1  12
TORSDOF 4
ENDMDL
MODEL 8
REMARK VINA RESULT:      -6.9      3.289      5.337
REMARK  Name = 
REMARK  5 active torsions:
REMARK  status: ('A' for Active; 'I' for Inactive)
REMARK    1  A    between atoms: C_1  and  C_2
REMARK    2  A    between atoms: C_5  and  S_6
REMARK    3  A    between atoms: S_6  and  N_9
REMARK    4  A    between atoms: N_9  and  C_10
REMARK    5  A    between atoms: C_13  and  N_14
REMARK                            x       y       z     vdW  Elec       q    Type
REMARK                         _______ _______ _______ _____ _____    ______ ____
ROOT
ATOM      1  N   UNL     1       7.631   5.054  16.685  0.00  0.00    +0.000 N 
ATOM      2  H   UNL     1       8.101   4.356  17.260  0.00  0.00    +0.000 HD
ENDROOT
BRANCH   1   3
ATOM      3  C   UNL     1       6.979   4.636  15.491  0.00  0.00    +0.000 A 
ATOM      4  C   UNL     1       5.844   3.825  15.567  0.00  0.00    +0.000 A 
ATOM      5  C   UNL     1       5.257   3.321  14.396  0.00  0.00    +0.000 A 
ATOM      6  C   UNL     1       5.809   3.640  13.151  0.00  0.00    +0.000 A 
ATOM      7  C   UNL     1       6.937   4.468  13.072  0.00  0.00    +0.000 A 
ATOM      8  C   UNL     1       7.511   4.967  14.246  0.00  0.00    +0.000 A 
BRANCH   6   9
ATOM      9  N   UNL     1       5.215   3.104  11.918  0.00  0.00    +0.000 N 
ATOM     10  O   UNL     1       4.285   3.738  11.402  0.00  0.00    +0.000 OA
ATOM     11  O   UNL     1       5.678   2.045  11.469  0.00  0.00    +0.000 OA
ENDBRANCH   6   9
ENDBRANCH   1   3
BRANCH   1  12
ATOM     12  S   UNL     1       6.985   6.385  17.532  0.00  0.00    +0.000 S 
ATOM     13  O   UNL     1       6.709   7.433  16.590  0.00  0.00    +0.000 OA
ATOM     14  O   UNL     1       7.845   6.615  18.687  0.00  0.00    +0.000 OA
BRANCH  12  19
ATOM     15  C   UNL     1       1.588   4.508  19.622  0.00  0.00    +0.000 C 
ATOM     16  C   UNL     1       2.923   4.965  19.110  0.00  0.00    +0.000 A 
ATOM     17  C   UNL     1       3.018   5.989  18.163  0.00  0.00    +0.000 A 
ATOM     18  C   UNL     1       4.263   6.399  17.691  0.00  0.00    +0.000 A 
ATOM     19  C   UNL     1       5.428   5.806  18.181  0.00  0.00    +0.000 A 
ATOM     20  C   UNL     1       5.352   4.765  19.113  0.00  0.00    +0.000 A 
ATOM     21  C   UNL     1       4.096   4.358  19.581  0.00  0.00    +0.000 A 
ENDBRANCH  12  19
ENDBRANCH   1  12
TORSDOF 4
ENDMDL
MODEL 9
REMARK VINA RESULT:      -6.9      3.467      5.882
REMARK  Name = 
REMARK  5 active torsions:
REMARK  status: ('A' for Active; 'I' for Inactive)
REMARK    1  A    between atoms: C_1  and  C_2
REMARK    2  A    between atoms: C_5  and  S_6
REMARK    3  A    between atoms: S_6  and  N_9
REMARK    4  A    between atoms: N_9  and  C_10
REMARK    5  A    between atoms: C_13  and  N_14
REMARK                            x       y       z     vdW  Elec       q    Type
REMARK                         _______ _______ _______ _____ _____    ______ ____
ROOT
ATOM      1  N   UNL     1       3.329   4.684  18.906  0.00  0.00    +0.000 N 
ATOM      2  H   UNL     1       2.726   3.925  19.222  0.00  0.00    +0.000 HD
ENDROOT
BRANCH   1   3
ATOM      3  C   UNL     1       2.863   6.024  19.018  0.00  0.00    +0.000 A 
ATOM      4  C   UNL     1       2.230   6.444  20.190  0.00  0.00    +0.000 A 
ATOM      5  C   UNL     1       1.674   7.730  20.271  0.00  0.00    +0.000 A 
ATOM      6  C   UNL     1       1.763   8.594  19.173  0.00  0.00    +0.000 A 
ATOM      7  C   UNL     1       2.414   8.180  18.004  0.00  0.00    +0.000 A 
ATOM      8  C   UNL     1       2.967   6.898  17.936  0.00  0.00    +0.000 A 
BRANCH   6   9
ATOM      9  N   UNL     1       1.169   9.937  19.238  0.00  0.00    +0.000 N 
ATOM     10  O   UNL     1       0.224  10.113  20.019  0.00  0.00    +0.000 OA
ATOM     11  O   UNL     1       1.649  10.815  18.505  0.00  0.00    +0.000 OA
ENDBRANCH   6   9
ENDBRANCH   1   3
BRANCH   1  12
ATOM     12  S   UNL     1       5.002   4.398  19.052  0.00  0.00    +0.000 S 
ATOM     13  O   UNL     1       5.194   3.075  19.578  0.00  0.00    +0.000 OA
ATOM     14  O   UNL     1       5.579   5.564  19.711  0.00  0.00    +0.000 OA
BRANCH  12  19
ATOM     15  C   UNL     1       6.945   4.443  13.287  0.00  0.00    +0.000 C 
ATOM     16  C   UNL     1       6.473   4.436  14.711  0.00  0.00    +0.000 A 
ATOM     17  C   UNL     1       5.162   4.070  15.032  0.00  0.00    +0.000 A 
ATOM     18  C   UNL     1       4.734   4.073  16.357  0.00  0.00    +0.000 A 
ATOM     19  C   UNL     1       5.621   4.418  17.379  0.00  0.00    +0.000 A 
ATOM     20  C   UNL     1       6.931   4.808  17.076  0.00  0.00    +0.000 A 
ATOM     21  C   UNL     1       7.352   4.803  15.740  0.00  0.00    +0.000 A 
ENDBRANCH  12  19
ENDBRANCH   1  12
TORSDOF 4
ENDMDL
