MODEL 1
REMARK VINA RESULT:      -9.1      0.000      0.000
REMARK  Name = 
REMARK  4 active torsions:
REMARK  status: ('A' for Active; 'I' for Inactive)
REMARK    1  A    between atoms: C_1  and  C_2
REMARK    2  A    between atoms: C_5  and  C_6
REMARK    3  A    between atoms: C_21  and  C_22
REMARK    4  A    between atoms: C_21  and  C_23
REMARK                            x       y       z     vdW  Elec       q    Type
REMARK                         _______ _______ _______ _____ _____    ______ ____
ROOT
ATOM      1  C   UNL     1       1.914   6.311  20.207  0.00  0.00    +0.000 C 
ATOM      2  O   UNL     1       1.304   5.930  21.210  0.00  0.00    +0.000 OA
ATOM      3  N   UNL     1       1.919   7.647  19.782  0.00  0.00    +0.000 N 
ATOM      4  C   UNL     1       2.596   8.145  18.578  0.00  0.00    +0.000 C 
ATOM      5  C   UNL     1       1.614   8.837  17.659  0.00  0.00    +0.000 C 
ATOM      6  C   UNL     1       1.128  10.092  18.348  0.00  0.00    +0.000 C 
ATOM      7  C   UNL     1       0.794   9.853  19.800  0.00  0.00    +0.000 A 
ATOM      8  C   UNL     1       0.074  10.861  20.467  0.00  0.00    +0.000 A 
ATOM      9  C   UNL     1      -0.274  10.719  21.806  0.00  0.00    +0.000 A 
ATOM     10  C   UNL     1       0.110   9.577  22.494  0.00  0.00    +0.000 A 
ATOM     11  C   UNL     1       0.833   8.572  21.843  0.00  0.00    +0.000 A 
ATOM     12  C   UNL     1       1.181   8.678  20.488  0.00  0.00    +0.000 A 
ENDROOT
BRANCH   1  17
ATOM     13  C   UNL     1       3.388   1.654  18.586  0.00  0.00    +0.000 C 
ATOM     14  C   UNL     1       3.212   3.151  18.677  0.00  0.00    +0.000 C 
ATOM     15  C   UNL     1       2.672   3.809  17.391  0.00  0.00    +0.000 C 
ATOM     16  C   UNL     1       2.222   5.202  17.871  0.00  0.00    +0.000 C 
ATOM     17  C   UNL     1       2.636   5.237  19.373  0.00  0.00    +0.000 C 
ATOM     18  C   UNL     1       4.186   5.280  19.489  0.00  0.00    +0.000 C 
ATOM     19  C   UNL     1       4.509   3.899  18.973  0.00  0.00    +0.000 C 
ATOM     20  O   UNL     1       5.638   3.481  18.779  0.00  0.00    +0.000 OA
ATOM     21  C   UNL     1       2.309   3.735  19.799  0.00  0.00    +0.000 C 
ATOM     22  C   UNL     1       2.761   3.327  21.223  0.00  0.00    +0.000 C 
ATOM     23  C   UNL     1       0.831   3.296  19.668  0.00  0.00    +0.000 C 
ENDBRANCH   1  17
TORSDOF 1
ENDMDL
MODEL 2
REMARK VINA RESULT:      -8.2      0.904      1.213
REMARK  Name = 
REMARK  4 active torsions:
REMARK  status: ('A' for Active; 'I' for Inactive)
REMARK    1  A    between atoms: C_1  and  C_2
REMARK    2  A    between atoms: C_5  and  C_6
REMARK    3  A    between atoms: C_21  and  C_22
REMARK    4  A    between atoms: C_21  and  C_23
REMARK                            x       y       z     vdW  Elec       q    Type
REMARK                         _______ _______ _______ _____ _____    ______ ____
ROOT
ATOM      1  C   UNL     1       2.173   6.080  20.264  0.00  0.00    +0.000 C 
ATOM      2  O   UNL     1       1.491   5.773  21.247  0.00  0.00    +0.000 OA
ATOM      3  N   UNL     1       2.165   7.366  19.706  0.00  0.00    +0.000 N 
ATOM      4  C   UNL     1       2.926   7.772  18.518  0.00  0.00    +0.000 C 
ATOM      5  C   UNL     1       2.005   8.323  17.453  0.00  0.00    +0.000 C 
ATOM      6  C   UNL     1       1.412   9.617  17.965  0.00  0.00    +0.000 C 
ATOM      7  C   UNL     1       0.960   9.508  19.400  0.00  0.00    +0.000 A 
ATOM      8  C   UNL     1       0.146  10.543  19.897  0.00  0.00    +0.000 A 
ATOM      9  C   UNL     1      -0.314  10.519  21.209  0.00  0.00    +0.000 A 
ATOM     10  C   UNL     1       0.050   9.470  22.042  0.00  0.00    +0.000 A 
ATOM     11  C   UNL     1       0.866   8.440  21.561  0.00  0.00    +0.000 A 
ATOM     12  C   UNL     1       1.329   8.427  20.237  0.00  0.00    +0.000 A 
ENDROOT
BRANCH   1  17
ATOM     13  C   UNL     1       3.272   1.863  17.527  0.00  0.00    +0.000 C 
ATOM     14  C   UNL     1       3.429   3.119  18.350  0.00  0.00    +0.000 C 
ATOM     15  C   UNL     1       4.335   4.191  17.712  0.00  0.00    +0.000 C 
ATOM     16  C   UNL     1       4.005   5.460  18.522  0.00  0.00    +0.000 C 
ATOM     17  C   UNL     1       3.006   4.963  19.610  0.00  0.00    +0.000 C 
ATOM     18  C   UNL     1       3.747   4.048  20.626  0.00  0.00    +0.000 C 
ATOM     19  C   UNL     1       4.042   2.872  19.726  0.00  0.00    +0.000 C 
ATOM     20  O   UNL     1       4.711   1.906  20.050  0.00  0.00    +0.000 OA
ATOM     21  C   UNL     1       2.157   3.909  18.766  0.00  0.00    +0.000 C 
ATOM     22  C   UNL     1       1.146   3.060  19.574  0.00  0.00    +0.000 C 
ATOM     23  C   UNL     1       1.380   4.476  17.554  0.00  0.00    +0.000 C 
ENDBRANCH   1  17
TORSDOF 1
ENDMDL
MODEL 3
REMARK VINA RESULT:      -7.5      1.312      1.719
REMARK  Name = 
REMARK  4 active torsions:
REMARK  status: ('A' for Active; 'I' for Inactive)
REMARK    1  A    between atoms: C_1  and  C_2
REMARK    2  A    between atoms: C_5  and  C_6
REMARK    3  A    between atoms: C_21  and  C_22
REMARK    4  A    between atoms: C_21  and  C_23
REMARK                            x       y       z     vdW  Elec       q    Type
REMARK                         _______ _______ _______ _____ _____    ______ ____
ROOT
ATOM      1  C   UNL     1       2.140   6.660  19.629  0.00  0.00    +0.000 C 
ATOM      2  O   UNL     1       1.877   6.064  20.678  0.00  0.00    +0.000 OA
ATOM      3  N   UNL     1       1.849   8.018  19.433  0.00  0.00    +0.000 N 
ATOM      4  C   UNL     1       2.106   8.763  18.194  0.00  0.00    +0.000 C 
ATOM      5  C   UNL     1       0.830   9.377  17.663  0.00  0.00    +0.000 C 
ATOM      6  C   UNL     1       0.377  10.440  18.641  0.00  0.00    +0.000 C 
ATOM      7  C   UNL     1       0.478   9.978  20.073  0.00  0.00    +0.000 A 
ATOM      8  C   UNL     1      -0.170  10.761  21.046  0.00  0.00    +0.000 A 
ATOM      9  C   UNL     1      -0.127  10.404  22.390  0.00  0.00    +0.000 A 
ATOM     10  C   UNL     1       0.579   9.273  22.775  0.00  0.00    +0.000 A 
ATOM     11  C   UNL     1       1.234   8.492  21.816  0.00  0.00    +0.000 A 
ATOM     12  C   UNL     1       1.191   8.815  20.451  0.00  0.00    +0.000 A 
ENDROOT
BRANCH   1  17
ATOM     13  C   UNL     1       5.087   3.179  17.245  0.00  0.00    +0.000 C 
ATOM     14  C   UNL     1       4.050   4.246  17.499  0.00  0.00    +0.000 C 
ATOM     15  C   UNL     1       2.630   3.882  17.021  0.00  0.00    +0.000 C 
ATOM     16  C   UNL     1       1.740   4.916  17.737  0.00  0.00    +0.000 C 
ATOM     17  C   UNL     1       2.755   5.833  18.486  0.00  0.00    +0.000 C 
ATOM     18  C   UNL     1       3.560   6.675  17.456  0.00  0.00    +0.000 C 
ATOM     19  C   UNL     1       4.357   5.570  16.806  0.00  0.00    +0.000 C 
ATOM     20  O   UNL     1       5.089   5.723  15.843  0.00  0.00    +0.000 OA
ATOM     21  C   UNL     1       3.832   4.754  18.952  0.00  0.00    +0.000 C 
ATOM     22  C   UNL     1       5.118   5.324  19.600  0.00  0.00    +0.000 C 
ATOM     23  C   UNL     1       3.319   3.646  19.903  0.00  0.00    +0.000 C 
ENDBRANCH   1  17
TORSDOF 1
ENDMDL
MODEL 4
REMARK VINA RESULT:      -7.5      0.932      1.128
REMARK  Name = 
REMARK  4 active torsions:
REMARK  status: ('A' for Active; 'I' for Inactive)
REMARK    1  A    between atoms: C_1  and  C_2
REMARK    2  A    between atoms: C_5  and  C_6
REMARK    3  A    between atoms: C_21  and  C_22
REMARK    4  A    between atoms: C_21  and  C_23
REMARK                            x       y       z     vdW  Elec       q    Type
REMARK                         _______ _______ _______ _____ _____    ______ ____
ROOT
ATOM      1  C   UNL     1       2.380   6.654  19.980  0.00  0.00    +0.000 C 
ATOM      2  O   UNL     1       1.948   6.094  20.992  0.00  0.00    +0.000 OA
ATOM      3  N   UNL     1       2.029   7.966  19.629  0.00  0.00    +0.000 N 
ATOM      4  C   UNL     1       2.483   8.663  18.420  0.00  0.00    +0.000 C 
ATOM      5  C   UNL     1       1.305   9.125  17.593  0.00  0.00    +0.000 C 
ATOM      6  C   UNL     1       0.570  10.192  18.375  0.00  0.00    +0.000 C 
ATOM      7  C   UNL     1       0.401   9.820  19.826  0.00  0.00    +0.000 A 
ATOM      8  C   UNL     1      -0.501  10.591  20.585  0.00  0.00    +0.000 A 
ATOM      9  C   UNL     1      -0.715  10.314  21.930  0.00  0.00    +0.000 A 
ATOM     10  C   UNL     1      -0.020   9.276  22.535  0.00  0.00    +0.000 A 
ATOM     11  C   UNL     1       0.885   8.509  21.792  0.00  0.00    +0.000 A 
ATOM     12  C   UNL     1       1.108   8.752  20.428  0.00  0.00    +0.000 A 
ENDROOT
BRANCH   1  17
ATOM     13  C   UNL     1       3.961   2.771  16.995  0.00  0.00    +0.000 C 
ATOM     14  C   UNL     1       3.908   4.100  17.710  0.00  0.00    +0.000 C 
ATOM     15  C   UNL     1       4.055   5.327  16.788  0.00  0.00    +0.000 C 
ATOM     16  C   UNL     1       3.576   6.493  17.672  0.00  0.00    +0.000 C 
ATOM     17  C   UNL     1       3.288   5.827  19.052  0.00  0.00    +0.000 C 
ATOM     18  C   UNL     1       4.625   5.379  19.708  0.00  0.00    +0.000 C 
ATOM     19  C   UNL     1       5.008   4.274  18.754  0.00  0.00    +0.000 C 
ATOM     20  O   UNL     1       6.060   3.661  18.795  0.00  0.00    +0.000 OA
ATOM     21  C   UNL     1       2.664   4.438  18.579  0.00  0.00    +0.000 C 
ATOM     22  C   UNL     1       2.402   3.402  19.700  0.00  0.00    +0.000 C 
ATOM     23  C   UNL     1       1.360   4.523  17.751  0.00  0.00    +0.000 C 
ENDBRANCH   1  17
TORSDOF 1
ENDMDL
MODEL 5
REMARK VINA RESULT:      -7.3      3.482      6.437
REMARK  Name = 
REMARK  4 active torsions:
REMARK  status: ('A' for Active; 'I' for Inactive)
REMARK    1  A    between atoms: C_1  and  C_2
REMARK    2  A    between atoms: C_5  and  C_6
REMARK    3  A    between atoms: C_21  and  C_22
REMARK    4  A    between atoms: C_21  and  C_23
REMARK                            x       y       z     vdW  Elec       q    Type
REMARK                         _______ _______ _______ _____ _____    ______ ____
ROOT
ATOM      1  C   UNL     1       3.664   3.938  17.024  0.00  0.00    +0.000 C 
ATOM      2  O   UNL     1       3.453   3.017  16.229  0.00  0.00    +0.000 OA
ATOM      3  N   UNL     1       4.676   4.889  16.833  0.00  0.00    +0.000 N 
ATOM      4  C   UNL     1       4.992   5.979  17.765  0.00  0.00    +0.000 C 
ATOM      5  C   UNL     1       6.437   5.907  18.204  0.00  0.00    +0.000 C 
ATOM      6  C   UNL     1       7.310   6.190  17.001  0.00  0.00    +0.000 C 
ATOM      7  C   UNL     1       6.837   5.461  15.769  0.00  0.00    +0.000 A 
ATOM      8  C   UNL     1       7.717   5.420  14.671  0.00  0.00    +0.000 A 
ATOM      9  C   UNL     1       7.357   4.768  13.496  0.00  0.00    +0.000 A 
ATOM     10  C   UNL     1       6.111   4.166  13.402  0.00  0.00    +0.000 A 
ATOM     11  C   UNL     1       5.225   4.208  14.485  0.00  0.00    +0.000 A 
ATOM     12  C   UNL     1       5.567   4.841  15.689  0.00  0.00    +0.000 A 
ENDROOT
BRANCH   1  17
ATOM     13  C   UNL     1       2.004   2.768  21.753  0.00  0.00    +0.000 C 
ATOM     14  C   UNL     1       2.149   3.445  20.411  0.00  0.00    +0.000 C 
ATOM     15  C   UNL     1       2.356   4.971  20.485  0.00  0.00    +0.000 C 
ATOM     16  C   UNL     1       2.860   5.328  19.074  0.00  0.00    +0.000 C 
ATOM     17  C   UNL     1       2.803   3.976  18.300  0.00  0.00    +0.000 C 
ATOM     18  C   UNL     1       1.321   3.560  18.078  0.00  0.00    +0.000 C 
ATOM     19  C   UNL     1       0.932   3.268  19.507  0.00  0.00    +0.000 C 
ATOM     20  O   UNL     1      -0.197   2.988  19.870  0.00  0.00    +0.000 OA
ATOM     21  C   UNL     1       3.267   2.966  19.443  0.00  0.00    +0.000 C 
ATOM     22  C   UNL     1       3.170   1.462  19.092  0.00  0.00    +0.000 C 
ATOM     23  C   UNL     1       4.689   3.190  20.014  0.00  0.00    +0.000 C 
ENDBRANCH   1  17
TORSDOF 1
ENDMDL
MODEL 6
REMARK VINA RESULT:      -7.2      2.667      3.941
REMARK  Name = 
REMARK  4 active torsions:
REMARK  status: ('A' for Active; 'I' for Inactive)
REMARK    1  A    between atoms: C_1  and  C_2
REMARK    2  A    between atoms: C_5  and  C_6
REMARK    3  A    between atoms: C_21  and  C_22
REMARK    4  A    between atoms: C_21  and  C_23
REMARK                            x       y       z     vdW  Elec       q    Type
REMARK                         _______ _______ _______ _____ _____    ______ ____
ROOT
ATOM      1  C   UNL     1       3.657   7.230  17.692  0.00  0.00    +0.000 C 
ATOM      2  O   UNL     1       3.883   8.416  17.435  0.00  0.00    +0.000 OA
ATOM      3  N   UNL     1       2.677   6.825  18.610  0.00  0.00    +0.000 N 
ATOM      4  C   UNL     1       2.394   5.432  18.979  0.00  0.00    +0.000 C 
ATOM      5  C   UNL     1       2.536   5.233  20.471  0.00  0.00    +0.000 C 
ATOM      6  C   UNL     1       1.443   6.022  21.158  0.00  0.00    +0.000 C 
ATOM      7  C   UNL     1       1.280   7.402  20.572  0.00  0.00    +0.000 A 
ATOM      8  C   UNL     1       0.500   8.320  21.299  0.00  0.00    +0.000 A 
ATOM      9  C   UNL     1       0.300   9.613  20.828  0.00  0.00    +0.000 A 
ATOM     10  C   UNL     1       0.864   9.995  19.619  0.00  0.00    +0.000 A 
ATOM     11  C   UNL     1       1.636   9.088  18.884  0.00  0.00    +0.000 A 
ATOM     12  C   UNL     1       1.871   7.783  19.343  0.00  0.00    +0.000 A 
ENDROOT
BRANCH   1  17
ATOM     13  C   UNL     1       7.743   4.235  16.784  0.00  0.00    +0.000 C 
ATOM     14  C   UNL     1       6.368   4.852  16.688  0.00  0.00    +0.000 C 
ATOM     15  C   UNL     1       5.207   3.839  16.765  0.00  0.00    +0.000 C 
ATOM     16  C   UNL     1       3.981   4.729  17.045  0.00  0.00    +0.000 C 
ATOM     17  C   UNL     1       4.550   6.179  17.008  0.00  0.00    +0.000 C 
ATOM     18  C   UNL     1       4.960   6.546  15.553  0.00  0.00    +0.000 C 
ATOM     19  C   UNL     1       6.129   5.607  15.384  0.00  0.00    +0.000 C 
ATOM     20  O   UNL     1       6.744   5.452  14.343  0.00  0.00    +0.000 OA
ATOM     21  C   UNL     1       5.965   5.954  17.708  0.00  0.00    +0.000 C 
ATOM     22  C   UNL     1       6.920   7.172  17.701  0.00  0.00    +0.000 C 
ATOM     23  C   UNL     1       5.929   5.436  19.166  0.00  0.00    +0.000 C 
ENDBRANCH   1  17
TORSDOF 1
ENDMDL
MODEL 7
REMARK VINA RESULT:      -7.1      3.585      6.494
REMARK  Name = 
REMARK  4 active torsions:
REMARK  status: ('A' for Active; 'I' for Inactive)
REMARK    1  A    between atoms: C_1  and  C_2
REMARK    2  A    between atoms: C_5  and  C_6
REMARK    3  A    between atoms: C_21  and  C_22
REMARK    4  A    between atoms: C_21  and  C_23
REMARK                            x       y       z     vdW  Elec       q    Type
REMARK                         _______ _______ _______ _____ _____    ______ ____
ROOT
ATOM      1  C   UNL     1       4.309   3.647  17.420  0.00  0.00    +0.000 C 
ATOM      2  O   UNL     1       4.101   2.635  16.745  0.00  0.00    +0.000 OA
ATOM      3  N   UNL     1       5.118   4.703  16.977  0.00  0.00    +0.000 N 
ATOM      4  C   UNL     1       5.427   5.909  17.755  0.00  0.00    +0.000 C 
ATOM      5  C   UNL     1       6.922   6.073  17.918  0.00  0.00    +0.000 C 
ATOM      6  C   UNL     1       7.517   6.355  16.556  0.00  0.00    +0.000 C 
ATOM      7  C   UNL     1       6.948   5.455  15.488  0.00  0.00    +0.000 A 
ATOM      8  C   UNL     1       7.616   5.428  14.249  0.00  0.00    +0.000 A 
ATOM      9  C   UNL     1       7.156   4.624  13.211  0.00  0.00    +0.000 A 
ATOM     10  C   UNL     1       6.016   3.855  13.395  0.00  0.00    +0.000 A 
ATOM     11  C   UNL     1       5.340   3.880  14.620  0.00  0.00    +0.000 A 
ATOM     12  C   UNL     1       5.791   4.666  15.691  0.00  0.00    +0.000 A 
ENDROOT
BRANCH   1  17
ATOM     13  C   UNL     1       0.896   2.951  21.210  0.00  0.00    +0.000 C 
ATOM     14  C   UNL     1       2.160   3.313  20.467  0.00  0.00    +0.000 C 
ATOM     15  C   UNL     1       3.440   2.662  21.030  0.00  0.00    +0.000 C 
ATOM     16  C   UNL     1       4.465   2.860  19.897  0.00  0.00    +0.000 C 
ATOM     17  C   UNL     1       3.691   3.691  18.830  0.00  0.00    +0.000 C 
ATOM     18  C   UNL     1       3.438   5.129  19.365  0.00  0.00    +0.000 C 
ATOM     19  C   UNL     1       2.461   4.810  20.471  0.00  0.00    +0.000 C 
ATOM     20  O   UNL     1       2.029   5.625  21.267  0.00  0.00    +0.000 OA
ATOM     21  C   UNL     1       2.244   3.032  18.941  0.00  0.00    +0.000 C 
ATOM     22  C   UNL     1       1.124   3.727  18.128  0.00  0.00    +0.000 C 
ATOM     23  C   UNL     1       2.154   1.524  18.604  0.00  0.00    +0.000 C 
ENDBRANCH   1  17
TORSDOF 1
ENDMDL
MODEL 8
REMARK VINA RESULT:      -7.0      1.506      2.943
REMARK  Name = 
REMARK  4 active torsions:
REMARK  status: ('A' for Active; 'I' for Inactive)
REMARK    1  A    between atoms: C_1  and  C_2
REMARK    2  A    between atoms: C_5  and  C_6
REMARK    3  A    between atoms: C_21  and  C_22
REMARK    4  A    between atoms: C_21  and  C_23
REMARK                            x       y       z     vdW  Elec       q    Type
REMARK                         _______ _______ _______ _____ _____    ______ ____
ROOT
ATOM      1  C   UNL     1       3.050   6.808  18.825  0.00  0.00    +0.000 C 
ATOM      2  O   UNL     1       3.783   7.331  17.981  0.00  0.00    +0.000 OA
ATOM      3  N   UNL     1       1.999   7.495  19.450  0.00  0.00    +0.000 N 
ATOM      4  C   UNL     1       1.124   6.932  20.485  0.00  0.00    +0.000 C 
ATOM      5  C   UNL     1       1.172   7.770  21.743  0.00  0.00    +0.000 C 
ATOM      6  C   UNL     1       0.555   9.117  21.436  0.00  0.00    +0.000 C 
ATOM      7  C   UNL     1       1.025   9.672  20.115  0.00  0.00    +0.000 A 
ATOM      8  C   UNL     1       0.745  11.026  19.852  0.00  0.00    +0.000 A 
ATOM      9  C   UNL     1       1.145  11.616  18.658  0.00  0.00    +0.000 A 
ATOM     10  C   UNL     1       1.812  10.855  17.709  0.00  0.00    +0.000 A 
ATOM     11  C   UNL     1       2.088   9.506  17.956  0.00  0.00    +0.000 A 
ATOM     12  C   UNL     1       1.715   8.888  19.159  0.00  0.00    +0.000 A 
ENDROOT
BRANCH   1  17
ATOM     13  C   UNL     1       3.385   1.681  18.532  0.00  0.00    +0.000 C 
ATOM     14  C   UNL     1       3.531   3.101  19.023  0.00  0.00    +0.000 C 
ATOM     15  C   UNL     1       4.982   3.525  19.326  0.00  0.00    +0.000 C 
ATOM     16  C   UNL     1       4.891   5.061  19.408  0.00  0.00    +0.000 C 
ATOM     17  C   UNL     1       3.371   5.359  19.234  0.00  0.00    +0.000 C 
ATOM     18  C   UNL     1       2.593   4.867  20.487  0.00  0.00    +0.000 C 
ATOM     19  C   UNL     1       2.774   3.377  20.319  0.00  0.00    +0.000 C 
ATOM     20  O   UNL     1       2.411   2.543  21.129  0.00  0.00    +0.000 OA
ATOM     21  C   UNL     1       2.982   4.261  18.145  0.00  0.00    +0.000 C 
ATOM     22  C   UNL     1       1.472   4.130  17.832  0.00  0.00    +0.000 C 
ATOM     23  C   UNL     1       3.702   4.371  16.779  0.00  0.00    +0.000 C 
ENDBRANCH   1  17
TORSDOF 1
ENDMDL
MODEL 9
REMARK VINA RESULT:      -6.8      3.625      6.886
REMARK  Name = 
REMARK  4 active torsions:
REMARK  status: ('A' for Active; 'I' for Inactive)
REMARK    1  A    between atoms: C_1  and  C_2
REMARK    2  A    between atoms: C_5  and  C_6
REMARK    3  A    between atoms: C_21  and  C_22
REMARK    4  A    between atoms: C_21  and  C_23
REMARK                            x       y       z     vdW  Elec       q    Type
REMARK                         _______ _______ _______ _____ _____    ______ ____
ROOT
ATOM      1  C   UNL     1       4.256   4.012  16.655  0.00  0.00    +0.000 C 
ATOM      2  O   UNL     1       3.872   2.978  16.102  0.00  0.00    +0.000 OA
ATOM      3  N   UNL     1       5.198   4.877  16.080  0.00  0.00    +0.000 N 
ATOM      4  C   UNL     1       5.715   6.098  16.711  0.00  0.00    +0.000 C 
ATOM      5  C   UNL     1       7.222   6.046  16.823  0.00  0.00    +0.000 C 
ATOM      6  C   UNL     1       7.801   6.085  15.426  0.00  0.00    +0.000 C 
ATOM      7  C   UNL     1       7.062   5.174  14.477  0.00  0.00    +0.000 A 
ATOM      8  C   UNL     1       7.671   4.911  13.236  0.00  0.00    +0.000 A 
ATOM      9  C   UNL     1       7.057   4.081  12.304  0.00  0.00    +0.000 A 
ATOM     10  C   UNL     1       5.822   3.521  12.597  0.00  0.00    +0.000 A 
ATOM     11  C   UNL     1       5.204   3.782  13.825  0.00  0.00    +0.000 A 
ATOM     12  C   UNL     1       5.808   4.599  14.793  0.00  0.00    +0.000 A 
ENDROOT
BRANCH   1  17
ATOM     13  C   UNL     1       1.041   3.976  20.674  0.00  0.00    +0.000 C 
ATOM     14  C   UNL     1       2.262   4.210  19.817  0.00  0.00    +0.000 C 
ATOM     15  C   UNL     1       3.578   3.681  20.422  0.00  0.00    +0.000 C 
ATOM     16  C   UNL     1       4.544   3.682  19.222  0.00  0.00    +0.000 C 
ATOM     17  C   UNL     1       3.706   4.302  18.063  0.00  0.00    +0.000 C 
ATOM     18  C   UNL     1       3.454   5.810  18.347  0.00  0.00    +0.000 C 
ATOM     19  C   UNL     1       2.536   5.685  19.540  0.00  0.00    +0.000 C 
ATOM     20  O   UNL     1       2.129   6.627  20.198  0.00  0.00    +0.000 OA
ATOM     21  C   UNL     1       2.277   3.661  18.362  0.00  0.00    +0.000 C 
ATOM     22  C   UNL     1       1.108   4.191  17.497  0.00  0.00    +0.000 C 
ATOM     23  C   UNL     1       2.197   2.117  18.304  0.00  0.00    +0.000 C 
ENDBRANCH   1  17
TORSDOF 1
ENDMDL
