MODEL 1
REMARK VINA RESULT:      -6.6      0.000      0.000
REMARK  Name = 
REMARK  5 active torsions:
REMARK  status: ('A' for Active; 'I' for Inactive)
REMARK    1  A    between atoms: C_1  and  O_2
REMARK    2  A    between atoms: O_2  and  C_3
REMARK    3  A    between atoms: C_6  and  C_7
REMARK    4  A    between atoms: N_9  and  C_10
REMARK    5  A    between atoms: C_27  and  C_28
REMARK                            x       y       z     vdW  Elec       q    Type
REMARK                         _______ _______ _______ _____ _____    ______ ____
ROOT
ATOM      1  C   UNL     1       1.023  14.321  19.238  0.00  0.00    +0.000 C 
ATOM      2  N   UNL     1       0.439  13.380  18.543  0.00  0.00    +0.000 NA
ATOM      3  N   UNL     1      -0.851  13.185  19.103  0.00  0.00    +0.000 N 
ATOM      4  C   UNL     1      -0.780  13.709  20.549  0.00  0.00    +0.000 C 
ATOM      5  C   UNL     1      -0.082  12.518  21.278  0.00  0.00    +0.000 C 
ATOM      6  O   UNL     1       1.102  12.390  21.549  0.00  0.00    +0.000 OA
ATOM      7  N   UNL     1      -1.120  11.633  21.672  0.00  0.00    +0.000 N 
ATOM      8  C   UNL     1      -2.265  12.435  21.897  0.00  0.00    +0.000 A 
ATOM      9  C   UNL     1      -3.138  12.076  22.917  0.00  0.00    +0.000 A 
ATOM     10  C   UNL     1      -3.521  13.086  23.785  0.00  0.00    +0.000 A 
ATOM     11 CL   UNL     1      -4.285  12.668  25.272  0.00  0.00    +0.000 Cl
ATOM     12  C   UNL     1      -3.126  14.408  23.540  0.00  0.00    +0.000 A 
ATOM     13  C   UNL     1      -2.419  14.757  22.360  0.00  0.00    +0.000 A 
ATOM     14  C   UNL     1      -1.997  13.754  21.483  0.00  0.00    +0.000 A 
ATOM     15  C   UNL     1       0.016  14.980  20.167  0.00  0.00    +0.000 C 
ATOM     16  H   UNL     1      -1.313  10.931  20.959  0.00  0.00    +0.000 HD
ENDROOT
BRANCH   1  20
ATOM     17  C   UNL     1       5.240  15.264  18.634  0.00  0.00    +0.000 A 
ATOM     18  C   UNL     1       4.308  15.340  17.597  0.00  0.00    +0.000 A 
ATOM     19  C   UNL     1       2.950  15.047  17.815  0.00  0.00    +0.000 A 
ATOM     20  C   UNL     1       2.487  14.653  19.078  0.00  0.00    +0.000 A 
ATOM     21  C   UNL     1       3.447  14.519  20.092  0.00  0.00    +0.000 A 
ATOM     22  C   UNL     1       4.804  14.840  19.883  0.00  0.00    +0.000 A 
BRANCH  17  24
ATOM     23  C   UNL     1       7.385  14.462  17.977  0.00  0.00    +0.000 C 
ATOM     24  O   UNL     1       6.530  15.558  18.288  0.00  0.00    +0.000 OA
ENDBRANCH  17  24
ENDBRANCH   1  20
BRANCH   3  25
ATOM     25  C   UNL     1      -1.529  12.061  18.621  0.00  0.00    +0.000 A 
ATOM     26  C   UNL     1      -0.823  10.929  18.158  0.00  0.00    +0.000 A 
ATOM     27  C   UNL     1      -1.466   9.813  17.610  0.00  0.00    +0.000 A 
ATOM     28  C   UNL     1      -2.848   9.802  17.499  0.00  0.00    +0.000 A 
ATOM     29  C   UNL     1      -3.574  10.911  17.928  0.00  0.00    +0.000 A 
ATOM     30  C   UNL     1      -2.921  12.029  18.475  0.00  0.00    +0.000 A 
ENDBRANCH   3  25
BRANCH  15  31
ATOM     31  C   UNL     1       0.411  16.192  20.944  0.00  0.00    +0.000 A 
ATOM     32  C   UNL     1       0.912  16.163  22.232  0.00  0.00    +0.000 A 
ATOM     33  C   UNL     1       1.274  17.363  22.871  0.00  0.00    +0.000 A 
ATOM     34  C   UNL     1       1.143  18.585  22.215  0.00  0.00    +0.000 A 
ATOM     35  C   UNL     1       0.652  18.631  20.914  0.00  0.00    +0.000 A 
ATOM     36  C   UNL     1       0.285  17.448  20.283  0.00  0.00    +0.000 A 
ENDBRANCH  15  31
TORSDOF 4
ENDMDL
MODEL 2
REMARK VINA RESULT:      -6.5      3.271      6.085
REMARK  Name = 
REMARK  5 active torsions:
REMARK  status: ('A' for Active; 'I' for Inactive)
REMARK    1  A    between atoms: C_1  and  O_2
REMARK    2  A    between atoms: O_2  and  C_3
REMARK    3  A    between atoms: C_6  and  C_7
REMARK    4  A    between atoms: N_9  and  C_10
REMARK    5  A    between atoms: C_27  and  C_28
REMARK                            x       y       z     vdW  Elec       q    Type
REMARK                         _______ _______ _______ _____ _____    ______ ____
ROOT
ATOM      1  C   UNL     1      -3.341  13.220  20.260  0.00  0.00    +0.000 C 
ATOM      2  N   UNL     1      -4.521  13.240  20.821  0.00  0.00    +0.000 NA
ATOM      3  N   UNL     1      -4.450  14.140  21.917  0.00  0.00    +0.000 N 
ATOM      4  C   UNL     1      -2.961  14.240  22.300  0.00  0.00    +0.000 C 
ATOM      5  C   UNL     1      -2.764  12.931  23.126  0.00  0.00    +0.000 C 
ATOM      6  O   UNL     1      -2.319  11.859  22.746  0.00  0.00    +0.000 OA
ATOM      7  N   UNL     1      -3.108  13.253  24.465  0.00  0.00    +0.000 N 
ATOM      8  C   UNL     1      -2.799  14.624  24.638  0.00  0.00    +0.000 A 
ATOM      9  C   UNL     1      -2.322  15.047  25.874  0.00  0.00    +0.000 A 
ATOM     10  C   UNL     1      -1.190  15.847  25.856  0.00  0.00    +0.000 A 
ATOM     11 CL   UNL     1      -0.324  16.103  27.324  0.00  0.00    +0.000 Cl
ATOM     12  C   UNL     1      -0.659  16.285  24.636  0.00  0.00    +0.000 A 
ATOM     13  C   UNL     1      -1.314  16.007  23.408  0.00  0.00    +0.000 A 
ATOM     14  C   UNL     1      -2.441  15.180  23.395  0.00  0.00    +0.000 A 
ATOM     15  C   UNL     1      -2.476  14.332  20.832  0.00  0.00    +0.000 C 
ATOM     16  H   UNL     1      -4.095  13.086  24.656  0.00  0.00    +0.000 HD
ENDROOT
BRANCH   1  20
ATOM     17  C   UNL     1      -2.401  10.310  17.147  0.00  0.00    +0.000 A 
ATOM     18  C   UNL     1      -3.579  11.060  17.129  0.00  0.00    +0.000 A 
ATOM     19  C   UNL     1      -3.857  12.004  18.134  0.00  0.00    +0.000 A 
ATOM     20  C   UNL     1      -2.968  12.215  19.196  0.00  0.00    +0.000 A 
ATOM     21  C   UNL     1      -1.821  11.408  19.234  0.00  0.00    +0.000 A 
ATOM     22  C   UNL     1      -1.526  10.481  18.212  0.00  0.00    +0.000 A 
BRANCH  17  24
ATOM     23  C   UNL     1      -2.844   9.762  14.871  0.00  0.00    +0.000 C 
ATOM     24  O   UNL     1      -2.258   9.416  16.123  0.00  0.00    +0.000 OA
ENDBRANCH  17  24
ENDBRANCH   1  20
BRANCH   3  25
ATOM     25  C   UNL     1      -5.562  14.114  22.763  0.00  0.00    +0.000 A 
ATOM     26  C   UNL     1      -6.215  12.899  23.069  0.00  0.00    +0.000 A 
ATOM     27  C   UNL     1      -7.368  12.843  23.860  0.00  0.00    +0.000 A 
ATOM     28  C   UNL     1      -7.913  14.014  24.363  0.00  0.00    +0.000 A 
ATOM     29  C   UNL     1      -7.305  15.232  24.065  0.00  0.00    +0.000 A 
ATOM     30  C   UNL     1      -6.148  15.280  23.268  0.00  0.00    +0.000 A 
ENDBRANCH   3  25
BRANCH  15  31
ATOM     31  C   UNL     1      -1.139  14.612  20.231  0.00  0.00    +0.000 A 
ATOM     32  C   UNL     1       0.010  13.897  20.513  0.00  0.00    +0.000 A 
ATOM     33  C   UNL     1       1.219  14.229  19.877  0.00  0.00    +0.000 A 
ATOM     34  C   UNL     1       1.271  15.269  18.951  0.00  0.00    +0.000 A 
ATOM     35  C   UNL     1       0.123  15.991  18.645  0.00  0.00    +0.000 A 
ATOM     36  C   UNL     1      -1.072  15.671  19.280  0.00  0.00    +0.000 A 
ENDBRANCH  15  31
TORSDOF 4
ENDMDL
MODEL 3
REMARK VINA RESULT:      -6.5      2.946      4.685
REMARK  Name = 
REMARK  5 active torsions:
REMARK  status: ('A' for Active; 'I' for Inactive)
REMARK    1  A    between atoms: C_1  and  O_2
REMARK    2  A    between atoms: O_2  and  C_3
REMARK    3  A    between atoms: C_6  and  C_7
REMARK    4  A    between atoms: N_9  and  C_10
REMARK    5  A    between atoms: C_27  and  C_28
REMARK                            x       y       z     vdW  Elec       q    Type
REMARK                         _______ _______ _______ _____ _____    ______ ____
ROOT
ATOM      1  C   UNL     1      -1.722  12.085  19.773  0.00  0.00    +0.000 C 
ATOM      2  N   UNL     1      -2.981  11.838  19.523  0.00  0.00    +0.000 NA
ATOM      3  N   UNL     1      -3.726  12.963  19.967  0.00  0.00    +0.000 N 
ATOM      4  C   UNL     1      -2.850  13.675  21.015  0.00  0.00    +0.000 C 
ATOM      5  C   UNL     1      -3.090  12.787  22.276  0.00  0.00    +0.000 C 
ATOM      6  O   UNL     1      -2.393  11.880  22.703  0.00  0.00    +0.000 OA
ATOM      7  N   UNL     1      -4.245  13.311  22.916  0.00  0.00    +0.000 N 
ATOM      8  C   UNL     1      -4.267  14.698  22.625  0.00  0.00    +0.000 A 
ATOM      9  C   UNL     1      -4.741  15.572  23.596  0.00  0.00    +0.000 A 
ATOM     10  C   UNL     1      -3.956  16.682  23.862  0.00  0.00    +0.000 A 
ATOM     11 CL   UNL     1      -4.265  17.605  25.285  0.00  0.00    +0.000 Cl
ATOM     12  C   UNL     1      -2.816  16.938  23.087  0.00  0.00    +0.000 A 
ATOM     13  C   UNL     1      -2.497  16.133  21.963  0.00  0.00    +0.000 A 
ATOM     14  C   UNL     1      -3.258  14.992  21.689  0.00  0.00    +0.000 A 
ATOM     15  C   UNL     1      -1.551  13.538  20.185  0.00  0.00    +0.000 C 
ATOM     16  H   UNL     1      -5.099  12.866  22.583  0.00  0.00    +0.000 HD
ENDROOT
BRANCH   1  20
ATOM     17  C   UNL     1       1.336   9.017  19.250  0.00  0.00    +0.000 A 
ATOM     18  C   UNL     1       0.735   9.656  18.164  0.00  0.00    +0.000 A 
ATOM     19  C   UNL     1      -0.239  10.653  18.354  0.00  0.00    +0.000 A 
ATOM     20  C   UNL     1      -0.650  11.030  19.639  0.00  0.00    +0.000 A 
ATOM     21  C   UNL     1      -0.083  10.333  20.716  0.00  0.00    +0.000 A 
ATOM     22  C   UNL     1       0.915   9.353  20.531  0.00  0.00    +0.000 A 
BRANCH  17  24
ATOM     23  C   UNL     1       2.274   6.883  19.740  0.00  0.00    +0.000 C 
ATOM     24  O   UNL     1       2.254   8.055  18.931  0.00  0.00    +0.000 OA
ENDBRANCH  17  24
ENDBRANCH   1  20
BRANCH   3  25
ATOM     25  C   UNL     1      -5.111  12.775  19.980  0.00  0.00    +0.000 A 
ATOM     26  C   UNL     1      -5.668  11.484  20.118  0.00  0.00    +0.000 A 
ATOM     27  C   UNL     1      -7.047  11.251  20.070  0.00  0.00    +0.000 A 
ATOM     28  C   UNL     1      -7.917  12.312  19.868  0.00  0.00    +0.000 A 
ATOM     29  C   UNL     1      -7.399  13.596  19.708  0.00  0.00    +0.000 A 
ATOM     30  C   UNL     1      -6.012  13.821  19.756  0.00  0.00    +0.000 A 
ENDBRANCH   3  25
BRANCH  15  31
ATOM     31  C   UNL     1      -0.179  14.098  20.364  0.00  0.00    +0.000 A 
ATOM     32  C   UNL     1       0.552  14.013  21.534  0.00  0.00    +0.000 A 
ATOM     33  C   UNL     1       1.848  14.558  21.594  0.00  0.00    +0.000 A 
ATOM     34  C   UNL     1       2.410  15.176  20.480  0.00  0.00    +0.000 A 
ATOM     35  C   UNL     1       1.694  15.260  19.290  0.00  0.00    +0.000 A 
ATOM     36  C   UNL     1       0.410  14.731  19.231  0.00  0.00    +0.000 A 
ENDBRANCH  15  31
TORSDOF 4
ENDMDL
MODEL 4
REMARK VINA RESULT:      -6.5      0.273      1.177
REMARK  Name = 
REMARK  5 active torsions:
REMARK  status: ('A' for Active; 'I' for Inactive)
REMARK    1  A    between atoms: C_1  and  O_2
REMARK    2  A    between atoms: O_2  and  C_3
REMARK    3  A    between atoms: C_6  and  C_7
REMARK    4  A    between atoms: N_9  and  C_10
REMARK    5  A    between atoms: C_27  and  C_28
REMARK                            x       y       z     vdW  Elec       q    Type
REMARK                         _______ _______ _______ _____ _____    ______ ____
ROOT
ATOM      1  C   UNL     1       1.147  14.263  19.211  0.00  0.00    +0.000 C 
ATOM      2  N   UNL     1       0.555  13.326  18.518  0.00  0.00    +0.000 NA
ATOM      3  N   UNL     1      -0.744  13.156  19.066  0.00  0.00    +0.000 N 
ATOM      4  C   UNL     1      -0.680  13.692  20.508  0.00  0.00    +0.000 C 
ATOM      5  C   UNL     1      -0.008  12.498  21.255  0.00  0.00    +0.000 C 
ATOM      6  O   UNL     1       1.170  12.353  21.541  0.00  0.00    +0.000 OA
ATOM      7  N   UNL     1      -1.064  11.632  21.646  0.00  0.00    +0.000 N 
ATOM      8  C   UNL     1      -2.199  12.455  21.851  0.00  0.00    +0.000 A 
ATOM      9  C   UNL     1      -3.089  12.119  22.865  0.00  0.00    +0.000 A 
ATOM     10  C   UNL     1      -3.465  13.143  23.719  0.00  0.00    +0.000 A 
ATOM     11 CL   UNL     1      -4.251  12.751  25.202  0.00  0.00    +0.000 Cl
ATOM     12  C   UNL     1      -3.046  14.457  23.467  0.00  0.00    +0.000 A 
ATOM     13  C   UNL     1      -2.320  14.783  22.292  0.00  0.00    +0.000 A 
ATOM     14  C   UNL     1      -1.905  13.765  21.428  0.00  0.00    +0.000 A 
ATOM     15  C   UNL     1       0.141  14.948  20.123  0.00  0.00    +0.000 C 
ATOM     16  H   UNL     1      -1.261  10.927  20.938  0.00  0.00    +0.000 HD
ENDROOT
BRANCH   1  20
ATOM     17  C   UNL     1       5.405  15.175  18.929  0.00  0.00    +0.000 A 
ATOM     18  C   UNL     1       4.802  14.819  20.137  0.00  0.00    +0.000 A 
ATOM     19  C   UNL     1       3.431  14.513  20.204  0.00  0.00    +0.000 A 
ATOM     20  C   UNL     1       2.618  14.571  19.064  0.00  0.00    +0.000 A 
ATOM     21  C   UNL     1       3.225  14.994  17.873  0.00  0.00    +0.000 A 
ATOM     22  C   UNL     1       4.606  15.272  17.796  0.00  0.00    +0.000 A 
BRANCH  17  24
ATOM     23  C   UNL     1       7.503  15.305  17.809  0.00  0.00    +0.000 C 
ATOM     24  O   UNL     1       6.739  15.464  19.001  0.00  0.00    +0.000 OA
ENDBRANCH  17  24
ENDBRANCH   1  20
BRANCH   3  25
ATOM     25  C   UNL     1      -1.434  12.038  18.588  0.00  0.00    +0.000 A 
ATOM     26  C   UNL     1      -0.740  10.905  18.108  0.00  0.00    +0.000 A 
ATOM     27  C   UNL     1      -1.396   9.796  17.562  0.00  0.00    +0.000 A 
ATOM     28  C   UNL     1      -2.780   9.794  17.470  0.00  0.00    +0.000 A 
ATOM     29  C   UNL     1      -3.494  10.904  17.916  0.00  0.00    +0.000 A 
ATOM     30  C   UNL     1      -2.828  12.014  18.461  0.00  0.00    +0.000 A 
ENDBRANCH   3  25
BRANCH  15  31
ATOM     31  C   UNL     1       0.546  16.159  20.893  0.00  0.00    +0.000 A 
ATOM     32  C   UNL     1       0.477  17.452  20.407  0.00  0.00    +0.000 A 
ATOM     33  C   UNL     1       0.867  18.530  21.222  0.00  0.00    +0.000 A 
ATOM     34  C   UNL     1       1.313  18.312  22.524  0.00  0.00    +0.000 A 
ATOM     35  C   UNL     1       1.377  17.019  23.033  0.00  0.00    +0.000 A 
ATOM     36  C   UNL     1       1.002  15.951  22.226  0.00  0.00    +0.000 A 
ENDBRANCH  15  31
TORSDOF 4
ENDMDL
MODEL 5
REMARK VINA RESULT:      -6.4      2.945      4.909
REMARK  Name = 
REMARK  5 active torsions:
REMARK  status: ('A' for Active; 'I' for Inactive)
REMARK    1  A    between atoms: C_1  and  O_2
REMARK    2  A    between atoms: O_2  and  C_3
REMARK    3  A    between atoms: C_6  and  C_7
REMARK    4  A    between atoms: N_9  and  C_10
REMARK    5  A    between atoms: C_27  and  C_28
REMARK                            x       y       z     vdW  Elec       q    Type
REMARK                         _______ _______ _______ _____ _____    ______ ____
ROOT
ATOM      1  C   UNL     1      -1.745  12.475  20.050  0.00  0.00    +0.000 C 
ATOM      2  N   UNL     1      -3.040  12.336  19.945  0.00  0.00    +0.000 NA
ATOM      3  N   UNL     1      -3.631  13.538  20.416  0.00  0.00    +0.000 N 
ATOM      4  C   UNL     1      -2.588  14.202  21.334  0.00  0.00    +0.000 C 
ATOM      5  C   UNL     1      -2.766  13.383  22.651  0.00  0.00    +0.000 C 
ATOM      6  O   UNL     1      -2.109  12.430  23.040  0.00  0.00    +0.000 OA
ATOM      7  N   UNL     1      -3.794  14.031  23.385  0.00  0.00    +0.000 N 
ATOM      8  C   UNL     1      -3.727  15.404  23.039  0.00  0.00    +0.000 A 
ATOM      9  C   UNL     1      -4.015  16.350  24.016  0.00  0.00    +0.000 A 
ATOM     10  C   UNL     1      -3.111  17.392  24.149  0.00  0.00    +0.000 A 
ATOM     11 CL   UNL     1      -3.183  18.386  25.555  0.00  0.00    +0.000 Cl
ATOM     12  C   UNL     1      -2.045  17.516  23.249  0.00  0.00    +0.000 A 
ATOM     13  C   UNL     1      -1.921  16.648  22.133  0.00  0.00    +0.000 A 
ATOM     14  C   UNL     1      -2.803  15.573  21.990  0.00  0.00    +0.000 A 
ATOM     15  C   UNL     1      -1.403  13.920  20.379  0.00  0.00    +0.000 C 
ATOM     16  H   UNL     1      -4.715  13.655  23.164  0.00  0.00    +0.000 HD
ENDROOT
BRANCH   1  20
ATOM     17  C   UNL     1       1.045   9.148  19.613  0.00  0.00    +0.000 A 
ATOM     18  C   UNL     1       0.482   9.486  20.845  0.00  0.00    +0.000 A 
ATOM     19  C   UNL     1      -0.427  10.552  20.963  0.00  0.00    +0.000 A 
ATOM     20  C   UNL     1      -0.789  11.323  19.850  0.00  0.00    +0.000 A 
ATOM     21  C   UNL     1      -0.165  11.012  18.633  0.00  0.00    +0.000 A 
ATOM     22  C   UNL     1       0.725   9.924  18.506  0.00  0.00    +0.000 A 
BRANCH  17  24
ATOM     23  C   UNL     1       2.441   7.660  18.384  0.00  0.00    +0.000 C 
ATOM     24  O   UNL     1       1.926   8.103  19.636  0.00  0.00    +0.000 OA
ENDBRANCH  17  24
ENDBRANCH   1  20
BRANCH   3  25
ATOM     25  C   UNL     1      -5.017  13.478  20.582  0.00  0.00    +0.000 A 
ATOM     26  C   UNL     1      -5.657  12.266  20.924  0.00  0.00    +0.000 A 
ATOM     27  C   UNL     1      -7.047  12.154  21.035  0.00  0.00    +0.000 A 
ATOM     28  C   UNL     1      -7.847  13.260  20.793  0.00  0.00    +0.000 A 
ATOM     29  C   UNL     1      -7.250  14.467  20.433  0.00  0.00    +0.000 A 
ATOM     30  C   UNL     1      -5.853  14.570  20.323  0.00  0.00    +0.000 A 
ENDBRANCH   3  25
BRANCH  15  31
ATOM     31  C   UNL     1       0.023  14.358  20.388  0.00  0.00    +0.000 A 
ATOM     32  C   UNL     1       0.863  14.258  21.482  0.00  0.00    +0.000 A 
ATOM     33  C   UNL     1       2.200  14.683  21.382  0.00  0.00    +0.000 A 
ATOM     34  C   UNL     1       2.695  15.195  20.184  0.00  0.00    +0.000 A 
ATOM     35  C   UNL     1       1.867  15.291  19.070  0.00  0.00    +0.000 A 
ATOM     36  C   UNL     1       0.543  14.881  19.169  0.00  0.00    +0.000 A 
ENDBRANCH  15  31
TORSDOF 4
ENDMDL
MODEL 6
REMARK VINA RESULT:      -6.4      2.955      4.862
REMARK  Name = 
REMARK  5 active torsions:
REMARK  status: ('A' for Active; 'I' for Inactive)
REMARK    1  A    between atoms: C_1  and  O_2
REMARK    2  A    between atoms: O_2  and  C_3
REMARK    3  A    between atoms: C_6  and  C_7
REMARK    4  A    between atoms: N_9  and  C_10
REMARK    5  A    between atoms: C_27  and  C_28
REMARK                            x       y       z     vdW  Elec       q    Type
REMARK                         _______ _______ _______ _____ _____    ______ ____
ROOT
ATOM      1  C   UNL     1      -1.759  12.601  20.157  0.00  0.00    +0.000 C 
ATOM      2  N   UNL     1      -3.051  12.423  20.073  0.00  0.00    +0.000 NA
ATOM      3  N   UNL     1      -3.670  13.615  20.532  0.00  0.00    +0.000 N 
ATOM      4  C   UNL     1      -2.635  14.325  21.424  0.00  0.00    +0.000 C 
ATOM      5  C   UNL     1      -2.769  13.524  22.756  0.00  0.00    +0.000 C 
ATOM      6  O   UNL     1      -2.079  12.598  23.152  0.00  0.00    +0.000 OA
ATOM      7  N   UNL     1      -3.807  14.154  23.494  0.00  0.00    +0.000 N 
ATOM      8  C   UNL     1      -3.785  15.522  23.124  0.00  0.00    +0.000 A 
ATOM      9  C   UNL     1      -4.087  16.476  24.089  0.00  0.00    +0.000 A 
ATOM     10  C   UNL     1      -3.213  17.546  24.192  0.00  0.00    +0.000 A 
ATOM     11 CL   UNL     1      -3.294  18.562  25.582  0.00  0.00    +0.000 Cl
ATOM     12  C   UNL     1      -2.163  17.686  23.274  0.00  0.00    +0.000 A 
ATOM     13  C   UNL     1      -2.030  16.803  22.171  0.00  0.00    +0.000 A 
ATOM     14  C   UNL     1      -2.882  15.700  22.059  0.00  0.00    +0.000 A 
ATOM     15  C   UNL     1      -1.455  14.061  20.456  0.00  0.00    +0.000 C 
ATOM     16  H   UNL     1      -4.719  13.747  23.293  0.00  0.00    +0.000 HD
ENDROOT
BRANCH   1  20
ATOM     17  C   UNL     1       1.040   9.327  19.461  0.00  0.00    +0.000 A 
ATOM     18  C   UNL     1       0.405   9.993  18.412  0.00  0.00    +0.000 A 
ATOM     19  C   UNL     1      -0.483  11.057  18.656  0.00  0.00    +0.000 A 
ATOM     20  C   UNL     1      -0.772  11.475  19.962  0.00  0.00    +0.000 A 
ATOM     21  C   UNL     1      -0.176  10.753  21.006  0.00  0.00    +0.000 A 
ATOM     22  C   UNL     1       0.737   9.705  20.764  0.00  0.00    +0.000 A 
BRANCH  17  24
ATOM     23  C   UNL     1       2.502   8.405  17.822  0.00  0.00    +0.000 C 
ATOM     24  O   UNL     1       1.865   8.301  19.092  0.00  0.00    +0.000 OA
ENDBRANCH  17  24
ENDBRANCH   1  20
BRANCH   3  25
ATOM     25  C   UNL     1      -5.052  13.517  20.719  0.00  0.00    +0.000 A 
ATOM     26  C   UNL     1      -5.651  12.290  21.083  0.00  0.00    +0.000 A 
ATOM     27  C   UNL     1      -7.036  12.140  21.216  0.00  0.00    +0.000 A 
ATOM     28  C   UNL     1      -7.871  13.220  20.974  0.00  0.00    +0.000 A 
ATOM     29  C   UNL     1      -7.314  14.439  20.594  0.00  0.00    +0.000 A 
ATOM     30  C   UNL     1      -5.922  14.582  20.461  0.00  0.00    +0.000 A 
ENDBRANCH   3  25
BRANCH  15  31
ATOM     31  C   UNL     1      -0.043  14.541  20.438  0.00  0.00    +0.000 A 
ATOM     32  C   UNL     1       0.567  15.131  19.346  0.00  0.00    +0.000 A 
ATOM     33  C   UNL     1       1.901  15.568  19.437  0.00  0.00    +0.000 A 
ATOM     34  C   UNL     1       2.616  15.424  20.624  0.00  0.00    +0.000 A 
ATOM     35  C   UNL     1       2.014  14.845  21.737  0.00  0.00    +0.000 A 
ATOM     36  C   UNL     1       0.699  14.403  21.646  0.00  0.00    +0.000 A 
ENDBRANCH  15  31
TORSDOF 4
ENDMDL
MODEL 7
REMARK VINA RESULT:      -6.4      3.249      6.156
REMARK  Name = 
REMARK  5 active torsions:
REMARK  status: ('A' for Active; 'I' for Inactive)
REMARK    1  A    between atoms: C_1  and  O_2
REMARK    2  A    between atoms: O_2  and  C_3
REMARK    3  A    between atoms: C_6  and  C_7
REMARK    4  A    between atoms: N_9  and  C_10
REMARK    5  A    between atoms: C_27  and  C_28
REMARK                            x       y       z     vdW  Elec       q    Type
REMARK                         _______ _______ _______ _____ _____    ______ ____
ROOT
ATOM      1  C   UNL     1      -3.390  13.147  20.106  0.00  0.00    +0.000 C 
ATOM      2  N   UNL     1      -4.578  13.168  20.650  0.00  0.00    +0.000 NA
ATOM      3  N   UNL     1      -4.518  14.060  21.753  0.00  0.00    +0.000 N 
ATOM      4  C   UNL     1      -3.035  14.149  22.159  0.00  0.00    +0.000 C 
ATOM      5  C   UNL     1      -2.857  12.832  22.977  0.00  0.00    +0.000 C 
ATOM      6  O   UNL     1      -2.412  11.761  22.596  0.00  0.00    +0.000 OA
ATOM      7  N   UNL     1      -3.220  13.145  24.314  0.00  0.00    +0.000 N 
ATOM      8  C   UNL     1      -2.906  14.514  24.503  0.00  0.00    +0.000 A 
ATOM      9  C   UNL     1      -2.444  14.924  25.748  0.00  0.00    +0.000 A 
ATOM     10  C   UNL     1      -1.309  15.718  25.754  0.00  0.00    +0.000 A 
ATOM     11 CL   UNL     1      -0.463  15.958  27.236  0.00  0.00    +0.000 Cl
ATOM     12  C   UNL     1      -0.757  16.163  24.545  0.00  0.00    +0.000 A 
ATOM     13  C   UNL     1      -1.395  15.898  23.305  0.00  0.00    +0.000 A 
ATOM     14  C   UNL     1      -2.526  15.077  23.269  0.00  0.00    +0.000 A 
ATOM     15  C   UNL     1      -2.527  14.249  20.700  0.00  0.00    +0.000 C 
ATOM     16  H   UNL     1      -4.210  12.982  24.489  0.00  0.00    +0.000 HD
ENDROOT
BRANCH   1  20
ATOM     17  C   UNL     1      -2.420  10.254  16.986  0.00  0.00    +0.000 A 
ATOM     18  C   UNL     1      -3.606  10.991  16.970  0.00  0.00    +0.000 A 
ATOM     19  C   UNL     1      -3.893  11.930  17.977  0.00  0.00    +0.000 A 
ATOM     20  C   UNL     1      -3.006  12.148  19.040  0.00  0.00    +0.000 A 
ATOM     21  C   UNL     1      -1.851  11.353  19.075  0.00  0.00    +0.000 A 
ATOM     22  C   UNL     1      -1.546  10.432  18.051  0.00  0.00    +0.000 A 
BRANCH  17  24
ATOM     23  C   UNL     1      -2.808   9.731  14.695  0.00  0.00    +0.000 C 
ATOM     24  O   UNL     1      -2.268   9.363  15.960  0.00  0.00    +0.000 OA
ENDBRANCH  17  24
ENDBRANCH   1  20
BRANCH   3  25
ATOM     25  C   UNL     1      -5.643  14.033  22.583  0.00  0.00    +0.000 A 
ATOM     26  C   UNL     1      -6.154  15.220  23.153  0.00  0.00    +0.000 A 
ATOM     27  C   UNL     1      -7.238  15.223  24.039  0.00  0.00    +0.000 A 
ATOM     28  C   UNL     1      -7.839  14.024  24.393  0.00  0.00    +0.000 A 
ATOM     29  C   UNL     1      -7.347  12.833  23.865  0.00  0.00    +0.000 A 
ATOM     30  C   UNL     1      -6.257  12.838  22.976  0.00  0.00    +0.000 A 
ENDBRANCH   3  25
BRANCH  15  31
ATOM     31  C   UNL     1      -1.181  14.527  20.120  0.00  0.00    +0.000 A 
ATOM     32  C   UNL     1      -0.920  15.515  19.189  0.00  0.00    +0.000 A 
ATOM     33  C   UNL     1       0.391  15.709  18.718  0.00  0.00    +0.000 A 
ATOM     34  C   UNL     1       1.439  14.922  19.191  0.00  0.00    +0.000 A 
ATOM     35  C   UNL     1       1.197  13.932  20.138  0.00  0.00    +0.000 A 
ATOM     36  C   UNL     1      -0.099  13.731  20.597  0.00  0.00    +0.000 A 
ENDBRANCH  15  31
TORSDOF 4
ENDMDL
MODEL 8
REMARK VINA RESULT:      -6.3      2.953      4.953
REMARK  Name = 
REMARK  5 active torsions:
REMARK  status: ('A' for Active; 'I' for Inactive)
REMARK    1  A    between atoms: C_1  and  O_2
REMARK    2  A    between atoms: O_2  and  C_3
REMARK    3  A    between atoms: C_6  and  C_7
REMARK    4  A    between atoms: N_9  and  C_10
REMARK    5  A    between atoms: C_27  and  C_28
REMARK                            x       y       z     vdW  Elec       q    Type
REMARK                         _______ _______ _______ _____ _____    ______ ____
ROOT
ATOM      1  C   UNL     1      -1.761  12.275  19.831  0.00  0.00    +0.000 C 
ATOM      2  N   UNL     1      -3.050  12.102  19.694  0.00  0.00    +0.000 NA
ATOM      3  N   UNL     1      -3.684  13.284  20.158  0.00  0.00    +0.000 N 
ATOM      4  C   UNL     1      -2.682  13.970  21.106  0.00  0.00    +0.000 C 
ATOM      5  C   UNL     1      -2.868  13.137  22.412  0.00  0.00    +0.000 C 
ATOM      6  O   UNL     1      -2.195  12.199  22.811  0.00  0.00    +0.000 OA
ATOM      7  N   UNL     1      -3.931  13.752  23.125  0.00  0.00    +0.000 N 
ATOM      8  C   UNL     1      -3.892  15.128  22.790  0.00  0.00    +0.000 A 
ATOM      9  C   UNL     1      -4.229  16.059  23.766  0.00  0.00    +0.000 A 
ATOM     10  C   UNL     1      -3.357  17.124  23.928  0.00  0.00    +0.000 A 
ATOM     11 CL   UNL     1      -3.489  18.106  25.338  0.00  0.00    +0.000 Cl
ATOM     12  C   UNL     1      -2.274  17.283  23.054  0.00  0.00    +0.000 A 
ATOM     13  C   UNL     1      -2.101  16.427  21.935  0.00  0.00    +0.000 A 
ATOM     14  C   UNL     1      -2.949  15.330  21.765  0.00  0.00    +0.000 A 
ATOM     15  C   UNL     1      -1.467  13.726  20.177  0.00  0.00    +0.000 C 
ATOM     16  H   UNL     1      -4.835  13.353  22.880  0.00  0.00    +0.000 HD
ENDROOT
BRANCH   1  20
ATOM     17  C   UNL     1       1.128   9.029  19.438  0.00  0.00    +0.000 A 
ATOM     18  C   UNL     1       0.532   9.346  20.660  0.00  0.00    +0.000 A 
ATOM     19  C   UNL     1      -0.409  10.387  20.763  0.00  0.00    +0.000 A 
ATOM     20  C   UNL     1      -0.770  11.151  19.646  0.00  0.00    +0.000 A 
ATOM     21  C   UNL     1      -0.115  10.861  18.440  0.00  0.00    +0.000 A 
ATOM     22  C   UNL     1       0.807   9.799  18.327  0.00  0.00    +0.000 A 
BRANCH  17  24
ATOM     23  C   UNL     1       2.521   7.524  18.226  0.00  0.00    +0.000 C 
ATOM     24  O   UNL     1       2.037   8.008  19.475  0.00  0.00    +0.000 OA
ENDBRANCH  17  24
ENDBRANCH   1  20
BRANCH   3  25
ATOM     25  C   UNL     1      -5.072  13.185  20.291  0.00  0.00    +0.000 A 
ATOM     26  C   UNL     1      -5.904  14.308  20.085  0.00  0.00    +0.000 A 
ATOM     27  C   UNL     1      -7.290  14.262  20.272  0.00  0.00    +0.000 A 
ATOM     28  C   UNL     1      -7.888  13.082  20.687  0.00  0.00    +0.000 A 
ATOM     29  C   UNL     1      -7.094  11.960  20.918  0.00  0.00    +0.000 A 
ATOM     30  C   UNL     1      -5.703  12.015  20.730  0.00  0.00    +0.000 A 
ENDBRANCH   3  25
BRANCH  15  31
ATOM     31  C   UNL     1      -0.054  14.203  20.223  0.00  0.00    +0.000 A 
ATOM     32  C   UNL     1       0.611  14.780  19.156  0.00  0.00    +0.000 A 
ATOM     33  C   UNL     1       1.939  15.214  19.309  0.00  0.00    +0.000 A 
ATOM     34  C   UNL     1       2.595  15.081  20.531  0.00  0.00    +0.000 A 
ATOM     35  C   UNL     1       1.937  14.515  21.619  0.00  0.00    +0.000 A 
ATOM     36  C   UNL     1       0.627  14.075  21.468  0.00  0.00    +0.000 A 
ENDBRANCH  15  31
TORSDOF 4
ENDMDL
MODEL 9
REMARK VINA RESULT:      -6.3      2.962      5.317
REMARK  Name = 
REMARK  5 active torsions:
REMARK  status: ('A' for Active; 'I' for Inactive)
REMARK    1  A    between atoms: C_1  and  O_2
REMARK    2  A    between atoms: O_2  and  C_3
REMARK    3  A    between atoms: C_6  and  C_7
REMARK    4  A    between atoms: N_9  and  C_10
REMARK    5  A    between atoms: C_27  and  C_28
REMARK                            x       y       z     vdW  Elec       q    Type
REMARK                         _______ _______ _______ _____ _____    ______ ____
ROOT
ATOM      1  C   UNL     1      -2.050  13.262  20.598  0.00  0.00    +0.000 C 
ATOM      2  N   UNL     1      -3.266  13.068  21.036  0.00  0.00    +0.000 NA
ATOM      3  N   UNL     1      -3.614  14.198  21.822  0.00  0.00    +0.000 N 
ATOM      4  C   UNL     1      -2.288  14.836  22.274  0.00  0.00    +0.000 C 
ATOM      5  C   UNL     1      -1.881  13.905  23.459  0.00  0.00    +0.000 C 
ATOM      6  O   UNL     1      -1.111  12.958  23.444  0.00  0.00    +0.000 OA
ATOM      7  N   UNL     1      -2.509  14.441  24.616  0.00  0.00    +0.000 N 
ATOM      8  C   UNL     1      -2.609  15.838  24.404  0.00  0.00    +0.000 A 
ATOM      9  C   UNL     1      -2.465  16.687  25.496  0.00  0.00    +0.000 A 
ATOM     10  C   UNL     1      -1.601  17.758  25.334  0.00  0.00    +0.000 A 
ATOM     11 CL   UNL     1      -1.080  18.631  26.726  0.00  0.00    +0.000 Cl
ATOM     12  C   UNL     1      -1.019  18.007  24.084  0.00  0.00    +0.000 A 
ATOM     13  C   UNL     1      -1.371  17.240  22.944  0.00  0.00    +0.000 A 
ATOM     14  C   UNL     1      -2.219  16.137  23.085  0.00  0.00    +0.000 A 
ATOM     15  C   UNL     1      -1.617  14.691  20.887  0.00  0.00    +0.000 C 
ATOM     16  H   UNL     1      -3.432  14.039  24.769  0.00  0.00    +0.000 HD
ENDROOT
BRANCH   1  20
ATOM     17  C   UNL     1       0.120  10.089  18.533  0.00  0.00    +0.000 A 
ATOM     18  C   UNL     1      -1.123  10.545  18.091  0.00  0.00    +0.000 A 
ATOM     19  C   UNL     1      -1.800  11.580  18.761  0.00  0.00    +0.000 A 
ATOM     20  C   UNL     1      -1.257  12.179  19.906  0.00  0.00    +0.000 A 
ATOM     21  C   UNL     1      -0.040  11.665  20.374  0.00  0.00    +0.000 A 
ATOM     22  C   UNL     1       0.656  10.648  19.687  0.00  0.00    +0.000 A 
BRANCH  17  24
ATOM     23  C   UNL     1       2.081   8.922  17.849  0.00  0.00    +0.000 C 
ATOM     24  O   UNL     1       0.665   9.069  17.804  0.00  0.00    +0.000 OA
ENDBRANCH  17  24
ENDBRANCH   1  20
BRANCH   3  25
ATOM     25  C   UNL     1      -4.799  14.056  22.551  0.00  0.00    +0.000 A 
ATOM     26  C   UNL     1      -5.629  15.168  22.814  0.00  0.00    +0.000 A 
ATOM     27  C   UNL     1      -6.787  15.075  23.594  0.00  0.00    +0.000 A 
ATOM     28  C   UNL     1      -7.146  13.856  24.148  0.00  0.00    +0.000 A 
ATOM     29  C   UNL     1      -6.339  12.742  23.925  0.00  0.00    +0.000 A 
ATOM     30  C   UNL     1      -5.176  12.844  23.142  0.00  0.00    +0.000 A 
ENDBRANCH   3  25
BRANCH  15  31
ATOM     31  C   UNL     1      -0.326  15.197  20.335  0.00  0.00    +0.000 A 
ATOM     32  C   UNL     1       0.900  15.051  20.959  0.00  0.00    +0.000 A 
ATOM     33  C   UNL     1       2.063  15.549  20.345  0.00  0.00    +0.000 A 
ATOM     34  C   UNL     1       1.998  16.179  19.104  0.00  0.00    +0.000 A 
ATOM     35  C   UNL     1       0.775  16.323  18.457  0.00  0.00    +0.000 A 
ATOM     36  C   UNL     1      -0.378  15.841  19.066  0.00  0.00    +0.000 A 
ENDBRANCH  15  31
TORSDOF 4
ENDMDL
