MODEL 1
REMARK VINA RESULT:      -8.2      0.000      0.000
REMARK  Name = 
REMARK  10 active torsions:
REMARK  status: ('A' for Active; 'I' for Inactive)
REMARK    1  A    between atoms: C_1  and  C_2
REMARK    2  A    between atoms: C_2  and  C_3
REMARK    3  A    between atoms: C_6  and  N_7
REMARK    4  A    between atoms: C_8  and  C_10
REMARK    5  A    between atoms: C_10  and  N_11
REMARK    6  A    between atoms: C_10  and  C_12
REMARK    7  A    between atoms: C_21  and  C_22
REMARK    8  A    between atoms: C_22  and  O_24
REMARK    9  A    between atoms: O_24  and  C_25
REMARK   10  A    between atoms: C_25  and  N_26
REMARK                            x       y       z     vdW  Elec       q    Type
REMARK                         _______ _______ _______ _____ _____    ______ ____
ROOT
ATOM      1  C   UNL     1      -0.084   9.445  21.415  0.00  0.00    +0.000 C 
ATOM      2  C   UNL     1       0.068  10.489  20.303  0.00  0.00    +0.000 C 
ATOM      3  C   UNL     1       1.251  11.424  20.598  0.00  0.00    +0.000 C 
ATOM      4  S   UNL     1      -1.442  11.562  20.412  0.00  0.00    +0.000 S 
ATOM      5  C   UNL     1      -1.260  12.063  18.667  0.00  0.00    +0.000 C 
ATOM      6  C   UNL     1      -2.511  11.892  17.773  0.00  0.00    +0.000 C 
ATOM      7  C   UNL     1      -1.836  10.529  17.415  0.00  0.00    +0.000 C 
ATOM      8  O   UNL     1      -2.213   9.468  16.980  0.00  0.00    +0.000 OA
ATOM      9  N   UNL     1      -0.631  10.879  17.989  0.00  0.00    +0.000 N 
ATOM     10  C   UNL     1       0.057   9.880  18.850  0.00  0.00    +0.000 C 
ENDROOT
BRANCH   6  11
ATOM     11  N   UNL     1      -3.865  11.869  18.446  0.00  0.00    +0.000 N 
ATOM     12  C   UNL     1      -5.041  11.794  17.714  0.00  0.00    +0.000 C 
ATOM     13  O   UNL     1      -5.026  11.779  16.481  0.00  0.00    +0.000 OA
ATOM     14  H   UNL     1      -3.924  11.864  19.460  0.00  0.00    +0.000 HD
BRANCH  12  15
ATOM     15  C   UNL     1      -6.376  11.747  18.537  0.00  0.00    +0.000 C 
BRANCH  15  16
ATOM     16  C   UNL     1      -6.381  12.648  19.764  0.00  0.00    +0.000 A 
ATOM     17  C   UNL     1      -6.409  14.046  19.599  0.00  0.00    +0.000 A 
ATOM     18  C   UNL     1      -6.367  14.903  20.703  0.00  0.00    +0.000 A 
ATOM     19  C   UNL     1      -6.319  14.377  21.990  0.00  0.00    +0.000 A 
ATOM     20  C   UNL     1      -6.354  12.996  22.174  0.00  0.00    +0.000 A 
ATOM     21  C   UNL     1      -6.402  12.138  21.072  0.00  0.00    +0.000 A 
ENDBRANCH  15  16
BRANCH  15  22
ATOM     22  N   UNL     1      -6.679  10.355  18.936  0.00  0.00    +0.000 NA
ATOM     23  H   UNL     1      -6.905  10.366  19.933  0.00  0.00    +0.000 HD
ATOM     24  H   UNL     1      -5.819   9.809  18.880  0.00  0.00    +0.000 HD
ENDBRANCH  15  22
ENDBRANCH  12  15
ENDBRANCH   6  11
BRANCH  10  25
ATOM     25  C   UNL     1       1.446   9.220  18.494  0.00  0.00    +0.000 C 
ATOM     26  O   UNL     1       2.121   9.698  17.580  0.00  0.00    +0.000 OA
BRANCH  25  27
ATOM     27  O   UNL     1       1.918   8.171  19.246  0.00  0.00    +0.000 OA
BRANCH  27  28
ATOM     28  C   UNL     1       2.921   7.386  18.527  0.00  0.00    +0.000 C 
BRANCH  28  29
ATOM     29  N   UNL     1       2.742   5.960  18.343  0.00  0.00    +0.000 N 
ATOM     30  C   UNL     1       3.618   5.307  17.464  0.00  0.00    +0.000 A 
ATOM     31  O   UNL     1       4.453   5.854  16.753  0.00  0.00    +0.000 OA
ATOM     32  O   UNL     1       3.485   3.920  17.508  0.00  0.00    +0.000 OA
ATOM     33  C   UNL     1       2.663   3.754  18.603  0.00  0.00    +0.000 A 
ATOM     34  C   UNL     1       2.360   2.505  19.133  0.00  0.00    +0.000 A 
ATOM     35  C   UNL     1       1.613   2.484  20.308  0.00  0.00    +0.000 A 
ATOM     36  C   UNL     1       1.205   3.696  20.898  0.00  0.00    +0.000 A 
ATOM     37  C   UNL     1       1.507   4.948  20.325  0.00  0.00    +0.000 A 
ATOM     38  C   UNL     1       2.236   4.957  19.157  0.00  0.00    +0.000 A 
ENDBRANCH  28  29
ENDBRANCH  27  28
ENDBRANCH  25  27
ENDBRANCH  10  25
TORSDOF 8
ENDMDL
MODEL 2
REMARK VINA RESULT:      -8.0      3.219      6.138
REMARK  Name = 
REMARK  10 active torsions:
REMARK  status: ('A' for Active; 'I' for Inactive)
REMARK    1  A    between atoms: C_1  and  C_2
REMARK    2  A    between atoms: C_2  and  C_3
REMARK    3  A    between atoms: C_6  and  N_7
REMARK    4  A    between atoms: C_8  and  C_10
REMARK    5  A    between atoms: C_10  and  N_11
REMARK    6  A    between atoms: C_10  and  C_12
REMARK    7  A    between atoms: C_21  and  C_22
REMARK    8  A    between atoms: C_22  and  O_24
REMARK    9  A    between atoms: O_24  and  C_25
REMARK   10  A    between atoms: C_25  and  N_26
REMARK                            x       y       z     vdW  Elec       q    Type
REMARK                         _______ _______ _______ _____ _____    ______ ____
ROOT
ATOM      1  C   UNL     1       1.097   4.082  18.791  0.00  0.00    +0.000 C 
ATOM      2  C   UNL     1       1.952   5.117  19.533  0.00  0.00    +0.000 C 
ATOM      3  C   UNL     1       2.716   4.457  20.691  0.00  0.00    +0.000 C 
ATOM      4  S   UNL     1       0.749   6.276  20.339  0.00  0.00    +0.000 S 
ATOM      5  C   UNL     1       2.006   7.597  20.407  0.00  0.00    +0.000 C 
ATOM      6  C   UNL     1       1.593   8.965  19.816  0.00  0.00    +0.000 C 
ATOM      7  C   UNL     1       2.295   8.411  18.534  0.00  0.00    +0.000 C 
ATOM      8  O   UNL     1       2.240   8.644  17.351  0.00  0.00    +0.000 OA
ATOM      9  N   UNL     1       2.880   7.359  19.209  0.00  0.00    +0.000 N 
ATOM     10  C   UNL     1       2.838   6.009  18.583  0.00  0.00    +0.000 C 
ENDROOT
BRANCH   6  11
ATOM     11  N   UNL     1       0.118   9.289  19.743  0.00  0.00    +0.000 N 
ATOM     12  C   UNL     1      -0.343  10.460  19.159  0.00  0.00    +0.000 C 
ATOM     13  O   UNL     1       0.440  11.300  18.708  0.00  0.00    +0.000 OA
ATOM     14  H   UNL     1      -0.563   8.619  20.089  0.00  0.00    +0.000 HD
BRANCH  12  15
ATOM     15  C   UNL     1      -1.899  10.659  19.124  0.00  0.00    +0.000 C 
BRANCH  15  16
ATOM     16  C   UNL     1      -2.502  10.593  17.727  0.00  0.00    +0.000 A 
ATOM     17  C   UNL     1      -3.630  11.378  17.421  0.00  0.00    +0.000 A 
ATOM     18  C   UNL     1      -4.238  11.307  16.164  0.00  0.00    +0.000 A 
ATOM     19  C   UNL     1      -3.715  10.466  15.185  0.00  0.00    +0.000 A 
ATOM     20  C   UNL     1      -2.562   9.730  15.451  0.00  0.00    +0.000 A 
ATOM     21  C   UNL     1      -1.950   9.804  16.706  0.00  0.00    +0.000 A 
ENDBRANCH  15  16
BRANCH  15  22
ATOM     22  N   UNL     1      -2.263  11.941  19.766  0.00  0.00    +0.000 NA
ATOM     23  H   UNL     1      -1.649  12.063  20.574  0.00  0.00    +0.000 HD
ATOM     24  H   UNL     1      -3.195  11.845  20.171  0.00  0.00    +0.000 HD
ENDBRANCH  15  22
ENDBRANCH  12  15
ENDBRANCH   6  11
BRANCH  10  25
ATOM     25  C   UNL     1       4.117   5.228  18.090  0.00  0.00    +0.000 C 
ATOM     26  O   UNL     1       5.189   5.402  18.672  0.00  0.00    +0.000 OA
BRANCH  25  27
ATOM     27  O   UNL     1       4.009   4.314  17.068  0.00  0.00    +0.000 OA
BRANCH  27  28
ATOM     28  C   UNL     1       5.314   3.822  16.629  0.00  0.00    +0.000 C 
BRANCH  28  29
ATOM     29  N   UNL     1       6.012   4.467  15.535  0.00  0.00    +0.000 N 
ATOM     30  C   UNL     1       7.186   5.170  15.841  0.00  0.00    +0.000 A 
ATOM     31  O   UNL     1       7.617   5.379  16.968  0.00  0.00    +0.000 OA
ATOM     32  O   UNL     1       7.875   5.583  14.703  0.00  0.00    +0.000 OA
ATOM     33  C   UNL     1       7.195   4.911  13.707  0.00  0.00    +0.000 A 
ATOM     34  C   UNL     1       7.619   4.901  12.383  0.00  0.00    +0.000 A 
ATOM     35  C   UNL     1       6.908   4.091  11.501  0.00  0.00    +0.000 A 
ATOM     36  C   UNL     1       5.819   3.332  11.972  0.00  0.00    +0.000 A 
ATOM     37  C   UNL     1       5.397   3.380  13.317  0.00  0.00    +0.000 A 
ATOM     38  C   UNL     1       6.100   4.194  14.177  0.00  0.00    +0.000 A 
ENDBRANCH  28  29
ENDBRANCH  27  28
ENDBRANCH  25  27
ENDBRANCH  10  25
TORSDOF 8
ENDMDL
MODEL 3
REMARK VINA RESULT:      -7.8      4.074      7.031
REMARK  Name = 
REMARK  10 active torsions:
REMARK  status: ('A' for Active; 'I' for Inactive)
REMARK    1  A    between atoms: C_1  and  C_2
REMARK    2  A    between atoms: C_2  and  C_3
REMARK    3  A    between atoms: C_6  and  N_7
REMARK    4  A    between atoms: C_8  and  C_10
REMARK    5  A    between atoms: C_10  and  N_11
REMARK    6  A    between atoms: C_10  and  C_12
REMARK    7  A    between atoms: C_21  and  C_22
REMARK    8  A    between atoms: C_22  and  O_24
REMARK    9  A    between atoms: O_24  and  C_25
REMARK   10  A    between atoms: C_25  and  N_26
REMARK                            x       y       z     vdW  Elec       q    Type
REMARK                         _______ _______ _______ _____ _____    ______ ____
ROOT
ATOM      1  C   UNL     1       0.477   2.525  18.865  0.00  0.00    +0.000 C 
ATOM      2  C   UNL     1       1.690   3.178  19.540  0.00  0.00    +0.000 C 
ATOM      3  C   UNL     1       2.424   2.163  20.431  0.00  0.00    +0.000 C 
ATOM      4  S   UNL     1       0.995   4.440  20.709  0.00  0.00    +0.000 S 
ATOM      5  C   UNL     1       2.557   5.383  20.683  0.00  0.00    +0.000 C 
ATOM      6  C   UNL     1       2.442   6.890  20.359  0.00  0.00    +0.000 C 
ATOM      7  C   UNL     1       2.748   6.409  18.905  0.00  0.00    +0.000 C 
ATOM      8  O   UNL     1       2.568   6.848  17.795  0.00  0.00    +0.000 OA
ATOM      9  N   UNL     1       3.127   5.147  19.313  0.00  0.00    +0.000 N 
ATOM     10  C   UNL     1       2.619   3.976  18.549  0.00  0.00    +0.000 C 
ENDROOT
BRANCH   6  11
ATOM     11  N   UNL     1       1.118   7.572  20.626  0.00  0.00    +0.000 N 
ATOM     12  C   UNL     1       0.997   8.583  21.569  0.00  0.00    +0.000 C 
ATOM     13  O   UNL     1       1.961   8.940  22.251  0.00  0.00    +0.000 OA
ATOM     14  H   UNL     1       0.302   7.321  20.077  0.00  0.00    +0.000 HD
BRANCH  12  15
ATOM     15  C   UNL     1      -0.425   9.227  21.726  0.00  0.00    +0.000 C 
BRANCH  15  16
ATOM     16  C   UNL     1      -0.627  10.496  20.910  0.00  0.00    +0.000 A 
ATOM     17  C   UNL     1      -0.803  10.404  19.516  0.00  0.00    +0.000 A 
ATOM     18  C   UNL     1      -0.943  11.552  18.730  0.00  0.00    +0.000 A 
ATOM     19  C   UNL     1      -0.933  12.809  19.327  0.00  0.00    +0.000 A 
ATOM     20  C   UNL     1      -0.823  12.915  20.712  0.00  0.00    +0.000 A 
ATOM     21  C   UNL     1      -0.688  11.768  21.500  0.00  0.00    +0.000 A 
ENDBRANCH  15  16
BRANCH  15  22
ATOM     22  N   UNL     1      -0.706   9.498  23.152  0.00  0.00    +0.000 NA
ATOM     23  H   UNL     1      -1.082   8.639  23.559  0.00  0.00    +0.000 HD
ATOM     24  H   UNL     1      -1.479  10.162  23.208  0.00  0.00    +0.000 HD
ENDBRANCH  15  22
ENDBRANCH  12  15
ENDBRANCH   6  11
BRANCH  10  25
ATOM     25  C   UNL     1       3.539   3.002  17.715  0.00  0.00    +0.000 C 
ATOM     26  O   UNL     1       3.738   1.860  18.134  0.00  0.00    +0.000 OA
BRANCH  25  27
ATOM     27  O   UNL     1       4.049   3.410  16.506  0.00  0.00    +0.000 OA
BRANCH  27  28
ATOM     28  C   UNL     1       4.984   4.525  16.650  0.00  0.00    +0.000 C 
BRANCH  28  29
ATOM     29  N   UNL     1       5.830   4.921  15.543  0.00  0.00    +0.000 N 
ATOM     30  C   UNL     1       7.058   5.524  15.850  0.00  0.00    +0.000 A 
ATOM     31  O   UNL     1       7.432   5.845  16.972  0.00  0.00    +0.000 OA
ATOM     32  O   UNL     1       7.871   5.686  14.730  0.00  0.00    +0.000 OA
ATOM     33  C   UNL     1       7.184   4.957  13.780  0.00  0.00    +0.000 A 
ATOM     34  C   UNL     1       7.695   4.707  12.512  0.00  0.00    +0.000 A 
ATOM     35  C   UNL     1       6.952   3.861  11.691  0.00  0.00    +0.000 A 
ATOM     36  C   UNL     1       5.748   3.307  12.165  0.00  0.00    +0.000 A 
ATOM     37  C   UNL     1       5.242   3.598  13.449  0.00  0.00    +0.000 A 
ATOM     38  C   UNL     1       5.978   4.444  14.248  0.00  0.00    +0.000 A 
ENDBRANCH  28  29
ENDBRANCH  27  28
ENDBRANCH  25  27
ENDBRANCH  10  25
TORSDOF 8
ENDMDL
MODEL 4
REMARK VINA RESULT:      -7.7      3.115      6.227
REMARK  Name = 
REMARK  10 active torsions:
REMARK  status: ('A' for Active; 'I' for Inactive)
REMARK    1  A    between atoms: C_1  and  C_2
REMARK    2  A    between atoms: C_2  and  C_3
REMARK    3  A    between atoms: C_6  and  N_7
REMARK    4  A    between atoms: C_8  and  C_10
REMARK    5  A    between atoms: C_10  and  N_11
REMARK    6  A    between atoms: C_10  and  C_12
REMARK    7  A    between atoms: C_21  and  C_22
REMARK    8  A    between atoms: C_22  and  O_24
REMARK    9  A    between atoms: O_24  and  C_25
REMARK   10  A    between atoms: C_25  and  N_26
REMARK                            x       y       z     vdW  Elec       q    Type
REMARK                         _______ _______ _______ _____ _____    ______ ____
ROOT
ATOM      1  C   UNL     1       0.597   3.834  19.759  0.00  0.00    +0.000 C 
ATOM      2  C   UNL     1       1.778   4.784  19.993  0.00  0.00    +0.000 C 
ATOM      3  C   UNL     1       2.763   4.182  21.007  0.00  0.00    +0.000 C 
ATOM      4  S   UNL     1       1.064   6.276  20.832  0.00  0.00    +0.000 S 
ATOM      5  C   UNL     1       2.455   7.311  20.261  0.00  0.00    +0.000 C 
ATOM      6  C   UNL     1       2.077   8.620  19.527  0.00  0.00    +0.000 C 
ATOM      7  C   UNL     1       2.259   7.734  18.252  0.00  0.00    +0.000 C 
ATOM      8  O   UNL     1       1.872   7.778  17.110  0.00  0.00    +0.000 OA
ATOM      9  N   UNL     1       2.869   6.711  18.948  0.00  0.00    +0.000 N 
ATOM     10  C   UNL     1       2.442   5.314  18.666  0.00  0.00    +0.000 C 
ENDROOT
BRANCH   6  11
ATOM     11  N   UNL     1       0.714   9.216  19.799  0.00  0.00    +0.000 N 
ATOM     12  C   UNL     1       0.406  10.521  19.442  0.00  0.00    +0.000 C 
ATOM     13  O   UNL     1       1.247  11.255  18.918  0.00  0.00    +0.000 OA
ATOM     14  H   UNL     1      -0.014   8.643  20.215  0.00  0.00    +0.000 HD
BRANCH  12  15
ATOM     15  C   UNL     1      -1.053  11.006  19.754  0.00  0.00    +0.000 C 
BRANCH  15  16
ATOM     16  C   UNL     1      -2.012  10.887  18.578  0.00  0.00    +0.000 A 
ATOM     17  C   UNL     1      -1.688  10.041  17.500  0.00  0.00    +0.000 A 
ATOM     18  C   UNL     1      -2.523   9.945  16.383  0.00  0.00    +0.000 A 
ATOM     19  C   UNL     1      -3.707  10.675  16.335  0.00  0.00    +0.000 A 
ATOM     20  C   UNL     1      -4.074  11.467  17.421  0.00  0.00    +0.000 A 
ATOM     21  C   UNL     1      -3.243  11.561  18.541  0.00  0.00    +0.000 A 
ENDBRANCH  15  16
BRANCH  15  22
ATOM     22  N   UNL     1      -1.031  12.401  20.244  0.00  0.00    +0.000 NA
ATOM     23  H   UNL     1      -0.922  13.009  19.430  0.00  0.00    +0.000 HD
ATOM     24  H   UNL     1      -0.174  12.542  20.779  0.00  0.00    +0.000 HD
ENDBRANCH  15  22
ENDBRANCH  12  15
ENDBRANCH   6  11
BRANCH  10  25
ATOM     25  C   UNL     1       3.379   4.222  18.017  0.00  0.00    +0.000 C 
ATOM     26  O   UNL     1       2.872   3.211  17.527  0.00  0.00    +0.000 OA
BRANCH  25  27
ATOM     27  O   UNL     1       4.734   4.439  17.943  0.00  0.00    +0.000 OA
BRANCH  27  28
ATOM     28  C   UNL     1       5.345   3.729  16.820  0.00  0.00    +0.000 C 
BRANCH  28  29
ATOM     29  N   UNL     1       6.026   4.461  15.771  0.00  0.00    +0.000 N 
ATOM     30  C   UNL     1       7.118   5.258  16.144  0.00  0.00    +0.000 A 
ATOM     31  O   UNL     1       7.481   5.476  17.293  0.00  0.00    +0.000 OA
ATOM     32  O   UNL     1       7.814   5.759  15.046  0.00  0.00    +0.000 OA
ATOM     33  C   UNL     1       7.240   5.055  14.007  0.00  0.00    +0.000 A 
ATOM     34  C   UNL     1       7.718   5.117  12.703  0.00  0.00    +0.000 A 
ATOM     35  C   UNL     1       7.121   4.269  11.773  0.00  0.00    +0.000 A 
ATOM     36  C   UNL     1       6.086   3.404  12.180  0.00  0.00    +0.000 A 
ATOM     37  C   UNL     1       5.606   3.380  13.505  0.00  0.00    +0.000 A 
ATOM     38  C   UNL     1       6.195   4.231  14.413  0.00  0.00    +0.000 A 
ENDBRANCH  28  29
ENDBRANCH  27  28
ENDBRANCH  25  27
ENDBRANCH  10  25
TORSDOF 8
ENDMDL
MODEL 5
REMARK VINA RESULT:      -7.6      2.075      2.747
REMARK  Name = 
REMARK  10 active torsions:
REMARK  status: ('A' for Active; 'I' for Inactive)
REMARK    1  A    between atoms: C_1  and  C_2
REMARK    2  A    between atoms: C_2  and  C_3
REMARK    3  A    between atoms: C_6  and  N_7
REMARK    4  A    between atoms: C_8  and  C_10
REMARK    5  A    between atoms: C_10  and  N_11
REMARK    6  A    between atoms: C_10  and  C_12
REMARK    7  A    between atoms: C_21  and  C_22
REMARK    8  A    between atoms: C_22  and  O_24
REMARK    9  A    between atoms: O_24  and  C_25
REMARK   10  A    between atoms: C_25  and  N_26
REMARK                            x       y       z     vdW  Elec       q    Type
REMARK                         _______ _______ _______ _____ _____    ______ ____
ROOT
ATOM      1  C   UNL     1      -0.468   8.107  21.646  0.00  0.00    +0.000 C 
ATOM      2  C   UNL     1       0.214   9.478  21.555  0.00  0.00    +0.000 C 
ATOM      3  C   UNL     1       1.604   9.434  22.210  0.00  0.00    +0.000 C 
ATOM      4  S   UNL     1      -0.793  10.612  22.624  0.00  0.00    +0.000 S 
ATOM      5  C   UNL     1      -0.195  12.071  21.706  0.00  0.00    +0.000 C 
ATOM      6  C   UNL     1      -1.280  13.032  21.167  0.00  0.00    +0.000 C 
ATOM      7  C   UNL     1      -1.111  12.188  19.863  0.00  0.00    +0.000 C 
ATOM      8  O   UNL     1      -1.787  11.962  18.888  0.00  0.00    +0.000 OA
ATOM      9  N   UNL     1       0.043  11.578  20.308  0.00  0.00    +0.000 N 
ATOM     10  C   UNL     1       0.186  10.109  20.112  0.00  0.00    +0.000 C 
ENDROOT
BRANCH   6  11
ATOM     11  N   UNL     1      -2.628  13.034  21.852  0.00  0.00    +0.000 N 
ATOM     12  C   UNL     1      -3.551  14.048  21.640  0.00  0.00    +0.000 C 
ATOM     13  O   UNL     1      -3.291  15.007  20.909  0.00  0.00    +0.000 OA
ATOM     14  H   UNL     1      -2.891  12.257  22.451  0.00  0.00    +0.000 HD
BRANCH  12  15
ATOM     15  C   UNL     1      -4.923  13.914  22.390  0.00  0.00    +0.000 C 
BRANCH  15  16
ATOM     16  C   UNL     1      -5.879  12.911  21.760  0.00  0.00    +0.000 A 
ATOM     17  C   UNL     1      -7.040  12.526  22.459  0.00  0.00    +0.000 A 
ATOM     18  C   UNL     1      -7.915  11.572  21.931  0.00  0.00    +0.000 A 
ATOM     19  C   UNL     1      -7.658  11.004  20.687  0.00  0.00    +0.000 A 
ATOM     20  C   UNL     1      -6.548  11.420  19.954  0.00  0.00    +0.000 A 
ATOM     21  C   UNL     1      -5.674  12.378  20.478  0.00  0.00    +0.000 A 
ENDBRANCH  15  16
BRANCH  15  22
ATOM     22  N   UNL     1      -5.579  15.235  22.492  0.00  0.00    +0.000 NA
ATOM     23  H   UNL     1      -5.951  15.319  23.440  0.00  0.00    +0.000 HD
ATOM     24  H   UNL     1      -6.408  15.231  21.897  0.00  0.00    +0.000 HD
ENDBRANCH  15  22
ENDBRANCH  12  15
ENDBRANCH   6  11
BRANCH  10  25
ATOM     25  C   UNL     1       1.269   9.448  19.175  0.00  0.00    +0.000 C 
ATOM     26  O   UNL     1       1.659  10.063  18.181  0.00  0.00    +0.000 OA
BRANCH  25  27
ATOM     27  O   UNL     1       1.815   8.232  19.511  0.00  0.00    +0.000 OA
BRANCH  27  28
ATOM     28  C   UNL     1       2.281   7.494  18.338  0.00  0.00    +0.000 C 
BRANCH  28  29
ATOM     29  N   UNL     1       2.760   6.132  18.470  0.00  0.00    +0.000 N 
ATOM     30  C   UNL     1       4.028   5.840  17.948  0.00  0.00    +0.000 A 
ATOM     31  O   UNL     1       4.722   6.607  17.292  0.00  0.00    +0.000 OA
ATOM     32  O   UNL     1       4.470   4.565  18.297  0.00  0.00    +0.000 OA
ATOM     33  C   UNL     1       3.526   4.189  19.231  0.00  0.00    +0.000 A 
ATOM     34  C   UNL     1       3.632   3.023  19.980  0.00  0.00    +0.000 A 
ATOM     35  C   UNL     1       2.673   2.821  20.969  0.00  0.00    +0.000 A 
ATOM     36  C   UNL     1       1.661   3.780  21.168  0.00  0.00    +0.000 A 
ATOM     37  C   UNL     1       1.564   4.943  20.377  0.00  0.00    +0.000 A 
ATOM     38  C   UNL     1       2.511   5.127  19.394  0.00  0.00    +0.000 A 
ENDBRANCH  28  29
ENDBRANCH  27  28
ENDBRANCH  25  27
ENDBRANCH  10  25
TORSDOF 8
ENDMDL
MODEL 6
REMARK VINA RESULT:      -7.6      3.325      6.297
REMARK  Name = 
REMARK  10 active torsions:
REMARK  status: ('A' for Active; 'I' for Inactive)
REMARK    1  A    between atoms: C_1  and  C_2
REMARK    2  A    between atoms: C_2  and  C_3
REMARK    3  A    between atoms: C_6  and  N_7
REMARK    4  A    between atoms: C_8  and  C_10
REMARK    5  A    between atoms: C_10  and  N_11
REMARK    6  A    between atoms: C_10  and  C_12
REMARK    7  A    between atoms: C_21  and  C_22
REMARK    8  A    between atoms: C_22  and  O_24
REMARK    9  A    between atoms: O_24  and  C_25
REMARK   10  A    between atoms: C_25  and  N_26
REMARK                            x       y       z     vdW  Elec       q    Type
REMARK                         _______ _______ _______ _____ _____    ______ ____
ROOT
ATOM      1  C   UNL     1       0.490   2.957  19.486  0.00  0.00    +0.000 C 
ATOM      2  C   UNL     1       1.807   3.708  19.714  0.00  0.00    +0.000 C 
ATOM      3  C   UNL     1       2.764   2.872  20.578  0.00  0.00    +0.000 C 
ATOM      4  S   UNL     1       1.371   5.181  20.755  0.00  0.00    +0.000 S 
ATOM      5  C   UNL     1       2.852   6.077  20.177  0.00  0.00    +0.000 C 
ATOM      6  C   UNL     1       2.614   7.497  19.611  0.00  0.00    +0.000 C 
ATOM      7  C   UNL     1       2.580   6.742  18.244  0.00  0.00    +0.000 C 
ATOM      8  O   UNL     1       2.126   6.963  17.147  0.00  0.00    +0.000 OA
ATOM      9  N   UNL     1       3.086   5.576  18.780  0.00  0.00    +0.000 N 
ATOM     10  C   UNL     1       2.447   4.288  18.396  0.00  0.00    +0.000 C 
ENDROOT
BRANCH   6  11
ATOM     11  N   UNL     1       1.372   8.237  20.054  0.00  0.00    +0.000 N 
ATOM     12  C   UNL     1       1.011   9.454  19.494  0.00  0.00    +0.000 C 
ATOM     13  O   UNL     1       1.712   9.996  18.637  0.00  0.00    +0.000 OA
ATOM     14  H   UNL     1       0.756   7.821  20.747  0.00  0.00    +0.000 HD
BRANCH  12  15
ATOM     15  C   UNL     1      -0.317  10.101  20.023  0.00  0.00    +0.000 C 
BRANCH  15  16
ATOM     16  C   UNL     1      -1.307  10.471  18.928  0.00  0.00    +0.000 A 
ATOM     17  C   UNL     1      -2.183  11.557  19.122  0.00  0.00    +0.000 A 
ATOM     18  C   UNL     1      -3.137  11.895  18.157  0.00  0.00    +0.000 A 
ATOM     19  C   UNL     1      -3.216  11.168  16.973  0.00  0.00    +0.000 A 
ATOM     20  C   UNL     1      -2.315  10.131  16.738  0.00  0.00    +0.000 A 
ATOM     21  C   UNL     1      -1.358   9.795  17.699  0.00  0.00    +0.000 A 
ENDBRANCH  15  16
BRANCH  15  22
ATOM     22  N   UNL     1      -0.011  11.292  20.845  0.00  0.00    +0.000 NA
ATOM     23  H   UNL     1      -0.744  11.982  20.668  0.00  0.00    +0.000 HD
ATOM     24  H   UNL     1       0.836  11.727  20.479  0.00  0.00    +0.000 HD
ENDBRANCH  15  22
ENDBRANCH  12  15
ENDBRANCH   6  11
BRANCH  10  25
ATOM     25  C   UNL     1       3.172   3.159  17.566  0.00  0.00    +0.000 C 
ATOM     26  O   UNL     1       2.565   2.604  16.648  0.00  0.00    +0.000 OA
BRANCH  25  27
ATOM     27  O   UNL     1       4.488   2.856  17.826  0.00  0.00    +0.000 OA
BRANCH  27  28
ATOM     28  C   UNL     1       5.345   3.074  16.661  0.00  0.00    +0.000 C 
BRANCH  28  29
ATOM     29  N   UNL     1       6.073   4.318  16.509  0.00  0.00    +0.000 N 
ATOM     30  C   UNL     1       5.649   5.196  15.502  0.00  0.00    +0.000 A 
ATOM     31  O   UNL     1       4.784   4.959  14.668  0.00  0.00    +0.000 OA
ATOM     32  O   UNL     1       6.286   6.434  15.568  0.00  0.00    +0.000 OA
ATOM     33  C   UNL     1       6.939   6.346  16.781  0.00  0.00    +0.000 A 
ATOM     34  C   UNL     1       7.609   7.422  17.353  0.00  0.00    +0.000 A 
ATOM     35  C   UNL     1       8.126   7.232  18.632  0.00  0.00    +0.000 A 
ATOM     36  C   UNL     1       7.955   5.993  19.279  0.00  0.00    +0.000 A 
ATOM     37  C   UNL     1       7.292   4.911  18.664  0.00  0.00    +0.000 A 
ATOM     38  C   UNL     1       6.794   5.106  17.394  0.00  0.00    +0.000 A 
ENDBRANCH  28  29
ENDBRANCH  27  28
ENDBRANCH  25  27
ENDBRANCH  10  25
TORSDOF 8
ENDMDL
MODEL 7
REMARK VINA RESULT:      -7.6      1.608      2.601
REMARK  Name = 
REMARK  10 active torsions:
REMARK  status: ('A' for Active; 'I' for Inactive)
REMARK    1  A    between atoms: C_1  and  C_2
REMARK    2  A    between atoms: C_2  and  C_3
REMARK    3  A    between atoms: C_6  and  N_7
REMARK    4  A    between atoms: C_8  and  C_10
REMARK    5  A    between atoms: C_10  and  N_11
REMARK    6  A    between atoms: C_10  and  C_12
REMARK    7  A    between atoms: C_21  and  C_22
REMARK    8  A    between atoms: C_22  and  O_24
REMARK    9  A    between atoms: O_24  and  C_25
REMARK   10  A    between atoms: C_25  and  N_26
REMARK                            x       y       z     vdW  Elec       q    Type
REMARK                         _______ _______ _______ _____ _____    ______ ____
ROOT
ATOM      1  C   UNL     1      -0.706  11.288  22.344  0.00  0.00    +0.000 C 
ATOM      2  C   UNL     1      -0.225  11.353  20.890  0.00  0.00    +0.000 C 
ATOM      3  C   UNL     1       1.190  11.947  20.814  0.00  0.00    +0.000 C 
ATOM      4  S   UNL     1      -1.322  12.593  20.054  0.00  0.00    +0.000 S 
ATOM      5  C   UNL     1      -0.980  11.854  18.421  0.00  0.00    +0.000 C 
ATOM      6  C   UNL     1      -2.214  11.482  17.566  0.00  0.00    +0.000 C 
ATOM      7  C   UNL     1      -1.999  10.074  18.210  0.00  0.00    +0.000 C 
ATOM      8  O   UNL     1      -2.687   9.102  18.408  0.00  0.00    +0.000 OA
ATOM      9  N   UNL     1      -0.749  10.395  18.698  0.00  0.00    +0.000 N 
ATOM     10  C   UNL     1      -0.416  10.006  20.095  0.00  0.00    +0.000 C 
ENDROOT
BRANCH   6  11
ATOM     11  N   UNL     1      -3.512  12.207  17.843  0.00  0.00    +0.000 N 
ATOM     12  C   UNL     1      -4.692  11.858  17.203  0.00  0.00    +0.000 C 
ATOM     13  O   UNL     1      -4.718  10.962  16.356  0.00  0.00    +0.000 OA
ATOM     14  H   UNL     1      -3.539  12.942  18.544  0.00  0.00    +0.000 HD
BRANCH  12  15
ATOM     15  C   UNL     1      -5.972  12.672  17.603  0.00  0.00    +0.000 C 
BRANCH  15  16
ATOM     16  C   UNL     1      -6.615  12.218  18.907  0.00  0.00    +0.000 A 
ATOM     17  C   UNL     1      -6.950  13.174  19.885  0.00  0.00    +0.000 A 
ATOM     18  C   UNL     1      -7.497  12.788  21.112  0.00  0.00    +0.000 A 
ATOM     19  C   UNL     1      -7.739  11.442  21.373  0.00  0.00    +0.000 A 
ATOM     20  C   UNL     1      -7.473  10.490  20.392  0.00  0.00    +0.000 A 
ATOM     21  C   UNL     1      -6.930  10.874  19.162  0.00  0.00    +0.000 A 
ENDBRANCH  15  16
BRANCH  15  22
ATOM     22  N   UNL     1      -6.969  12.623  16.511  0.00  0.00    +0.000 NA
ATOM     23  H   UNL     1      -7.468  13.515  16.513  0.00  0.00    +0.000 HD
ATOM     24  H   UNL     1      -7.682  11.936  16.755  0.00  0.00    +0.000 HD
ENDBRANCH  15  22
ENDBRANCH  12  15
ENDBRANCH   6  11
BRANCH  10  25
ATOM     25  C   UNL     1       0.697   8.954  20.473  0.00  0.00    +0.000 C 
ATOM     26  O   UNL     1       0.837   8.624  21.652  0.00  0.00    +0.000 OA
BRANCH  25  27
ATOM     27  O   UNL     1       1.449   8.367  19.483  0.00  0.00    +0.000 OA
BRANCH  27  28
ATOM     28  C   UNL     1       2.572   7.602  20.024  0.00  0.00    +0.000 C 
BRANCH  28  29
ATOM     29  N   UNL     1       2.968   6.348  19.415  0.00  0.00    +0.000 N 
ATOM     30  C   UNL     1       2.158   5.229  19.656  0.00  0.00    +0.000 A 
ATOM     31  O   UNL     1       1.205   5.192  20.424  0.00  0.00    +0.000 OA
ATOM     32  O   UNL     1       2.515   4.132  18.874  0.00  0.00    +0.000 OA
ATOM     33  C   UNL     1       3.417   4.697  17.996  0.00  0.00    +0.000 A 
ATOM     34  C   UNL     1       3.948   4.004  16.914  0.00  0.00    +0.000 A 
ATOM     35  C   UNL     1       4.758   4.727  16.041  0.00  0.00    +0.000 A 
ATOM     36  C   UNL     1       4.999   6.094  16.280  0.00  0.00    +0.000 A 
ATOM     37  C   UNL     1       4.466   6.765  17.399  0.00  0.00    +0.000 A 
ATOM     38  C   UNL     1       3.677   6.038  18.263  0.00  0.00    +0.000 A 
ENDBRANCH  28  29
ENDBRANCH  27  28
ENDBRANCH  25  27
ENDBRANCH  10  25
TORSDOF 8
ENDMDL
MODEL 8
REMARK VINA RESULT:      -7.5      2.058      2.565
REMARK  Name = 
REMARK  10 active torsions:
REMARK  status: ('A' for Active; 'I' for Inactive)
REMARK    1  A    between atoms: C_1  and  C_2
REMARK    2  A    between atoms: C_2  and  C_3
REMARK    3  A    between atoms: C_6  and  N_7
REMARK    4  A    between atoms: C_8  and  C_10
REMARK    5  A    between atoms: C_10  and  N_11
REMARK    6  A    between atoms: C_10  and  C_12
REMARK    7  A    between atoms: C_21  and  C_22
REMARK    8  A    between atoms: C_22  and  O_24
REMARK    9  A    between atoms: O_24  and  C_25
REMARK   10  A    between atoms: C_25  and  N_26
REMARK                            x       y       z     vdW  Elec       q    Type
REMARK                         _______ _______ _______ _____ _____    ______ ____
ROOT
ATOM      1  C   UNL     1      -0.401   8.511  21.200  0.00  0.00    +0.000 C 
ATOM      2  C   UNL     1       0.322   9.798  20.788  0.00  0.00    +0.000 C 
ATOM      3  C   UNL     1       1.673   9.914  21.510  0.00  0.00    +0.000 C 
ATOM      4  S   UNL     1      -0.709  11.189  21.455  0.00  0.00    +0.000 S 
ATOM      5  C   UNL     1      -0.023  12.343  20.219  0.00  0.00    +0.000 C 
ATOM      6  C   UNL     1      -1.051  13.138  19.380  0.00  0.00    +0.000 C 
ATOM      7  C   UNL     1      -0.837  11.973  18.360  0.00  0.00    +0.000 C 
ATOM      8  O   UNL     1      -1.465  11.503  17.443  0.00  0.00    +0.000 OA
ATOM      9  N   UNL     1       0.276  11.490  19.018  0.00  0.00    +0.000 N 
ATOM     10  C   UNL     1       0.388  10.022  19.229  0.00  0.00    +0.000 C 
ENDROOT
BRANCH   6  11
ATOM     11  N   UNL     1      -2.433  13.339  19.960  0.00  0.00    +0.000 N 
ATOM     12  C   UNL     1      -2.758  14.473  20.691  0.00  0.00    +0.000 C 
ATOM     13  O   UNL     1      -1.918  15.345  20.924  0.00  0.00    +0.000 OA
ATOM     14  H   UNL     1      -3.161  12.654  19.779  0.00  0.00    +0.000 HD
BRANCH  12  15
ATOM     15  C   UNL     1      -4.235  14.571  21.210  0.00  0.00    +0.000 C 
BRANCH  15  16
ATOM     16  C   UNL     1      -4.513  13.739  22.454  0.00  0.00    +0.000 A 
ATOM     17  C   UNL     1      -5.845  13.475  22.830  0.00  0.00    +0.000 A 
ATOM     18  C   UNL     1      -6.137  12.755  23.992  0.00  0.00    +0.000 A 
ATOM     19  C   UNL     1      -5.103  12.266  24.785  0.00  0.00    +0.000 A 
ATOM     20  C   UNL     1      -3.780  12.463  24.394  0.00  0.00    +0.000 A 
ATOM     21  C   UNL     1      -3.486  13.179  23.230  0.00  0.00    +0.000 A 
ENDBRANCH  15  16
BRANCH  15  22
ATOM     22  N   UNL     1      -5.179  14.195  20.135  0.00  0.00    +0.000 NA
ATOM     23  H   UNL     1      -4.624  13.963  19.309  0.00  0.00    +0.000 HD
ATOM     24  H   UNL     1      -5.703  15.026  19.860  0.00  0.00    +0.000 HD
ENDBRANCH  15  22
ENDBRANCH  12  15
ENDBRANCH   6  11
BRANCH  10  25
ATOM     25  C   UNL     1       1.502   9.120  18.567  0.00  0.00    +0.000 C 
ATOM     26  O   UNL     1       2.102   9.540  17.576  0.00  0.00    +0.000 OA
BRANCH  25  27
ATOM     27  O   UNL     1       1.837   7.916  19.139  0.00  0.00    +0.000 OA
BRANCH  27  28
ATOM     28  C   UNL     1       2.883   7.222  18.388  0.00  0.00    +0.000 C 
BRANCH  28  29
ATOM     29  N   UNL     1       3.199   5.838  18.678  0.00  0.00    +0.000 N 
ATOM     30  C   UNL     1       4.534   5.435  18.531  0.00  0.00    +0.000 A 
ATOM     31  O   UNL     1       5.439   6.123  18.076  0.00  0.00    +0.000 OA
ATOM     32  O   UNL     1       4.761   4.149  19.017  0.00  0.00    +0.000 OA
ATOM     33  C   UNL     1       3.571   3.881  19.664  0.00  0.00    +0.000 A 
ATOM     34  C   UNL     1       3.377   2.744  20.438  0.00  0.00    +0.000 A 
ATOM     35  C   UNL     1       2.171   2.652  21.129  0.00  0.00    +0.000 A 
ATOM     36  C   UNL     1       1.222   3.688  21.020  0.00  0.00    +0.000 A 
ATOM     37  C   UNL     1       1.437   4.819  20.208  0.00  0.00    +0.000 A 
ATOM     38  C   UNL     1       2.628   4.894  19.520  0.00  0.00    +0.000 A 
ENDBRANCH  28  29
ENDBRANCH  27  28
ENDBRANCH  25  27
ENDBRANCH  10  25
TORSDOF 8
ENDMDL
MODEL 9
REMARK VINA RESULT:      -7.4      1.184      1.454
REMARK  Name = 
REMARK  10 active torsions:
REMARK  status: ('A' for Active; 'I' for Inactive)
REMARK    1  A    between atoms: C_1  and  C_2
REMARK    2  A    between atoms: C_2  and  C_3
REMARK    3  A    between atoms: C_6  and  N_7
REMARK    4  A    between atoms: C_8  and  C_10
REMARK    5  A    between atoms: C_10  and  N_11
REMARK    6  A    between atoms: C_10  and  C_12
REMARK    7  A    between atoms: C_21  and  C_22
REMARK    8  A    between atoms: C_22  and  O_24
REMARK    9  A    between atoms: O_24  and  C_25
REMARK   10  A    between atoms: C_25  and  N_26
REMARK                            x       y       z     vdW  Elec       q    Type
REMARK                         _______ _______ _______ _____ _____    ______ ____
ROOT
ATOM      1  C   UNL     1       0.571  11.925  20.901  0.00  0.00    +0.000 C 
ATOM      2  C   UNL     1       0.432  11.627  19.404  0.00  0.00    +0.000 C 
ATOM      3  C   UNL     1       1.715  12.019  18.653  0.00  0.00    +0.000 C 
ATOM      4  S   UNL     1      -0.873  12.789  18.780  0.00  0.00    +0.000 S 
ATOM      5  C   UNL     1      -1.232  11.690  17.368  0.00  0.00    +0.000 C 
ATOM      6  C   UNL     1      -2.715  11.299  17.166  0.00  0.00    +0.000 C 
ATOM      7  C   UNL     1      -2.300  10.041  17.995  0.00  0.00    +0.000 C 
ATOM      8  O   UNL     1      -2.877   9.221  18.667  0.00  0.00    +0.000 OA
ATOM      9  N   UNL     1      -0.950  10.305  17.876  0.00  0.00    +0.000 N 
ATOM     10  C   UNL     1      -0.098  10.177  19.089  0.00  0.00    +0.000 C 
ENDROOT
BRANCH   6  11
ATOM     11  N   UNL     1      -3.773  12.217  17.736  0.00  0.00    +0.000 N 
ATOM     12  C   UNL     1      -5.108  11.841  17.795  0.00  0.00    +0.000 C 
ATOM     13  O   UNL     1      -5.485  10.754  17.352  0.00  0.00    +0.000 OA
ATOM     14  H   UNL     1      -3.505  13.115  18.126  0.00  0.00    +0.000 HD
BRANCH  12  15
ATOM     15  C   UNL     1      -6.098  12.875  18.437  0.00  0.00    +0.000 C 
BRANCH  15  16
ATOM     16  C   UNL     1      -6.262  12.726  19.943  0.00  0.00    +0.000 A 
ATOM     17  C   UNL     1      -7.447  12.166  20.460  0.00  0.00    +0.000 A 
ATOM     18  C   UNL     1      -7.651  12.058  21.838  0.00  0.00    +0.000 A 
ATOM     19  C   UNL     1      -6.666  12.486  22.723  0.00  0.00    +0.000 A 
ATOM     20  C   UNL     1      -5.462  12.984  22.228  0.00  0.00    +0.000 A 
ATOM     21  C   UNL     1      -5.254  13.088  20.850  0.00  0.00    +0.000 A 
ENDBRANCH  15  16
BRANCH  15  22
ATOM     22  N   UNL     1      -7.419  12.791  17.778  0.00  0.00    +0.000 NA
ATOM     23  H   UNL     1      -7.994  13.551  18.147  0.00  0.00    +0.000 HD
ATOM     24  H   UNL     1      -7.887  11.943  18.101  0.00  0.00    +0.000 HD
ENDBRANCH  15  22
ENDBRANCH  12  15
ENDBRANCH   6  11
BRANCH  10  25
ATOM     25  C   UNL     1       1.045   9.101  19.252  0.00  0.00    +0.000 C 
ATOM     26  O   UNL     1       1.365   8.732  20.383  0.00  0.00    +0.000 OA
BRANCH  25  27
ATOM     27  O   UNL     1       1.620   8.539  18.137  0.00  0.00    +0.000 OA
BRANCH  27  28
ATOM     28  C   UNL     1       2.787   7.723  18.471  0.00  0.00    +0.000 C 
BRANCH  28  29
ATOM     29  N   UNL     1       2.751   6.285  18.295  0.00  0.00    +0.000 N 
ATOM     30  C   UNL     1       3.716   5.713  17.453  0.00  0.00    +0.000 A 
ATOM     31  O   UNL     1       4.519   6.332  16.767  0.00  0.00    +0.000 OA
ATOM     32  O   UNL     1       3.714   4.321  17.506  0.00  0.00    +0.000 OA
ATOM     33  C   UNL     1       2.873   4.083  18.574  0.00  0.00    +0.000 A 
ATOM     34  C   UNL     1       2.672   2.815  19.105  0.00  0.00    +0.000 A 
ATOM     35  C   UNL     1       1.889   2.730  20.254  0.00  0.00    +0.000 A 
ATOM     36  C   UNL     1       1.347   3.902  20.818  0.00  0.00    +0.000 A 
ATOM     37  C   UNL     1       1.548   5.173  20.244  0.00  0.00    +0.000 A 
ATOM     38  C   UNL     1       2.314   5.244  19.101  0.00  0.00    +0.000 A 
ENDBRANCH  28  29
ENDBRANCH  27  28
ENDBRANCH  25  27
ENDBRANCH  10  25
TORSDOF 8
ENDMDL
