MODEL 1
REMARK VINA RESULT:      -7.4      0.000      0.000
REMARK  Name = 
REMARK  7 active torsions:
REMARK  status: ('A' for Active; 'I' for Inactive)
REMARK    1  A    between atoms: C_1  and  C_2
REMARK    2  A    between atoms: C_2  and  C_3
REMARK    3  A    between atoms: C_2  and  C_4
REMARK    4  A    between atoms: C_2  and  C_5
REMARK    5  A    between atoms: N_10  and  C_11
REMARK    6  A    between atoms: C_11  and  C_12
REMARK    7  A    between atoms: C_11  and  C_18
REMARK                            x       y       z     vdW  Elec       q    Type
REMARK                         _______ _______ _______ _____ _____    ______ ____
ROOT
ATOM      1  C   UNL     1       5.941   4.900  16.472  0.00  0.00    +0.000 C 
ENDROOT
BRANCH   1   7
ATOM      2  C   UNL     1       2.491   2.772  19.579  0.00  0.00    +0.000 C 
ATOM      3  O   UNL     1       2.116   1.622  19.319  0.00  0.00    +0.000 OA
ATOM      4  N   UNL     1       3.438   3.377  18.771  0.00  0.00    +0.000 N 
ATOM      5  C   UNL     1       3.795   2.749  17.488  0.00  0.00    +0.000 C 
ATOM      6  C   UNL     1       3.729   3.774  16.324  0.00  0.00    +0.000 C 
ATOM      7  N   UNL     1       4.454   5.064  16.552  0.00  0.00    +0.000 NA
ATOM      8  C   UNL     1       3.987   5.588  17.857  0.00  0.00    +0.000 C 
ATOM      9  C   UNL     1       4.167   4.612  19.026  0.00  0.00    +0.000 C 
BRANCH   2  11
ATOM     10  C   UNL     1       1.268   2.487  21.759  0.00  0.00    +0.000 C 
ATOM     11  C   UNL     1       1.848   3.536  20.776  0.00  0.00    +0.000 C 
ATOM     12  C   UNL     1       0.656   4.380  20.293  0.00  0.00    +0.000 C 
ATOM     13  C   UNL     1       2.861   4.363  21.585  0.00  0.00    +0.000 C 
ENDBRANCH   2  11
ENDBRANCH   1   7
BRANCH   1  14
ATOM     14  C   UNL     1       6.745   6.045  17.104  0.00  0.00    +0.000 A 
ATOM     15  C   UNL     1       6.641   7.382  16.679  0.00  0.00    +0.000 A 
ATOM     16  C   UNL     1       7.330   8.399  17.348  0.00  0.00    +0.000 A 
ATOM     17  C   UNL     1       8.169   8.084  18.416  0.00  0.00    +0.000 A 
ATOM     18 CL   UNL     1       8.990   9.340  19.256  0.00  0.00    +0.000 Cl
ATOM     19  C   UNL     1       8.337   6.763  18.813  0.00  0.00    +0.000 A 
ATOM     20  C   UNL     1       7.630   5.761  18.155  0.00  0.00    +0.000 A 
ATOM     21  F   UNL     1       7.784   4.494  18.568  0.00  0.00    +0.000 F 
ENDBRANCH   1  14
BRANCH   1  22
ATOM     22  C   UNL     1       6.392   4.659  15.040  0.00  0.00    +0.000 A 
ATOM     23  C   UNL     1       5.730   3.735  14.220  0.00  0.00    +0.000 A 
ATOM     24  C   UNL     1       6.107   3.597  12.889  0.00  0.00    +0.000 A 
ATOM     25  C   UNL     1       7.149   4.376  12.417  0.00  0.00    +0.000 A 
ATOM     26  N   UNL     1       7.825   5.265  13.177  0.00  0.00    +0.000 NA
ATOM     27  C   UNL     1       7.430   5.390  14.465  0.00  0.00    +0.000 A 
ENDBRANCH   1  22
TORSDOF 4
ENDMDL
MODEL 2
REMARK VINA RESULT:      -7.3      8.913     11.558
REMARK  Name = 
REMARK  7 active torsions:
REMARK  status: ('A' for Active; 'I' for Inactive)
REMARK    1  A    between atoms: C_1  and  C_2
REMARK    2  A    between atoms: C_2  and  C_3
REMARK    3  A    between atoms: C_2  and  C_4
REMARK    4  A    between atoms: C_2  and  C_5
REMARK    5  A    between atoms: N_10  and  C_11
REMARK    6  A    between atoms: C_11  and  C_12
REMARK    7  A    between atoms: C_11  and  C_18
REMARK                            x       y       z     vdW  Elec       q    Type
REMARK                         _______ _______ _______ _____ _____    ______ ____
ROOT
ATOM      1  C   UNL     1       0.262  11.820  19.703  0.00  0.00    +0.000 C 
ENDROOT
BRANCH   1   7
ATOM      2  C   UNL     1       4.280  14.967  19.900  0.00  0.00    +0.000 C 
ATOM      3  O   UNL     1       4.892  15.050  20.971  0.00  0.00    +0.000 OA
ATOM      4  N   UNL     1       3.196  14.112  19.801  0.00  0.00    +0.000 N 
ATOM      5  C   UNL     1       2.641  13.510  21.025  0.00  0.00    +0.000 C 
ATOM      6  C   UNL     1       1.102  13.700  21.096  0.00  0.00    +0.000 C 
ATOM      7  N   UNL     1       0.341  13.306  19.868  0.00  0.00    +0.000 NA
ATOM      8  C   UNL     1       0.991  13.993  18.727  0.00  0.00    +0.000 C 
ATOM      9  C   UNL     1       2.491  13.704  18.593  0.00  0.00    +0.000 C 
BRANCH   2  11
ATOM     10  C   UNL     1       5.431  14.975  17.663  0.00  0.00    +0.000 C 
ATOM     11  C   UNL     1       4.704  15.869  18.701  0.00  0.00    +0.000 C 
ATOM     12  C   UNL     1       5.730  16.920  19.159  0.00  0.00    +0.000 C 
ATOM     13  C   UNL     1       3.513  16.498  17.960  0.00  0.00    +0.000 C 
ENDBRANCH   2  11
ENDBRANCH   1   7
BRANCH   1  14
ATOM     14  C   UNL     1      -0.819  11.342  18.724  0.00  0.00    +0.000 A 
ATOM     15  C   UNL     1      -2.047  12.006  18.552  0.00  0.00    +0.000 A 
ATOM     16  C   UNL     1      -2.961  11.578  17.583  0.00  0.00    +0.000 A 
ATOM     17  C   UNL     1      -2.679  10.452  16.811  0.00  0.00    +0.000 A 
ATOM     18 CL   UNL     1      -3.789   9.948  15.598  0.00  0.00    +0.000 Cl
ATOM     19  C   UNL     1      -1.500   9.742  17.006  0.00  0.00    +0.000 A 
ATOM     20  C   UNL     1      -0.588  10.188  17.957  0.00  0.00    +0.000 A 
ATOM     21  F   UNL     1       0.557   9.506  18.115  0.00  0.00    +0.000 F 
ENDBRANCH   1  14
BRANCH   1  22
ATOM     22  C   UNL     1       0.111  11.123  21.047  0.00  0.00    +0.000 A 
ATOM     23  C   UNL     1      -0.975  11.404  21.887  0.00  0.00    +0.000 A 
ATOM     24  C   UNL     1      -1.137  10.690  23.069  0.00  0.00    +0.000 A 
ATOM     25  C   UNL     1      -0.197   9.726  23.388  0.00  0.00    +0.000 A 
ATOM     26  N   UNL     1       0.873   9.437  22.616  0.00  0.00    +0.000 NA
ATOM     27  C   UNL     1       1.000  10.135  21.465  0.00  0.00    +0.000 A 
ENDBRANCH   1  22
TORSDOF 4
ENDMDL
MODEL 3
REMARK VINA RESULT:      -7.3      8.258     10.608
REMARK  Name = 
REMARK  7 active torsions:
REMARK  status: ('A' for Active; 'I' for Inactive)
REMARK    1  A    between atoms: C_1  and  C_2
REMARK    2  A    between atoms: C_2  and  C_3
REMARK    3  A    between atoms: C_2  and  C_4
REMARK    4  A    between atoms: C_2  and  C_5
REMARK    5  A    between atoms: N_10  and  C_11
REMARK    6  A    between atoms: C_11  and  C_12
REMARK    7  A    between atoms: C_11  and  C_18
REMARK                            x       y       z     vdW  Elec       q    Type
REMARK                         _______ _______ _______ _____ _____    ______ ____
ROOT
ATOM      1  C   UNL     1       0.002  11.256  19.093  0.00  0.00    +0.000 C 
ENDROOT
BRANCH   1   7
ATOM      2  C   UNL     1       1.800  15.688  20.886  0.00  0.00    +0.000 C 
ATOM      3  O   UNL     1       0.995  16.614  21.038  0.00  0.00    +0.000 OA
ATOM      4  N   UNL     1       1.349  14.465  20.418  0.00  0.00    +0.000 N 
ATOM      5  C   UNL     1      -0.018  14.362  19.879  0.00  0.00    +0.000 C 
ATOM      6  C   UNL     1      -0.022  13.669  18.491  0.00  0.00    +0.000 C 
ATOM      7  N   UNL     1       0.726  12.374  18.408  0.00  0.00    +0.000 NA
ATOM      8  C   UNL     1       2.077  12.629  18.961  0.00  0.00    +0.000 C 
ATOM      9  C   UNL     1       2.075  13.203  20.383  0.00  0.00    +0.000 C 
BRANCH   2  11
ATOM     10  C   UNL     1       3.496  17.423  21.549  0.00  0.00    +0.000 C 
ATOM     11  C   UNL     1       3.314  15.931  21.167  0.00  0.00    +0.000 C 
ATOM     12  C   UNL     1       4.138  15.710  19.888  0.00  0.00    +0.000 C 
ATOM     13  C   UNL     1       3.851  15.119  22.357  0.00  0.00    +0.000 C 
ENDBRANCH   2  11
ENDBRANCH   1   7
BRANCH   1  14
ATOM     14  C   UNL     1       0.767   9.926  19.129  0.00  0.00    +0.000 A 
ATOM     15  C   UNL     1       1.425   9.389  18.008  0.00  0.00    +0.000 A 
ATOM     16  C   UNL     1       2.181   8.216  18.118  0.00  0.00    +0.000 A 
ATOM     17  C   UNL     1       2.247   7.544  19.337  0.00  0.00    +0.000 A 
ATOM     18 CL   UNL     1       3.204   6.122  19.478  0.00  0.00    +0.000 Cl
ATOM     19  C   UNL     1       1.553   8.022  20.443  0.00  0.00    +0.000 A 
ATOM     20  C   UNL     1       0.821   9.200  20.329  0.00  0.00    +0.000 A 
ATOM     21  F   UNL     1       0.178   9.661  21.412  0.00  0.00    +0.000 F 
ENDBRANCH   1  14
BRANCH   1  22
ATOM     22  C   UNL     1      -1.387  11.057  18.504  0.00  0.00    +0.000 A 
ATOM     23  C   UNL     1      -1.608  10.132  17.474  0.00  0.00    +0.000 A 
ATOM     24  C   UNL     1      -2.901   9.907  17.015  0.00  0.00    +0.000 A 
ATOM     25  C   UNL     1      -3.936  10.626  17.586  0.00  0.00    +0.000 A 
ATOM     26  N   UNL     1      -3.764  11.538  18.566  0.00  0.00    +0.000 NA
ATOM     27  C   UNL     1      -2.499  11.730  19.006  0.00  0.00    +0.000 A 
ENDBRANCH   1  22
TORSDOF 4
ENDMDL
MODEL 4
REMARK VINA RESULT:      -7.2      9.026     11.637
REMARK  Name = 
REMARK  7 active torsions:
REMARK  status: ('A' for Active; 'I' for Inactive)
REMARK    1  A    between atoms: C_1  and  C_2
REMARK    2  A    between atoms: C_2  and  C_3
REMARK    3  A    between atoms: C_2  and  C_4
REMARK    4  A    between atoms: C_2  and  C_5
REMARK    5  A    between atoms: N_10  and  C_11
REMARK    6  A    between atoms: C_11  and  C_12
REMARK    7  A    between atoms: C_11  and  C_18
REMARK                            x       y       z     vdW  Elec       q    Type
REMARK                         _______ _______ _______ _____ _____    ______ ____
ROOT
ATOM      1  C   UNL     1       0.026  11.712  19.766  0.00  0.00    +0.000 C 
ENDROOT
BRANCH   1   7
ATOM      2  C   UNL     1       3.899  15.039  19.867  0.00  0.00    +0.000 C 
ATOM      3  O   UNL     1       4.619  15.052  20.873  0.00  0.00    +0.000 OA
ATOM      4  N   UNL     1       2.849  14.140  19.794  0.00  0.00    +0.000 N 
ATOM      5  C   UNL     1       2.456  13.394  21.001  0.00  0.00    +0.000 C 
ATOM      6  C   UNL     1       0.927  13.494  21.248  0.00  0.00    +0.000 C 
ATOM      7  N   UNL     1       0.056  13.178  20.071  0.00  0.00    +0.000 NA
ATOM      8  C   UNL     1       0.550  14.005  18.945  0.00  0.00    +0.000 C 
ATOM      9  C   UNL     1       2.038  13.812  18.629  0.00  0.00    +0.000 C 
BRANCH   2  11
ATOM     10  C   UNL     1       5.307  17.006  19.177  0.00  0.00    +0.000 C 
ATOM     11  C   UNL     1       4.153  16.073  18.728  0.00  0.00    +0.000 C 
ATOM     12  C   UNL     1       2.920  16.973  18.539  0.00  0.00    +0.000 C 
ATOM     13  C   UNL     1       4.614  15.428  17.411  0.00  0.00    +0.000 C 
ENDBRANCH   2  11
ENDBRANCH   1   7
BRANCH   1  14
ATOM     14  C   UNL     1      -1.069  11.288  18.777  0.00  0.00    +0.000 A 
ATOM     15  C   UNL     1      -2.328  11.910  18.713  0.00  0.00    +0.000 A 
ATOM     16  C   UNL     1      -3.257  11.543  17.733  0.00  0.00    +0.000 A 
ATOM     17  C   UNL     1      -2.956  10.515  16.841  0.00  0.00    +0.000 A 
ATOM     18 CL   UNL     1      -4.087  10.088  15.617  0.00  0.00    +0.000 Cl
ATOM     19  C   UNL     1      -1.743   9.843  16.926  0.00  0.00    +0.000 A 
ATOM     20  C   UNL     1      -0.817  10.230  17.889  0.00  0.00    +0.000 A 
ATOM     21  F   UNL     1       0.360   9.588  17.940  0.00  0.00    +0.000 F 
ENDBRANCH   1  14
BRANCH   1  22
ATOM     22  C   UNL     1      -0.058  10.886  21.041  0.00  0.00    +0.000 A 
ATOM     23  C   UNL     1       0.780   9.780  21.240  0.00  0.00    +0.000 A 
ATOM     24  C   UNL     1       0.744   9.096  22.450  0.00  0.00    +0.000 A 
ATOM     25  C   UNL     1      -0.143   9.525  23.422  0.00  0.00    +0.000 A 
ATOM     26  N   UNL     1      -0.979  10.574  23.264  0.00  0.00    +0.000 NA
ATOM     27  C   UNL     1      -0.915  11.231  22.084  0.00  0.00    +0.000 A 
ENDBRANCH   1  22
TORSDOF 4
ENDMDL
MODEL 5
REMARK VINA RESULT:      -7.1      9.463     12.329
REMARK  Name = 
REMARK  7 active torsions:
REMARK  status: ('A' for Active; 'I' for Inactive)
REMARK    1  A    between atoms: C_1  and  C_2
REMARK    2  A    between atoms: C_2  and  C_3
REMARK    3  A    between atoms: C_2  and  C_4
REMARK    4  A    between atoms: C_2  and  C_5
REMARK    5  A    between atoms: N_10  and  C_11
REMARK    6  A    between atoms: C_11  and  C_12
REMARK    7  A    between atoms: C_11  and  C_18
REMARK                            x       y       z     vdW  Elec       q    Type
REMARK                         _______ _______ _______ _____ _____    ______ ____
ROOT
ATOM      1  C   UNL     1      -0.956  12.202  20.069  0.00  0.00    +0.000 C 
ENDROOT
BRANCH   1   7
ATOM      2  C   UNL     1       3.328  14.935  19.555  0.00  0.00    +0.000 C 
ATOM      3  O   UNL     1       4.280  14.655  20.293  0.00  0.00    +0.000 OA
ATOM      4  N   UNL     1       2.155  14.206  19.651  0.00  0.00    +0.000 N 
ATOM      5  C   UNL     1       1.973  13.285  20.786  0.00  0.00    +0.000 C 
ATOM      6  C   UNL     1       0.607  13.520  21.485  0.00  0.00    +0.000 C 
ATOM      7  N   UNL     1      -0.587  13.560  20.582  0.00  0.00    +0.000 NA
ATOM      8  C   UNL     1      -0.274  14.532  19.507  0.00  0.00    +0.000 C 
ATOM      9  C   UNL     1       1.018  14.224  18.741  0.00  0.00    +0.000 C 
BRANCH   2  11
ATOM     10  C   UNL     1       4.810  16.833  18.828  0.00  0.00    +0.000 C 
ATOM     11  C   UNL     1       3.447  16.140  18.573  0.00  0.00    +0.000 C 
ATOM     12  C   UNL     1       2.365  17.189  18.880  0.00  0.00    +0.000 C 
ATOM     13  C   UNL     1       3.453  15.722  17.093  0.00  0.00    +0.000 C 
ENDBRANCH   2  11
ENDBRANCH   1   7
BRANCH   1  14
ATOM     14  C   UNL     1      -2.394  12.085  19.547  0.00  0.00    +0.000 A 
ATOM     15  C   UNL     1      -3.495  12.680  20.188  0.00  0.00    +0.000 A 
ATOM     16  C   UNL     1      -4.772  12.616  19.622  0.00  0.00    +0.000 A 
ATOM     17  C   UNL     1      -4.972  11.914  18.434  0.00  0.00    +0.000 A 
ATOM     18 CL   UNL     1      -6.537  11.865  17.723  0.00  0.00    +0.000 Cl
ATOM     19  C   UNL     1      -3.910  11.264  17.815  0.00  0.00    +0.000 A 
ATOM     20  C   UNL     1      -2.640  11.352  18.375  0.00  0.00    +0.000 A 
ATOM     21  F   UNL     1      -1.622  10.740  17.750  0.00  0.00    +0.000 F 
ENDBRANCH   1  14
BRANCH   1  22
ATOM     22  C   UNL     1      -0.676  11.126  21.107  0.00  0.00    +0.000 A 
ATOM     23  C   UNL     1       0.049   9.973  20.775  0.00  0.00    +0.000 A 
ATOM     24  C   UNL     1       0.366   9.049  21.764  0.00  0.00    +0.000 A 
ATOM     25  C   UNL     1      -0.067   9.293  23.055  0.00  0.00    +0.000 A 
ATOM     26  N   UNL     1      -0.782  10.380  23.414  0.00  0.00    +0.000 NA
ATOM     27  C   UNL     1      -1.066  11.272  22.437  0.00  0.00    +0.000 A 
ENDBRANCH   1  22
TORSDOF 4
ENDMDL
MODEL 6
REMARK VINA RESULT:      -7.1      0.909      1.537
REMARK  Name = 
REMARK  7 active torsions:
REMARK  status: ('A' for Active; 'I' for Inactive)
REMARK    1  A    between atoms: C_1  and  C_2
REMARK    2  A    between atoms: C_2  and  C_3
REMARK    3  A    between atoms: C_2  and  C_4
REMARK    4  A    between atoms: C_2  and  C_5
REMARK    5  A    between atoms: N_10  and  C_11
REMARK    6  A    between atoms: C_11  and  C_12
REMARK    7  A    between atoms: C_11  and  C_18
REMARK                            x       y       z     vdW  Elec       q    Type
REMARK                         _______ _______ _______ _____ _____    ______ ____
ROOT
ATOM      1  C   UNL     1       5.845   4.675  16.531  0.00  0.00    +0.000 C 
ENDROOT
BRANCH   1   7
ATOM      2  C   UNL     1       2.414   2.618  19.707  0.00  0.00    +0.000 C 
ATOM      3  O   UNL     1       2.075   1.446  19.504  0.00  0.00    +0.000 OA
ATOM      4  N   UNL     1       3.355   3.206  18.878  0.00  0.00    +0.000 N 
ATOM      5  C   UNL     1       3.747   2.520  17.636  0.00  0.00    +0.000 C 
ATOM      6  C   UNL     1       3.668   3.479  16.417  0.00  0.00    +0.000 C 
ATOM      7  N   UNL     1       4.354   4.800  16.584  0.00  0.00    +0.000 NA
ATOM      8  C   UNL     1       3.854   5.380  17.853  0.00  0.00    +0.000 C 
ATOM      9  C   UNL     1       4.046   4.473  19.075  0.00  0.00    +0.000 C 
BRANCH   2  11
ATOM     10  C   UNL     1       2.830   4.260  21.566  0.00  0.00    +0.000 C 
ATOM     11  C   UNL     1       1.734   3.427  20.852  0.00  0.00    +0.000 C 
ATOM     12  C   UNL     1       1.159   2.473  21.913  0.00  0.00    +0.000 C 
ATOM     13  C   UNL     1       0.692   4.439  20.349  0.00  0.00    +0.000 C 
ENDBRANCH   2  11
ENDBRANCH   1   7
BRANCH   1  14
ATOM     14  C   UNL     1       6.607   5.807  17.233  0.00  0.00    +0.000 A 
ATOM     15  C   UNL     1       7.540   5.583  18.261  0.00  0.00    +0.000 A 
ATOM     16  C   UNL     1       8.271   6.644  18.807  0.00  0.00    +0.000 A 
ATOM     17  C   UNL     1       8.040   7.946  18.365  0.00  0.00    +0.000 A 
ATOM     18 CL   UNL     1       8.963   9.244  19.014  0.00  0.00    +0.000 Cl
ATOM     19  C   UNL     1       7.077   8.200  17.395  0.00  0.00    +0.000 A 
ATOM     20  C   UNL     1       6.371   7.135  16.843  0.00  0.00    +0.000 A 
ATOM     21  F   UNL     1       5.464   7.395  15.890  0.00  0.00    +0.000 F 
ENDBRANCH   1  14
BRANCH   1  22
ATOM     22  C   UNL     1       6.334   4.511  15.100  0.00  0.00    +0.000 A 
ATOM     23  C   UNL     1       5.639   3.704  14.188  0.00  0.00    +0.000 A 
ATOM     24  C   UNL     1       6.058   3.642  12.863  0.00  0.00    +0.000 A 
ATOM     25  C   UNL     1       7.171   4.374  12.490  0.00  0.00    +0.000 A 
ATOM     26  N   UNL     1       7.879   5.148  13.340  0.00  0.00    +0.000 NA
ATOM     27  C   UNL     1       7.444   5.203  14.620  0.00  0.00    +0.000 A 
ENDBRANCH   1  22
TORSDOF 4
ENDMDL
MODEL 7
REMARK VINA RESULT:      -7.0      1.119      1.625
REMARK  Name = 
REMARK  7 active torsions:
REMARK  status: ('A' for Active; 'I' for Inactive)
REMARK    1  A    between atoms: C_1  and  C_2
REMARK    2  A    between atoms: C_2  and  C_3
REMARK    3  A    between atoms: C_2  and  C_4
REMARK    4  A    between atoms: C_2  and  C_5
REMARK    5  A    between atoms: N_10  and  C_11
REMARK    6  A    between atoms: C_11  and  C_12
REMARK    7  A    between atoms: C_11  and  C_18
REMARK                            x       y       z     vdW  Elec       q    Type
REMARK                         _______ _______ _______ _____ _____    ______ ____
ROOT
ATOM      1  C   UNL     1       5.724   4.536  16.323  0.00  0.00    +0.000 C 
ENDROOT
BRANCH   1   7
ATOM      2  C   UNL     1       2.455   2.570  19.719  0.00  0.00    +0.000 C 
ATOM      3  O   UNL     1       2.134   1.384  19.586  0.00  0.00    +0.000 OA
ATOM      4  N   UNL     1       3.352   3.136  18.829  0.00  0.00    +0.000 N 
ATOM      5  C   UNL     1       3.713   2.398  17.607  0.00  0.00    +0.000 C 
ATOM      6  C   UNL     1       3.570   3.294  16.348  0.00  0.00    +0.000 C 
ATOM      7  N   UNL     1       4.233   4.635  16.425  0.00  0.00    +0.000 NA
ATOM      8  C   UNL     1       3.768   5.266  17.683  0.00  0.00    +0.000 C 
ATOM      9  C   UNL     1       4.022   4.424  18.939  0.00  0.00    +0.000 C 
BRANCH   2  11
ATOM     10  C   UNL     1       1.205   2.447  21.899  0.00  0.00    +0.000 C 
ATOM     11  C   UNL     1       1.800   3.421  20.849  0.00  0.00    +0.000 C 
ATOM     12  C   UNL     1       0.615   4.230  20.292  0.00  0.00    +0.000 C 
ATOM     13  C   UNL     1       2.804   4.303  21.608  0.00  0.00    +0.000 C 
ENDBRANCH   2  11
ENDBRANCH   1   7
BRANCH   1  14
ATOM     14  C   UNL     1       6.489   5.651  17.049  0.00  0.00    +0.000 A 
ATOM     15  C   UNL     1       7.443   5.400  18.051  0.00  0.00    +0.000 A 
ATOM     16  C   UNL     1       8.175   6.448  18.619  0.00  0.00    +0.000 A 
ATOM     17  C   UNL     1       7.926   7.762  18.227  0.00  0.00    +0.000 A 
ATOM     18 CL   UNL     1       8.850   9.045  18.903  0.00  0.00    +0.000 Cl
ATOM     19  C   UNL     1       6.943   8.041  17.285  0.00  0.00    +0.000 A 
ATOM     20  C   UNL     1       6.235   6.989  16.710  0.00  0.00    +0.000 A 
ATOM     21  F   UNL     1       5.308   7.274  15.783  0.00  0.00    +0.000 F 
ENDBRANCH   1  14
BRANCH   1  22
ATOM     22  C   UNL     1       6.171   4.440  14.872  0.00  0.00    +0.000 A 
ATOM     23  C   UNL     1       7.327   5.098  14.428  0.00  0.00    +0.000 A 
ATOM     24  C   UNL     1       7.761   4.922  13.119  0.00  0.00    +0.000 A 
ATOM     25  C   UNL     1       7.018   4.107  12.284  0.00  0.00    +0.000 A 
ATOM     26  N   UNL     1       5.891   3.470  12.666  0.00  0.00    +0.000 NA
ATOM     27  C   UNL     1       5.496   3.646  13.948  0.00  0.00    +0.000 A 
ENDBRANCH   1  22
TORSDOF 4
ENDMDL
MODEL 8
REMARK VINA RESULT:      -7.0      3.564      5.441
REMARK  Name = 
REMARK  7 active torsions:
REMARK  status: ('A' for Active; 'I' for Inactive)
REMARK    1  A    between atoms: C_1  and  C_2
REMARK    2  A    between atoms: C_2  and  C_3
REMARK    3  A    between atoms: C_2  and  C_4
REMARK    4  A    between atoms: C_2  and  C_5
REMARK    5  A    between atoms: N_10  and  C_11
REMARK    6  A    between atoms: C_11  and  C_12
REMARK    7  A    between atoms: C_11  and  C_18
REMARK                            x       y       z     vdW  Elec       q    Type
REMARK                         _______ _______ _______ _____ _____    ______ ____
ROOT
ATOM      1  C   UNL     1       4.134   4.831  18.093  0.00  0.00    +0.000 C 
ENDROOT
BRANCH   1   7
ATOM      2  C   UNL     1       1.384   8.751  19.869  0.00  0.00    +0.000 C 
ATOM      3  O   UNL     1       0.882   8.637  20.994  0.00  0.00    +0.000 OA
ATOM      4  N   UNL     1       2.151   7.717  19.359  0.00  0.00    +0.000 N 
ATOM      5  C   UNL     1       2.152   6.415  20.048  0.00  0.00    +0.000 C 
ATOM      6  C   UNL     1       1.880   5.255  19.053  0.00  0.00    +0.000 C 
ATOM      7  N   UNL     1       2.723   5.249  17.815  0.00  0.00    +0.000 NA
ATOM      8  C   UNL     1       2.614   6.603  17.222  0.00  0.00    +0.000 C 
ATOM      9  C   UNL     1       3.000   7.739  18.176  0.00  0.00    +0.000 C 
BRANCH   2  11
ATOM     10  C   UNL     1       0.779  11.189  20.005  0.00  0.00    +0.000 C 
ATOM     11  C   UNL     1       1.095  10.029  19.025  0.00  0.00    +0.000 C 
ATOM     12  C   UNL     1      -0.168   9.832  18.170  0.00  0.00    +0.000 C 
ATOM     13  C   UNL     1       2.300  10.494  18.191  0.00  0.00    +0.000 C 
ENDBRANCH   2  11
ENDBRANCH   1   7
BRANCH   1  14
ATOM     14  C   UNL     1       5.067   4.884  16.876  0.00  0.00    +0.000 A 
ATOM     15  C   UNL     1       4.782   4.236  15.660  0.00  0.00    +0.000 A 
ATOM     16  C   UNL     1       5.624   4.390  14.554  0.00  0.00    +0.000 A 
ATOM     17  C   UNL     1       6.787   5.151  14.666  0.00  0.00    +0.000 A 
ATOM     18 CL   UNL     1       7.803   5.364  13.295  0.00  0.00    +0.000 Cl
ATOM     19  C   UNL     1       7.123   5.748  15.875  0.00  0.00    +0.000 A 
ATOM     20  C   UNL     1       6.267   5.607  16.963  0.00  0.00    +0.000 A 
ATOM     21  F   UNL     1       6.594   6.212  18.116  0.00  0.00    +0.000 F 
ENDBRANCH   1  14
BRANCH   1  22
ATOM     22  C   UNL     1       4.184   3.457  18.744  0.00  0.00    +0.000 A 
ATOM     23  C   UNL     1       3.591   2.345  18.129  0.00  0.00    +0.000 A 
ATOM     24  C   UNL     1       3.727   1.085  18.701  0.00  0.00    +0.000 A 
ATOM     25  C   UNL     1       4.437   0.974  19.884  0.00  0.00    +0.000 A 
ATOM     26  N   UNL     1       5.008   2.020  20.517  0.00  0.00    +0.000 NA
ATOM     27  C   UNL     1       4.874   3.233  19.933  0.00  0.00    +0.000 A 
ENDBRANCH   1  22
TORSDOF 4
ENDMDL
MODEL 9
REMARK VINA RESULT:      -6.9      4.042      6.164
REMARK  Name = 
REMARK  7 active torsions:
REMARK  status: ('A' for Active; 'I' for Inactive)
REMARK    1  A    between atoms: C_1  and  C_2
REMARK    2  A    between atoms: C_2  and  C_3
REMARK    3  A    between atoms: C_2  and  C_4
REMARK    4  A    between atoms: C_2  and  C_5
REMARK    5  A    between atoms: N_10  and  C_11
REMARK    6  A    between atoms: C_11  and  C_12
REMARK    7  A    between atoms: C_11  and  C_18
REMARK                            x       y       z     vdW  Elec       q    Type
REMARK                         _______ _______ _______ _____ _____    ______ ____
ROOT
ATOM      1  C   UNL     1       3.603   5.470  19.036  0.00  0.00    +0.000 C 
ENDROOT
BRANCH   1   7
ATOM      2  C   UNL     1       0.840   9.622  20.136  0.00  0.00    +0.000 C 
ATOM      3  O   UNL     1       0.396   9.729  21.285  0.00  0.00    +0.000 OA
ATOM      4  N   UNL     1       1.609   8.520  19.803  0.00  0.00    +0.000 N 
ATOM      5  C   UNL     1       1.676   7.383  20.737  0.00  0.00    +0.000 C 
ATOM      6  C   UNL     1       1.387   6.043  20.009  0.00  0.00    +0.000 C 
ATOM      7  N   UNL     1       2.170   5.802  18.755  0.00  0.00    +0.000 NA
ATOM      8  C   UNL     1       1.998   7.007  17.910  0.00  0.00    +0.000 C 
ATOM      9  C   UNL     1       2.400   8.317  18.597  0.00  0.00    +0.000 C 
BRANCH   2  11
ATOM     10  C   UNL     1      -0.443  11.750  19.744  0.00  0.00    +0.000 C 
ATOM     11  C   UNL     1       0.479  10.701  19.070  0.00  0.00    +0.000 C 
ATOM     12  C   UNL     1      -0.343  10.073  17.931  0.00  0.00    +0.000 C 
ATOM     13  C   UNL     1       1.699  11.479  18.552  0.00  0.00    +0.000 C 
ENDBRANCH   2  11
ENDBRANCH   1   7
BRANCH   1  14
ATOM     14  C   UNL     1       4.505   5.426  17.795  0.00  0.00    +0.000 A 
ATOM     15  C   UNL     1       5.627   6.258  17.631  0.00  0.00    +0.000 A 
ATOM     16  C   UNL     1       6.465   6.116  16.520  0.00  0.00    +0.000 A 
ATOM     17  C   UNL     1       6.162   5.175  15.537  0.00  0.00    +0.000 A 
ATOM     18 CL   UNL     1       7.212   4.980  14.189  0.00  0.00    +0.000 Cl
ATOM     19  C   UNL     1       5.023   4.385  15.645  0.00  0.00    +0.000 A 
ATOM     20  C   UNL     1       4.208   4.519  16.765  0.00  0.00    +0.000 A 
ATOM     21  F   UNL     1       3.127   3.732  16.867  0.00  0.00    +0.000 F 
ENDBRANCH   1  14
BRANCH   1  22
ATOM     22  C   UNL     1       3.724   4.177  19.829  0.00  0.00    +0.000 A 
ATOM     23  C   UNL     1       2.712   3.774  20.711  0.00  0.00    +0.000 A 
ATOM     24  C   UNL     1       2.808   2.546  21.356  0.00  0.00    +0.000 A 
ATOM     25  C   UNL     1       3.922   1.762  21.116  0.00  0.00    +0.000 A 
ATOM     26  N   UNL     1       4.927   2.120  20.289  0.00  0.00    +0.000 NA
ATOM     27  C   UNL     1       4.805   3.313  19.662  0.00  0.00    +0.000 A 
ENDBRANCH   1  22
TORSDOF 4
ENDMDL
