MODEL 1
REMARK VINA RESULT:      -7.9      0.000      0.000
REMARK  Name = 
REMARK  10 active torsions:
REMARK  status: ('A' for Active; 'I' for Inactive)
REMARK    1  A    between atoms: C_2  and  O_3
REMARK    2  A    between atoms: C_2  and  C_4
REMARK    3  A    between atoms: C_4  and  C_5
REMARK    4  A    between atoms: C_8  and  C_9
REMARK    5  A    between atoms: C_14  and  N_15
REMARK    6  A    between atoms: C_16  and  C_18
REMARK    7  A    between atoms: C_18  and  C_19
REMARK    8  A    between atoms: C_22  and  O_23
REMARK    9  A    between atoms: C_24  and  O_25
REMARK   10  A    between atoms: C_26  and  O_27
REMARK                            x       y       z     vdW  Elec       q    Type
REMARK                         _______ _______ _______ _____ _____    ______ ____
ROOT
ATOM      1  N   UNL     1       2.321   5.757  17.914  0.00  0.00    +0.000 N 
ATOM      2  C   UNL     1       2.328   6.645  18.991  0.00  0.00    +0.000 C 
ATOM      3  O   UNL     1       2.288   6.304  20.167  0.00  0.00    +0.000 OA
ATOM      4  H   UNL     1       2.885   6.062  17.130  0.00  0.00    +0.000 HD
ENDROOT
BRANCH   1  10
ATOM      5  C   UNL     1       3.557   3.625  18.141  0.00  0.00    +0.000 A 
ATOM      6  C   UNL     1       3.475   2.242  18.399  0.00  0.00    +0.000 A 
ATOM      7  C   UNL     1       2.246   1.606  18.599  0.00  0.00    +0.000 A 
ATOM      8  C   UNL     1       1.070   2.345  18.577  0.00  0.00    +0.000 A 
ATOM      9  C   UNL     1       1.124   3.723  18.391  0.00  0.00    +0.000 A 
ATOM     10  C   UNL     1       2.355   4.365  18.173  0.00  0.00    +0.000 A 
BRANCH   5  14
ATOM     11  C   UNL     1       7.011   5.496  18.165  0.00  0.00    +0.000 A 
ATOM     12  C   UNL     1       6.921   4.891  16.929  0.00  0.00    +0.000 A 
ATOM     13  C   UNL     1       5.679   4.213  16.758  0.00  0.00    +0.000 A 
ATOM     14  C   UNL     1       4.875   4.250  17.886  0.00  0.00    +0.000 A 
ATOM     15  S   UNL     1       5.634   5.176  19.121  0.00  0.00    +0.000 S 
BRANCH  11  16
ATOM     16  C   UNL     1       8.123   6.338  18.717  0.00  0.00    +0.000 C 
BRANCH  16  18
ATOM     17  O   UNL     1       7.482   8.054  17.162  0.00  0.00    +0.000 OA
ATOM     18  C   UNL     1       8.106   7.747  18.172  0.00  0.00    +0.000 C 
BRANCH  18  19
ATOM     19  O   UNL     1       8.756   8.682  18.900  0.00  0.00    +0.000 OA
ATOM     20  H   UNL     1       9.668   8.865  18.599  0.00  0.00    +0.000 HD
ENDBRANCH  18  19
ENDBRANCH  16  18
ENDBRANCH  11  16
ENDBRANCH   5  14
ENDBRANCH   1  10
BRANCH   2  21
ATOM     21  C   UNL     1       2.519   8.099  18.567  0.00  0.00    +0.000 C 
BRANCH  21  22
ATOM     22  C   UNL     1       1.367   8.999  18.940  0.00  0.00    +0.000 A 
ATOM     23  C   UNL     1       0.558   9.575  17.941  0.00  0.00    +0.000 A 
ATOM     24  C   UNL     1      -0.522  10.406  18.267  0.00  0.00    +0.000 A 
ATOM     25  C   UNL     1      -0.803  10.658  19.603  0.00  0.00    +0.000 A 
ATOM     26  C   UNL     1      -0.021  10.088  20.598  0.00  0.00    +0.000 A 
ATOM     27  C   UNL     1       1.054   9.266  20.273  0.00  0.00    +0.000 A 
BRANCH  25  28
ATOM     28  O   UNL     1      -1.841  11.461  19.988  0.00  0.00    +0.000 OA
ATOM     29  H   UNL     1      -1.483  12.154  20.569  0.00  0.00    +0.000 HD
ENDBRANCH  25  28
BRANCH  26  30
ATOM     30  O   UNL     1      -0.299  10.324  21.919  0.00  0.00    +0.000 OA
ATOM     31  H   UNL     1      -0.399  11.297  21.969  0.00  0.00    +0.000 HD
ENDBRANCH  26  30
BRANCH  27  32
ATOM     32  O   UNL     1       1.790   8.713  21.286  0.00  0.00    +0.000 OA
ATOM     33  H   UNL     1       1.397   9.090  22.101  0.00  0.00    +0.000 HD
ENDBRANCH  27  32
ENDBRANCH  21  22
ENDBRANCH   2  21
TORSDOF 10
ENDMDL
MODEL 2
REMARK VINA RESULT:      -7.8      1.135      1.474
REMARK  Name = 
REMARK  10 active torsions:
REMARK  status: ('A' for Active; 'I' for Inactive)
REMARK    1  A    between atoms: C_2  and  O_3
REMARK    2  A    between atoms: C_2  and  C_4
REMARK    3  A    between atoms: C_4  and  C_5
REMARK    4  A    between atoms: C_8  and  C_9
REMARK    5  A    between atoms: C_14  and  N_15
REMARK    6  A    between atoms: C_16  and  C_18
REMARK    7  A    between atoms: C_18  and  C_19
REMARK    8  A    between atoms: C_22  and  O_23
REMARK    9  A    between atoms: C_24  and  O_25
REMARK   10  A    between atoms: C_26  and  O_27
REMARK                            x       y       z     vdW  Elec       q    Type
REMARK                         _______ _______ _______ _____ _____    ______ ____
ROOT
ATOM      1  N   UNL     1       2.268   5.748  17.836  0.00  0.00    +0.000 N 
ATOM      2  C   UNL     1       2.398   6.701  18.848  0.00  0.00    +0.000 C 
ATOM      3  O   UNL     1       2.472   6.435  20.041  0.00  0.00    +0.000 OA
ATOM      4  H   UNL     1       2.754   5.991  16.982  0.00  0.00    +0.000 HD
ENDROOT
BRANCH   1  10
ATOM      5  C   UNL     1       3.510   3.640  18.201  0.00  0.00    +0.000 A 
ATOM      6  C   UNL     1       3.432   2.274  18.542  0.00  0.00    +0.000 A 
ATOM      7  C   UNL     1       2.204   1.646  18.773  0.00  0.00    +0.000 A 
ATOM      8  C   UNL     1       1.025   2.377  18.698  0.00  0.00    +0.000 A 
ATOM      9  C   UNL     1       1.076   3.742  18.429  0.00  0.00    +0.000 A 
ATOM     10  C   UNL     1       2.305   4.375  18.180  0.00  0.00    +0.000 A 
BRANCH   5  14
ATOM     11  C   UNL     1       6.986   5.470  18.152  0.00  0.00    +0.000 A 
ATOM     12  C   UNL     1       6.852   4.886  16.910  0.00  0.00    +0.000 A 
ATOM     13  C   UNL     1       5.598   4.225  16.765  0.00  0.00    +0.000 A 
ATOM     14  C   UNL     1       4.828   4.253  17.916  0.00  0.00    +0.000 A 
ATOM     15  S   UNL     1       5.634   5.150  19.144  0.00  0.00    +0.000 S 
BRANCH  11  16
ATOM     16  C   UNL     1       8.124   6.290  18.684  0.00  0.00    +0.000 C 
BRANCH  16  18
ATOM     17  O   UNL     1       7.466   8.038  17.171  0.00  0.00    +0.000 OA
ATOM     18  C   UNL     1       8.105   7.708  18.166  0.00  0.00    +0.000 C 
BRANCH  18  19
ATOM     19  O   UNL     1       8.771   8.627  18.900  0.00  0.00    +0.000 OA
ATOM     20  H   UNL     1       8.316   8.891  19.725  0.00  0.00    +0.000 HD
ENDBRANCH  18  19
ENDBRANCH  16  18
ENDBRANCH  11  16
ENDBRANCH   5  14
ENDBRANCH   1  10
BRANCH   2  21
ATOM     21  C   UNL     1       2.569   8.121  18.314  0.00  0.00    +0.000 C 
BRANCH  21  22
ATOM     22  C   UNL     1       1.586   9.111  18.889  0.00  0.00    +0.000 A 
ATOM     23  C   UNL     1       0.781   8.761  19.990  0.00  0.00    +0.000 A 
ATOM     24  C   UNL     1      -0.131   9.669  20.544  0.00  0.00    +0.000 A 
ATOM     25  C   UNL     1      -0.234  10.943  20.001  0.00  0.00    +0.000 A 
ATOM     26  C   UNL     1       0.562  11.305  18.923  0.00  0.00    +0.000 A 
ATOM     27  C   UNL     1       1.465  10.401  18.370  0.00  0.00    +0.000 A 
BRANCH  25  28
ATOM     28  O   UNL     1      -1.105  11.874  20.494  0.00  0.00    +0.000 OA
ATOM     29  H   UNL     1      -1.010  11.890  21.462  0.00  0.00    +0.000 HD
ENDBRANCH  25  28
BRANCH  26  30
ATOM     30  O   UNL     1       0.475  12.564  18.387  0.00  0.00    +0.000 OA
ATOM     31  H   UNL     1      -0.210  12.476  17.692  0.00  0.00    +0.000 HD
ENDBRANCH  26  30
BRANCH  27  32
ATOM     32  O   UNL     1       2.240  10.805  17.318  0.00  0.00    +0.000 OA
ATOM     33  H   UNL     1       2.955  11.331  17.734  0.00  0.00    +0.000 HD
ENDBRANCH  27  32
ENDBRANCH  21  22
ENDBRANCH   2  21
TORSDOF 10
ENDMDL
MODEL 3
REMARK VINA RESULT:      -7.7      2.055      6.567
REMARK  Name = 
REMARK  10 active torsions:
REMARK  status: ('A' for Active; 'I' for Inactive)
REMARK    1  A    between atoms: C_2  and  O_3
REMARK    2  A    between atoms: C_2  and  C_4
REMARK    3  A    between atoms: C_4  and  C_5
REMARK    4  A    between atoms: C_8  and  C_9
REMARK    5  A    between atoms: C_14  and  N_15
REMARK    6  A    between atoms: C_16  and  C_18
REMARK    7  A    between atoms: C_18  and  C_19
REMARK    8  A    between atoms: C_22  and  O_23
REMARK    9  A    between atoms: C_24  and  O_25
REMARK   10  A    between atoms: C_26  and  O_27
REMARK                            x       y       z     vdW  Elec       q    Type
REMARK                         _______ _______ _______ _____ _____    ______ ____
ROOT
ATOM      1  N   UNL     1       4.484   4.062  18.822  0.00  0.00    +0.000 N 
ATOM      2  C   UNL     1       4.408   3.603  17.505  0.00  0.00    +0.000 C 
ATOM      3  O   UNL     1       3.480   2.940  17.059  0.00  0.00    +0.000 OA
ATOM      4  H   UNL     1       4.920   4.971  18.912  0.00  0.00    +0.000 HD
ENDROOT
BRANCH   1  10
ATOM      5  C   UNL     1       2.387   4.796  19.911  0.00  0.00    +0.000 A 
ATOM      6  C   UNL     1       1.353   4.466  20.811  0.00  0.00    +0.000 A 
ATOM      7  C   UNL     1       1.358   3.264  21.524  0.00  0.00    +0.000 A 
ATOM      8  C   UNL     1       2.383   2.346  21.331  0.00  0.00    +0.000 A 
ATOM      9  C   UNL     1       3.383   2.615  20.400  0.00  0.00    +0.000 A 
ATOM     10  C   UNL     1       3.392   3.828  19.693  0.00  0.00    +0.000 A 
BRANCH   5  14
ATOM     11  C   UNL     1       2.041   8.512  18.685  0.00  0.00    +0.000 A 
ATOM     12  C   UNL     1       2.704   7.845  17.677  0.00  0.00    +0.000 A 
ATOM     13  C   UNL     1       2.853   6.457  17.966  0.00  0.00    +0.000 A 
ATOM     14  C   UNL     1       2.368   6.102  19.214  0.00  0.00    +0.000 A 
ATOM     15  S   UNL     1       1.676   7.473  19.990  0.00  0.00    +0.000 S 
BRANCH  11  16
ATOM     16  C   UNL     1       1.646   9.957  18.750  0.00  0.00    +0.000 C 
BRANCH  16  18
ATOM     17  O   UNL     1      -0.484  10.391  19.776  0.00  0.00    +0.000 OA
ATOM     18  C   UNL     1       0.148  10.148  18.752  0.00  0.00    +0.000 C 
BRANCH  18  19
ATOM     19  O   UNL     1      -0.466  10.114  17.548  0.00  0.00    +0.000 OA
ATOM     20  H   UNL     1      -1.434   9.979  17.592  0.00  0.00    +0.000 HD
ENDBRANCH  18  19
ENDBRANCH  16  18
ENDBRANCH  11  16
ENDBRANCH   5  14
ENDBRANCH   1  10
BRANCH   2  21
ATOM     21  C   UNL     1       5.544   4.118  16.625  0.00  0.00    +0.000 C 
BRANCH  21  22
ATOM     22  C   UNL     1       6.418   5.146  17.300  0.00  0.00    +0.000 A 
ATOM     23  C   UNL     1       7.266   4.777  18.363  0.00  0.00    +0.000 A 
ATOM     24  C   UNL     1       8.092   5.714  18.996  0.00  0.00    +0.000 A 
ATOM     25  C   UNL     1       8.081   7.032  18.558  0.00  0.00    +0.000 A 
ATOM     26  C   UNL     1       7.260   7.408  17.504  0.00  0.00    +0.000 A 
ATOM     27  C   UNL     1       6.435   6.476  16.878  0.00  0.00    +0.000 A 
BRANCH  25  28
ATOM     28  O   UNL     1       8.862   7.995  19.134  0.00  0.00    +0.000 OA
ATOM     29  H   UNL     1       9.690   8.051  18.627  0.00  0.00    +0.000 HD
ENDBRANCH  25  28
BRANCH  26  30
ATOM     30  O   UNL     1       7.250   8.704  17.060  0.00  0.00    +0.000 OA
ATOM     31  H   UNL     1       7.011   9.224  17.855  0.00  0.00    +0.000 HD
ENDBRANCH  26  30
BRANCH  27  32
ATOM     32  O   UNL     1       5.653   6.887  15.834  0.00  0.00    +0.000 OA
ATOM     33  H   UNL     1       5.346   6.053  15.421  0.00  0.00    +0.000 HD
ENDBRANCH  27  32
ENDBRANCH  21  22
ENDBRANCH   2  21
TORSDOF 10
ENDMDL
MODEL 4
REMARK VINA RESULT:      -7.7      1.956      2.422
REMARK  Name = 
REMARK  10 active torsions:
REMARK  status: ('A' for Active; 'I' for Inactive)
REMARK    1  A    between atoms: C_2  and  O_3
REMARK    2  A    between atoms: C_2  and  C_4
REMARK    3  A    between atoms: C_4  and  C_5
REMARK    4  A    between atoms: C_8  and  C_9
REMARK    5  A    between atoms: C_14  and  N_15
REMARK    6  A    between atoms: C_16  and  C_18
REMARK    7  A    between atoms: C_18  and  C_19
REMARK    8  A    between atoms: C_22  and  O_23
REMARK    9  A    between atoms: C_24  and  O_25
REMARK   10  A    between atoms: C_26  and  O_27
REMARK                            x       y       z     vdW  Elec       q    Type
REMARK                         _______ _______ _______ _____ _____    ______ ____
ROOT
ATOM      1  N   UNL     1       3.002   6.428  19.736  0.00  0.00    +0.000 N 
ATOM      2  C   UNL     1       2.503   6.901  18.521  0.00  0.00    +0.000 C 
ATOM      3  O   UNL     1       1.936   6.203  17.689  0.00  0.00    +0.000 OA
ATOM      4  H   UNL     1       2.919   7.091  20.497  0.00  0.00    +0.000 HD
ENDROOT
BRANCH   1  10
ATOM      5  C   UNL     1       3.642   4.039  19.674  0.00  0.00    +0.000 A 
ATOM      6  C   UNL     1       3.316   2.725  20.067  0.00  0.00    +0.000 A 
ATOM      7  C   UNL     1       2.142   2.441  20.771  0.00  0.00    +0.000 A 
ATOM      8  C   UNL     1       1.279   3.470  21.126  0.00  0.00    +0.000 A 
ATOM      9  C   UNL     1       1.607   4.786  20.809  0.00  0.00    +0.000 A 
ATOM     10  C   UNL     1       2.777   5.075  20.088  0.00  0.00    +0.000 A 
BRANCH   5  14
ATOM     11  C   UNL     1       6.503   4.466  17.016  0.00  0.00    +0.000 A 
ATOM     12  C   UNL     1       7.008   4.972  18.195  0.00  0.00    +0.000 A 
ATOM     13  C   UNL     1       6.086   4.831  19.272  0.00  0.00    +0.000 A 
ATOM     14  C   UNL     1       4.871   4.288  18.886  0.00  0.00    +0.000 A 
ATOM     15  S   UNL     1       4.904   3.899  17.211  0.00  0.00    +0.000 S 
BRANCH  11  16
ATOM     16  C   UNL     1       7.166   4.380  15.673  0.00  0.00    +0.000 C 
BRANCH  16  18
ATOM     17  O   UNL     1       5.926   4.046  13.642  0.00  0.00    +0.000 OA
ATOM     18  C   UNL     1       6.252   4.806  14.548  0.00  0.00    +0.000 C 
BRANCH  18  19
ATOM     19  O   UNL     1       5.741   6.054  14.627  0.00  0.00    +0.000 OA
ATOM     20  H   UNL     1       4.993   6.223  14.019  0.00  0.00    +0.000 HD
ENDBRANCH  18  19
ENDBRANCH  16  18
ENDBRANCH  11  16
ENDBRANCH   5  14
ENDBRANCH   1  10
BRANCH   2  21
ATOM     21  C   UNL     1       2.619   8.416  18.376  0.00  0.00    +0.000 C 
BRANCH  21  22
ATOM     22  C   UNL     1       1.397   9.168  18.843  0.00  0.00    +0.000 A 
ATOM     23  C   UNL     1       0.567   9.830  17.917  0.00  0.00    +0.000 A 
ATOM     24  C   UNL     1      -0.576  10.526  18.330  0.00  0.00    +0.000 A 
ATOM     25  C   UNL     1      -0.901  10.554  19.679  0.00  0.00    +0.000 A 
ATOM     26  C   UNL     1      -0.100   9.896  20.602  0.00  0.00    +0.000 A 
ATOM     27  C   UNL     1       1.040   9.209  20.191  0.00  0.00    +0.000 A 
BRANCH  25  28
ATOM     28  O   UNL     1      -2.002  11.216  20.147  0.00  0.00    +0.000 OA
ATOM     29  H   UNL     1      -1.808  11.517  21.052  0.00  0.00    +0.000 HD
ENDBRANCH  25  28
BRANCH  26  30
ATOM     30  O   UNL     1      -0.419   9.910  21.934  0.00  0.00    +0.000 OA
ATOM     31  H   UNL     1      -0.001   9.097  22.285  0.00  0.00    +0.000 HD
ENDBRANCH  26  30
BRANCH  27  32
ATOM     32  O   UNL     1       1.793   8.563  21.132  0.00  0.00    +0.000 OA
ATOM     33  H   UNL     1       2.239   9.286  21.620  0.00  0.00    +0.000 HD
ENDBRANCH  27  32
ENDBRANCH  21  22
ENDBRANCH   2  21
TORSDOF 10
ENDMDL
MODEL 5
REMARK VINA RESULT:      -7.6      2.190      2.881
REMARK  Name = 
REMARK  10 active torsions:
REMARK  status: ('A' for Active; 'I' for Inactive)
REMARK    1  A    between atoms: C_2  and  O_3
REMARK    2  A    between atoms: C_2  and  C_4
REMARK    3  A    between atoms: C_4  and  C_5
REMARK    4  A    between atoms: C_8  and  C_9
REMARK    5  A    between atoms: C_14  and  N_15
REMARK    6  A    between atoms: C_16  and  C_18
REMARK    7  A    between atoms: C_18  and  C_19
REMARK    8  A    between atoms: C_22  and  O_23
REMARK    9  A    between atoms: C_24  and  O_25
REMARK   10  A    between atoms: C_26  and  O_27
REMARK                            x       y       z     vdW  Elec       q    Type
REMARK                         _______ _______ _______ _____ _____    ______ ____
ROOT
ATOM      1  N   UNL     1       2.895   6.342  19.826  0.00  0.00    +0.000 N 
ATOM      2  C   UNL     1       2.354   6.753  18.606  0.00  0.00    +0.000 C 
ATOM      3  O   UNL     1       1.859   5.995  17.781  0.00  0.00    +0.000 OA
ATOM      4  H   UNL     1       2.746   7.000  20.581  0.00  0.00    +0.000 HD
ENDROOT
BRANCH   1  10
ATOM      5  C   UNL     1       3.775   4.030  19.797  0.00  0.00    +0.000 A 
ATOM      6  C   UNL     1       3.580   2.693  20.201  0.00  0.00    +0.000 A 
ATOM      7  C   UNL     1       2.432   2.298  20.893  0.00  0.00    +0.000 A 
ATOM      8  C   UNL     1       1.464   3.238  21.227  0.00  0.00    +0.000 A 
ATOM      9  C   UNL     1       1.660   4.577  20.900  0.00  0.00    +0.000 A 
ATOM     10  C   UNL     1       2.804   4.977  20.190  0.00  0.00    +0.000 A 
BRANCH   5  14
ATOM     11  C   UNL     1       6.631   4.681  17.179  0.00  0.00    +0.000 A 
ATOM     12  C   UNL     1       7.029   5.319  18.335  0.00  0.00    +0.000 A 
ATOM     13  C   UNL     1       6.103   5.119  19.400  0.00  0.00    +0.000 A 
ATOM     14  C   UNL     1       4.983   4.396  19.023  0.00  0.00    +0.000 A 
ATOM     15  S   UNL     1       5.117   3.917  17.376  0.00  0.00    +0.000 S 
BRANCH  11  16
ATOM     16  C   UNL     1       7.339   4.606  15.859  0.00  0.00    +0.000 C 
BRANCH  16  18
ATOM     17  O   UNL     1       5.749   5.669  14.403  0.00  0.00    +0.000 OA
ATOM     18  C   UNL     1       6.386   4.659  14.688  0.00  0.00    +0.000 C 
BRANCH  18  19
ATOM     19  O   UNL     1       6.322   3.554  13.913  0.00  0.00    +0.000 OA
ATOM     20  H   UNL     1       6.514   2.719  14.384  0.00  0.00    +0.000 HD
ENDBRANCH  18  19
ENDBRANCH  16  18
ENDBRANCH  11  16
ENDBRANCH   5  14
ENDBRANCH   1  10
BRANCH   2  21
ATOM     21  C   UNL     1       2.319   8.271  18.448  0.00  0.00    +0.000 C 
BRANCH  21  22
ATOM     22  C   UNL     1       1.393   8.964  19.417  0.00  0.00    +0.000 A 
ATOM     23  C   UNL     1       1.440   8.660  20.792  0.00  0.00    +0.000 A 
ATOM     24  C   UNL     1       0.594   9.299  21.708  0.00  0.00    +0.000 A 
ATOM     25  C   UNL     1      -0.299  10.258  21.251  0.00  0.00    +0.000 A 
ATOM     26  C   UNL     1      -0.348  10.576  19.900  0.00  0.00    +0.000 A 
ATOM     27  C   UNL     1       0.489   9.937  18.989  0.00  0.00    +0.000 A 
BRANCH  25  28
ATOM     28  O   UNL     1      -1.152  10.916  22.093  0.00  0.00    +0.000 OA
ATOM     29  H   UNL     1      -2.062  10.722  21.809  0.00  0.00    +0.000 HD
ENDBRANCH  25  28
BRANCH  26  30
ATOM     30  O   UNL     1      -1.220  11.528  19.442  0.00  0.00    +0.000 OA
ATOM     31  H   UNL     1      -0.639  12.197  19.024  0.00  0.00    +0.000 HD
ENDBRANCH  26  30
BRANCH  27  32
ATOM     32  O   UNL     1       0.418  10.291  17.670  0.00  0.00    +0.000 OA
ATOM     33  H   UNL     1      -0.031   9.533  17.241  0.00  0.00    +0.000 HD
ENDBRANCH  27  32
ENDBRANCH  21  22
ENDBRANCH   2  21
TORSDOF 10
ENDMDL
MODEL 6
REMARK VINA RESULT:      -7.6      2.193      6.586
REMARK  Name = 
REMARK  10 active torsions:
REMARK  status: ('A' for Active; 'I' for Inactive)
REMARK    1  A    between atoms: C_2  and  O_3
REMARK    2  A    between atoms: C_2  and  C_4
REMARK    3  A    between atoms: C_4  and  C_5
REMARK    4  A    between atoms: C_8  and  C_9
REMARK    5  A    between atoms: C_14  and  N_15
REMARK    6  A    between atoms: C_16  and  C_18
REMARK    7  A    between atoms: C_18  and  C_19
REMARK    8  A    between atoms: C_22  and  O_23
REMARK    9  A    between atoms: C_24  and  O_25
REMARK   10  A    between atoms: C_26  and  O_27
REMARK                            x       y       z     vdW  Elec       q    Type
REMARK                         _______ _______ _______ _____ _____    ______ ____
ROOT
ATOM      1  N   UNL     1       4.300   4.407  18.562  0.00  0.00    +0.000 N 
ATOM      2  C   UNL     1       4.144   4.068  17.216  0.00  0.00    +0.000 C 
ATOM      3  O   UNL     1       3.191   3.443  16.768  0.00  0.00    +0.000 OA
ATOM      4  H   UNL     1       4.741   5.307  18.707  0.00  0.00    +0.000 HD
ENDROOT
BRANCH   1  10
ATOM      5  C   UNL     1       2.266   5.024  19.828  0.00  0.00    +0.000 A 
ATOM      6  C   UNL     1       1.289   4.609  20.756  0.00  0.00    +0.000 A 
ATOM      7  C   UNL     1       1.345   3.353  21.366  0.00  0.00    +0.000 A 
ATOM      8  C   UNL     1       2.364   2.466  21.038  0.00  0.00    +0.000 A 
ATOM      9  C   UNL     1       3.305   2.822  20.076  0.00  0.00    +0.000 A 
ATOM     10  C   UNL     1       3.263   4.090  19.472  0.00  0.00    +0.000 A 
BRANCH   5  14
ATOM     11  C   UNL     1       1.804   8.820  18.929  0.00  0.00    +0.000 A 
ATOM     12  C   UNL     1       2.442   8.253  17.846  0.00  0.00    +0.000 A 
ATOM     13  C   UNL     1       2.628   6.850  18.012  0.00  0.00    +0.000 A 
ATOM     14  C   UNL     1       2.196   6.382  19.243  0.00  0.00    +0.000 A 
ATOM     15  S   UNL     1       1.507   7.669  20.154  0.00  0.00    +0.000 S 
BRANCH  11  16
ATOM     16  C   UNL     1       1.384  10.246  19.128  0.00  0.00    +0.000 C 
BRANCH  16  18
ATOM     17  O   UNL     1      -0.790  10.213  18.103  0.00  0.00    +0.000 OA
ATOM     18  C   UNL     1      -0.117  10.415  19.110  0.00  0.00    +0.000 C 
BRANCH  18  19
ATOM     19  O   UNL     1      -0.703  10.728  20.287  0.00  0.00    +0.000 OA
ATOM     20  H   UNL     1      -0.181  11.336  20.848  0.00  0.00    +0.000 HD
ENDBRANCH  18  19
ENDBRANCH  16  18
ENDBRANCH  11  16
ENDBRANCH   5  14
ENDBRANCH   1  10
BRANCH   2  21
ATOM     21  C   UNL     1       5.224   4.668  16.319  0.00  0.00    +0.000 C 
BRANCH  21  22
ATOM     22  C   UNL     1       6.173   5.592  17.042  0.00  0.00    +0.000 A 
ATOM     23  C   UNL     1       6.210   6.965  16.729  0.00  0.00    +0.000 A 
ATOM     24  C   UNL     1       7.078   7.841  17.395  0.00  0.00    +0.000 A 
ATOM     25  C   UNL     1       7.908   7.345  18.391  0.00  0.00    +0.000 A 
ATOM     26  C   UNL     1       7.874   5.996  18.718  0.00  0.00    +0.000 A 
ATOM     27  C   UNL     1       7.015   5.125  18.052  0.00  0.00    +0.000 A 
BRANCH  25  28
ATOM     28  O   UNL     1       8.778   8.146  19.077  0.00  0.00    +0.000 OA
ATOM     29  H   UNL     1       8.773   9.023  18.656  0.00  0.00    +0.000 HD
ENDBRANCH  25  28
BRANCH  26  30
ATOM     30  O   UNL     1       8.683   5.500  19.706  0.00  0.00    +0.000 OA
ATOM     31  H   UNL     1       8.197   5.704  20.532  0.00  0.00    +0.000 HD
ENDBRANCH  26  30
BRANCH  27  32
ATOM     32  O   UNL     1       7.003   3.807  18.416  0.00  0.00    +0.000 OA
ATOM     33  H   UNL     1       6.778   3.332  17.589  0.00  0.00    +0.000 HD
ENDBRANCH  27  32
ENDBRANCH  21  22
ENDBRANCH   2  21
TORSDOF 10
ENDMDL
MODEL 7
REMARK VINA RESULT:      -7.5      2.079      4.894
REMARK  Name = 
REMARK  10 active torsions:
REMARK  status: ('A' for Active; 'I' for Inactive)
REMARK    1  A    between atoms: C_2  and  O_3
REMARK    2  A    between atoms: C_2  and  C_4
REMARK    3  A    between atoms: C_4  and  C_5
REMARK    4  A    between atoms: C_8  and  C_9
REMARK    5  A    between atoms: C_14  and  N_15
REMARK    6  A    between atoms: C_16  and  C_18
REMARK    7  A    between atoms: C_18  and  C_19
REMARK    8  A    between atoms: C_22  and  O_23
REMARK    9  A    between atoms: C_24  and  O_25
REMARK   10  A    between atoms: C_26  and  O_27
REMARK                            x       y       z     vdW  Elec       q    Type
REMARK                         _______ _______ _______ _____ _____    ______ ____
ROOT
ATOM      1  N   UNL     1       3.941   7.109  17.177  0.00  0.00    +0.000 N 
ATOM      2  C   UNL     1       3.101   7.388  18.257  0.00  0.00    +0.000 C 
ATOM      3  O   UNL     1       3.372   7.136  19.425  0.00  0.00    +0.000 OA
ATOM      4  H   UNL     1       3.898   7.800  16.438  0.00  0.00    +0.000 HD
ENDROOT
BRANCH   1  10
ATOM      5  C   UNL     1       5.420   5.228  17.804  0.00  0.00    +0.000 A 
ATOM      6  C   UNL     1       6.742   4.804  18.048  0.00  0.00    +0.000 A 
ATOM      7  C   UNL     1       7.817   5.696  18.004  0.00  0.00    +0.000 A 
ATOM      8  C   UNL     1       7.599   7.031  17.683  0.00  0.00    +0.000 A 
ATOM      9  C   UNL     1       6.313   7.465  17.371  0.00  0.00    +0.000 A 
ATOM     10  C   UNL     1       5.227   6.576  17.430  0.00  0.00    +0.000 A 
BRANCH   5  14
ATOM     11  C   UNL     1       2.549   2.742  18.811  0.00  0.00    +0.000 A 
ATOM     12  C   UNL     1       2.498   2.837  17.436  0.00  0.00    +0.000 A 
ATOM     13  C   UNL     1       3.530   3.674  16.922  0.00  0.00    +0.000 A 
ATOM     14  C   UNL     1       4.305   4.259  17.910  0.00  0.00    +0.000 A 
ATOM     15  S   UNL     1       3.790   3.719  19.460  0.00  0.00    +0.000 S 
BRANCH  11  16
ATOM     16  C   UNL     1       1.679   1.934  19.727  0.00  0.00    +0.000 C 
BRANCH  16  18
ATOM     17  O   UNL     1       1.476   2.452  22.065  0.00  0.00    +0.000 OA
ATOM     18  C   UNL     1       1.181   2.734  20.907  0.00  0.00    +0.000 C 
BRANCH  18  19
ATOM     19  O   UNL     1       0.450   3.835  20.624  0.00  0.00    +0.000 OA
ATOM     20  H   UNL     1       0.860   4.434  19.969  0.00  0.00    +0.000 HD
ENDBRANCH  18  19
ENDBRANCH  16  18
ENDBRANCH  11  16
ENDBRANCH   5  14
ENDBRANCH   1  10
BRANCH   2  21
ATOM     21  C   UNL     1       1.848   8.163  17.856  0.00  0.00    +0.000 C 
BRANCH  21  22
ATOM     22  C   UNL     1       1.469   9.253  18.829  0.00  0.00    +0.000 A 
ATOM     23  C   UNL     1       0.892   8.931  20.074  0.00  0.00    +0.000 A 
ATOM     24  C   UNL     1       0.541   9.928  20.994  0.00  0.00    +0.000 A 
ATOM     25  C   UNL     1       0.777  11.258  20.674  0.00  0.00    +0.000 A 
ATOM     26  C   UNL     1       1.354  11.589  19.456  0.00  0.00    +0.000 A 
ATOM     27  C   UNL     1       1.699  10.598  18.540  0.00  0.00    +0.000 A 
BRANCH  25  28
ATOM     28  O   UNL     1       0.456  12.278  21.526  0.00  0.00    +0.000 OA
ATOM     29  H   UNL     1       0.320  13.081  20.995  0.00  0.00    +0.000 HD
ENDBRANCH  25  28
BRANCH  26  30
ATOM     30  O   UNL     1       1.599  12.899  19.137  0.00  0.00    +0.000 OA
ATOM     31  H   UNL     1       2.225  13.197  19.829  0.00  0.00    +0.000 HD
ENDBRANCH  26  30
BRANCH  27  32
ATOM     32  O   UNL     1       2.279  10.968  17.358  0.00  0.00    +0.000 OA
ATOM     33  H   UNL     1       2.210  11.946  17.352  0.00  0.00    +0.000 HD
ENDBRANCH  27  32
ENDBRANCH  21  22
ENDBRANCH   2  21
TORSDOF 10
ENDMDL
MODEL 8
REMARK VINA RESULT:      -7.4      2.240      2.849
REMARK  Name = 
REMARK  10 active torsions:
REMARK  status: ('A' for Active; 'I' for Inactive)
REMARK    1  A    between atoms: C_2  and  O_3
REMARK    2  A    between atoms: C_2  and  C_4
REMARK    3  A    between atoms: C_4  and  C_5
REMARK    4  A    between atoms: C_8  and  C_9
REMARK    5  A    between atoms: C_14  and  N_15
REMARK    6  A    between atoms: C_16  and  C_18
REMARK    7  A    between atoms: C_18  and  C_19
REMARK    8  A    between atoms: C_22  and  O_23
REMARK    9  A    between atoms: C_24  and  O_25
REMARK   10  A    between atoms: C_26  and  O_27
REMARK                            x       y       z     vdW  Elec       q    Type
REMARK                         _______ _______ _______ _____ _____    ______ ____
ROOT
ATOM      1  N   UNL     1       2.060   5.929  18.851  0.00  0.00    +0.000 N 
ATOM      2  C   UNL     1       2.119   7.169  19.490  0.00  0.00    +0.000 C 
ATOM      3  O   UNL     1       2.207   7.317  20.702  0.00  0.00    +0.000 OA
ATOM      4  H   UNL     1       2.530   5.909  17.955  0.00  0.00    +0.000 HD
ENDROOT
BRANCH   1  10
ATOM      5  C   UNL     1       3.394   4.016  19.674  0.00  0.00    +0.000 A 
ATOM      6  C   UNL     1       3.412   2.850  20.467  0.00  0.00    +0.000 A 
ATOM      7  C   UNL     1       2.263   2.389  21.117  0.00  0.00    +0.000 A 
ATOM      8  C   UNL     1       1.075   3.102  21.016  0.00  0.00    +0.000 A 
ATOM      9  C   UNL     1       1.044   4.293  20.296  0.00  0.00    +0.000 A 
ATOM     10  C   UNL     1       2.191   4.752  19.627  0.00  0.00    +0.000 A 
BRANCH   5  14
ATOM     11  C   UNL     1       6.381   4.747  17.230  0.00  0.00    +0.000 A 
ATOM     12  C   UNL     1       6.620   5.511  18.352  0.00  0.00    +0.000 A 
ATOM     13  C   UNL     1       5.633   5.301  19.358  0.00  0.00    +0.000 A 
ATOM     14  C   UNL     1       4.622   4.441  18.963  0.00  0.00    +0.000 A 
ATOM     15  S   UNL     1       4.936   3.850  17.378  0.00  0.00    +0.000 S 
BRANCH  11  16
ATOM     16  C   UNL     1       7.199   4.641  15.977  0.00  0.00    +0.000 C 
BRANCH  16  18
ATOM     17  O   UNL     1       5.714   5.660  14.386  0.00  0.00    +0.000 OA
ATOM     18  C   UNL     1       6.351   4.668  14.728  0.00  0.00    +0.000 C 
BRANCH  18  19
ATOM     19  O   UNL     1       6.384   3.562  13.952  0.00  0.00    +0.000 OA
ATOM     20  H   UNL     1       6.333   3.741  12.992  0.00  0.00    +0.000 HD
ENDBRANCH  18  19
ENDBRANCH  16  18
ENDBRANCH  11  16
ENDBRANCH   5  14
ENDBRANCH   1  10
BRANCH   2  21
ATOM     21  C   UNL     1       2.193   8.342  18.515  0.00  0.00    +0.000 C 
BRANCH  21  22
ATOM     22  C   UNL     1       1.333   9.517  18.909  0.00  0.00    +0.000 A 
ATOM     23  C   UNL     1       0.349   9.380  19.908  0.00  0.00    +0.000 A 
ATOM     24  C   UNL     1      -0.453  10.462  20.294  0.00  0.00    +0.000 A 
ATOM     25  C   UNL     1      -0.265  11.696  19.686  0.00  0.00    +0.000 A 
ATOM     26  C   UNL     1       0.709  11.849  18.709  0.00  0.00    +0.000 A 
ATOM     27  C   UNL     1       1.503  10.772  18.322  0.00  0.00    +0.000 A 
BRANCH  25  28
ATOM     28  O   UNL     1      -1.015  12.790  20.017  0.00  0.00    +0.000 OA
ATOM     29  H   UNL     1      -1.604  12.987  19.267  0.00  0.00    +0.000 HD
ENDBRANCH  25  28
BRANCH  26  30
ATOM     30  O   UNL     1       0.909  13.066  18.112  0.00  0.00    +0.000 OA
ATOM     31  H   UNL     1       0.998  12.849  17.160  0.00  0.00    +0.000 HD
ENDBRANCH  26  30
BRANCH  27  32
ATOM     32  O   UNL     1       2.461  10.971  17.366  0.00  0.00    +0.000 OA
ATOM     33  H   UNL     1       1.950  11.133  16.545  0.00  0.00    +0.000 HD
ENDBRANCH  27  32
ENDBRANCH  21  22
ENDBRANCH   2  21
TORSDOF 10
ENDMDL
MODEL 9
REMARK VINA RESULT:      -7.3      1.680      2.056
REMARK  Name = 
REMARK  10 active torsions:
REMARK  status: ('A' for Active; 'I' for Inactive)
REMARK    1  A    between atoms: C_2  and  O_3
REMARK    2  A    between atoms: C_2  and  C_4
REMARK    3  A    between atoms: C_4  and  C_5
REMARK    4  A    between atoms: C_8  and  C_9
REMARK    5  A    between atoms: C_14  and  N_15
REMARK    6  A    between atoms: C_16  and  C_18
REMARK    7  A    between atoms: C_18  and  C_19
REMARK    8  A    between atoms: C_22  and  O_23
REMARK    9  A    between atoms: C_24  and  O_25
REMARK   10  A    between atoms: C_26  and  O_27
REMARK                            x       y       z     vdW  Elec       q    Type
REMARK                         _______ _______ _______ _____ _____    ______ ____
ROOT
ATOM      1  N   UNL     1       1.753   5.781  18.799  0.00  0.00    +0.000 N 
ATOM      2  C   UNL     1       2.243   6.990  19.297  0.00  0.00    +0.000 C 
ATOM      3  O   UNL     1       2.812   7.112  20.374  0.00  0.00    +0.000 OA
ATOM      4  H   UNL     1       1.833   5.692  17.793  0.00  0.00    +0.000 HD
ENDROOT
BRANCH   1  10
ATOM      5  C   UNL     1       3.114   3.774  19.285  0.00  0.00    +0.000 A 
ATOM      6  C   UNL     1       3.247   2.603  20.060  0.00  0.00    +0.000 A 
ATOM      7  C   UNL     1       2.267   2.219  20.980  0.00  0.00    +0.000 A 
ATOM      8  C   UNL     1       1.143   3.014  21.170  0.00  0.00    +0.000 A 
ATOM      9  C   UNL     1       1.016   4.210  20.467  0.00  0.00    +0.000 A 
ATOM     10  C   UNL     1       1.990   4.592  19.530  0.00  0.00    +0.000 A 
BRANCH   5  14
ATOM     11  C   UNL     1       6.225   4.977  17.209  0.00  0.00    +0.000 A 
ATOM     12  C   UNL     1       5.436   4.269  16.327  0.00  0.00    +0.000 A 
ATOM     13  C   UNL     1       4.232   3.813  16.937  0.00  0.00    +0.000 A 
ATOM     14  C   UNL     1       4.153   4.117  18.287  0.00  0.00    +0.000 A 
ATOM     15  S   UNL     1       5.537   5.017  18.771  0.00  0.00    +0.000 S 
BRANCH  11  16
ATOM     16  C   UNL     1       7.537   5.657  16.954  0.00  0.00    +0.000 C 
BRANCH  16  18
ATOM     17  O   UNL     1       8.283   7.145  18.688  0.00  0.00    +0.000 OA
ATOM     18  C   UNL     1       7.642   6.992  17.653  0.00  0.00    +0.000 C 
BRANCH  18  19
ATOM     19  O   UNL     1       7.053   8.042  17.039  0.00  0.00    +0.000 OA
ATOM     20  H   UNL     1       6.404   8.521  17.592  0.00  0.00    +0.000 HD
ENDBRANCH  18  19
ENDBRANCH  16  18
ENDBRANCH  11  16
ENDBRANCH   5  14
ENDBRANCH   1  10
BRANCH   2  21
ATOM     21  C   UNL     1       2.114   8.143  18.304  0.00  0.00    +0.000 C 
BRANCH  21  22
ATOM     22  C   UNL     1       1.342   9.324  18.838  0.00  0.00    +0.000 A 
ATOM     23  C   UNL     1       0.462   9.169  19.928  0.00  0.00    +0.000 A 
ATOM     24  C   UNL     1      -0.257  10.255  20.444  0.00  0.00    +0.000 A 
ATOM     25  C   UNL     1      -0.090  11.510  19.874  0.00  0.00    +0.000 A 
ATOM     26  C   UNL     1       0.782  11.680  18.807  0.00  0.00    +0.000 A 
ATOM     27  C   UNL     1       1.493  10.599  18.292  0.00  0.00    +0.000 A 
BRANCH  25  28
ATOM     28  O   UNL     1      -0.763  12.610  20.330  0.00  0.00    +0.000 OA
ATOM     29  H   UNL     1      -0.186  13.073  20.962  0.00  0.00    +0.000 HD
ENDBRANCH  25  28
BRANCH  26  30
ATOM     30  O   UNL     1       0.960  12.917  18.246  0.00  0.00    +0.000 OA
ATOM     31  H   UNL     1       0.048  13.256  18.130  0.00  0.00    +0.000 HD
ENDBRANCH  26  30
BRANCH  27  32
ATOM     32  O   UNL     1       2.352  10.813  17.250  0.00  0.00    +0.000 OA
ATOM     33  H   UNL     1       2.229  10.032  16.672  0.00  0.00    +0.000 HD
ENDBRANCH  27  32
ENDBRANCH  21  22
ENDBRANCH   2  21
TORSDOF 10
ENDMDL
