MODEL 1
REMARK VINA RESULT:      -7.1      0.000      0.000
REMARK  Name = 
REMARK  4 active torsions:
REMARK  status: ('A' for Active; 'I' for Inactive)
REMARK    1  A    between atoms: C_1  and  C_2
REMARK    2  A    between atoms: C_5  and  S_6
REMARK    3  A    between atoms: S_6  and  C_7
REMARK    4  A    between atoms: C_7  and  C_8
REMARK                            x       y       z     vdW  Elec       q    Type
REMARK                         _______ _______ _______ _____ _____    ______ ____
ROOT
ATOM      1  C   UNL     1       6.702   4.750  17.826  0.00  0.00    +0.000 C 
ENDROOT
BRANCH   1   2
ATOM      2  C   UNL     1       6.727   4.601  16.335  0.00  0.00    +0.000 A 
ATOM      3  C   UNL     1       6.056   3.701  15.529  0.00  0.00    +0.000 A 
ATOM      4  N   UNL     1       6.446   3.990  14.247  0.00  0.00    +0.000 N 
ATOM      5  C   UNL     1       6.093   3.380  13.051  0.00  0.00    +0.000 A 
ATOM      6  C   UNL     1       6.608   3.843  11.904  0.00  0.00    +0.000 A 
ATOM      7  C   UNL     1       7.529   5.006  12.054  0.00  0.00    +0.000 A 
ATOM      8  N   UNL     1       7.867   5.589  13.165  0.00  0.00    +0.000 NA
ATOM      9  C   UNL     1       7.319   5.073  14.305  0.00  0.00    +0.000 A 
ATOM     10  N   UNL     1       7.487   5.453  15.556  0.00  0.00    +0.000 NA
ENDBRANCH   1   2
BRANCH   1  11
ATOM     11  S   UNL     1       5.347   5.865  18.346  0.00  0.00    +0.000 S 
BRANCH  11  16
ATOM     12  C   UNL     1       0.540   2.111  18.805  0.00  0.00    +0.000 C 
ATOM     13  C   UNL     1       1.715   3.032  18.651  0.00  0.00    +0.000 A 
ATOM     14  C   UNL     1       2.968   2.687  19.159  0.00  0.00    +0.000 A 
ATOM     15  C   UNL     1       4.052   3.563  19.026  0.00  0.00    +0.000 A 
ATOM     16  C   UNL     1       3.912   4.797  18.377  0.00  0.00    +0.000 A 
ATOM     17  C   UNL     1       2.655   5.143  17.873  0.00  0.00    +0.000 A 
ATOM     18  C   UNL     1       1.567   4.266  18.007  0.00  0.00    +0.000 A 
ENDBRANCH  11  16
ENDBRANCH   1  11
TORSDOF 3
ENDMDL
MODEL 2
REMARK VINA RESULT:      -7.1      0.200      1.142
REMARK  Name = 
REMARK  4 active torsions:
REMARK  status: ('A' for Active; 'I' for Inactive)
REMARK    1  A    between atoms: C_1  and  C_2
REMARK    2  A    between atoms: C_5  and  S_6
REMARK    3  A    between atoms: S_6  and  C_7
REMARK    4  A    between atoms: C_7  and  C_8
REMARK                            x       y       z     vdW  Elec       q    Type
REMARK                         _______ _______ _______ _____ _____    ______ ____
ROOT
ATOM      1  C   UNL     1       6.811   4.777  17.720  0.00  0.00    +0.000 C 
ENDROOT
BRANCH   1   2
ATOM      2  C   UNL     1       6.768   4.590  16.234  0.00  0.00    +0.000 A 
ATOM      3  C   UNL     1       5.991   3.734  15.477  0.00  0.00    +0.000 A 
ATOM      4  N   UNL     1       6.358   3.956  14.174  0.00  0.00    +0.000 N 
ATOM      5  C   UNL     1       5.910   3.351  13.008  0.00  0.00    +0.000 A 
ATOM      6  C   UNL     1       6.422   3.738  11.832  0.00  0.00    +0.000 A 
ATOM      7  C   UNL     1       7.447   4.817  11.919  0.00  0.00    +0.000 A 
ATOM      8  N   UNL     1       7.875   5.395  13.001  0.00  0.00    +0.000 NA
ATOM      9  C   UNL     1       7.326   4.958  14.173  0.00  0.00    +0.000 A 
ATOM     10  N   UNL     1       7.571   5.351  15.407  0.00  0.00    +0.000 NA
ENDBRANCH   1   2
BRANCH   1  11
ATOM     11  S   UNL     1       5.452   5.870  18.278  0.00  0.00    +0.000 S 
BRANCH  11  16
ATOM     12  C   UNL     1       0.611   2.164  18.774  0.00  0.00    +0.000 C 
ATOM     13  C   UNL     1       1.807   3.067  18.692  0.00  0.00    +0.000 A 
ATOM     14  C   UNL     1       1.680   4.388  18.260  0.00  0.00    +0.000 A 
ATOM     15  C   UNL     1       2.806   5.215  18.170  0.00  0.00    +0.000 A 
ATOM     16  C   UNL     1       4.081   4.746  18.516  0.00  0.00    +0.000 A 
ATOM     17  C   UNL     1       4.206   3.422  18.944  0.00  0.00    +0.000 A 
ATOM     18  C   UNL     1       3.079   2.590  19.033  0.00  0.00    +0.000 A 
ENDBRANCH  11  16
ENDBRANCH   1  11
TORSDOF 3
ENDMDL
MODEL 3
REMARK VINA RESULT:      -7.0      1.866      2.657
REMARK  Name = 
REMARK  4 active torsions:
REMARK  status: ('A' for Active; 'I' for Inactive)
REMARK    1  A    between atoms: C_1  and  C_2
REMARK    2  A    between atoms: C_5  and  S_6
REMARK    3  A    between atoms: S_6  and  C_7
REMARK    4  A    between atoms: C_7  and  C_8
REMARK                            x       y       z     vdW  Elec       q    Type
REMARK                         _______ _______ _______ _____ _____    ______ ____
ROOT
ATOM      1  C   UNL     1       6.694   4.780  18.077  0.00  0.00    +0.000 C 
ENDROOT
BRANCH   1   2
ATOM      2  C   UNL     1       6.734   4.653  16.584  0.00  0.00    +0.000 A 
ATOM      3  C   UNL     1       6.020   3.811  15.753  0.00  0.00    +0.000 A 
ATOM      4  N   UNL     1       6.450   4.095  14.482  0.00  0.00    +0.000 N 
ATOM      5  C   UNL     1       6.078   3.529  13.270  0.00  0.00    +0.000 A 
ATOM      6  C   UNL     1       6.642   3.976  12.140  0.00  0.00    +0.000 A 
ATOM      7  C   UNL     1       7.635   5.074  12.324  0.00  0.00    +0.000 A 
ATOM      8  N   UNL     1       7.990   5.616  13.450  0.00  0.00    +0.000 NA
ATOM      9  C   UNL     1       7.391   5.118  14.573  0.00  0.00    +0.000 A 
ATOM     10  N   UNL     1       7.561   5.466  15.832  0.00  0.00    +0.000 NA
ENDBRANCH   1   2
BRANCH   1  11
ATOM     11  S   UNL     1       5.076   4.230  18.733  0.00  0.00    +0.000 S 
BRANCH  11  16
ATOM     12  C   UNL     1       1.536   9.208  18.425  0.00  0.00    +0.000 C 
ATOM     13  C   UNL     1       2.390   7.974  18.464  0.00  0.00    +0.000 A 
ATOM     14  C   UNL     1       2.298   7.072  19.524  0.00  0.00    +0.000 A 
ATOM     15  C   UNL     1       3.113   5.934  19.559  0.00  0.00    +0.000 A 
ATOM     16  C   UNL     1       4.031   5.668  18.534  0.00  0.00    +0.000 A 
ATOM     17  C   UNL     1       4.125   6.576  17.475  0.00  0.00    +0.000 A 
ATOM     18  C   UNL     1       3.310   7.718  17.440  0.00  0.00    +0.000 A 
ENDBRANCH  11  16
ENDBRANCH   1  11
TORSDOF 3
ENDMDL
MODEL 4
REMARK VINA RESULT:      -6.9      1.897      2.718
REMARK  Name = 
REMARK  4 active torsions:
REMARK  status: ('A' for Active; 'I' for Inactive)
REMARK    1  A    between atoms: C_1  and  C_2
REMARK    2  A    between atoms: C_5  and  S_6
REMARK    3  A    between atoms: S_6  and  C_7
REMARK    4  A    between atoms: C_7  and  C_8
REMARK                            x       y       z     vdW  Elec       q    Type
REMARK                         _______ _______ _______ _____ _____    ______ ____
ROOT
ATOM      1  C   UNL     1       6.722   4.910  17.975  0.00  0.00    +0.000 C 
ENDROOT
BRANCH   1   2
ATOM      2  C   UNL     1       6.752   4.721  16.489  0.00  0.00    +0.000 A 
ATOM      3  C   UNL     1       6.027   3.851  15.697  0.00  0.00    +0.000 A 
ATOM      4  N   UNL     1       6.450   4.080  14.413  0.00  0.00    +0.000 N 
ATOM      5  C   UNL     1       6.068   3.466  13.228  0.00  0.00    +0.000 A 
ATOM      6  C   UNL     1       6.626   3.863  12.076  0.00  0.00    +0.000 A 
ATOM      7  C   UNL     1       7.626   4.962  12.210  0.00  0.00    +0.000 A 
ATOM      8  N   UNL     1       7.991   5.548  13.310  0.00  0.00    +0.000 NA
ATOM      9  C   UNL     1       7.397   5.100  14.456  0.00  0.00    +0.000 A 
ATOM     10  N   UNL     1       7.578   5.498  15.699  0.00  0.00    +0.000 NA
ENDBRANCH   1   2
BRANCH   1  11
ATOM     11  S   UNL     1       5.157   4.273  18.681  0.00  0.00    +0.000 S 
BRANCH  11  16
ATOM     12  C   UNL     1       1.449   9.125  18.344  0.00  0.00    +0.000 C 
ATOM     13  C   UNL     1       2.373   7.948  18.463  0.00  0.00    +0.000 A 
ATOM     14  C   UNL     1       3.317   7.675  17.472  0.00  0.00    +0.000 A 
ATOM     15  C   UNL     1       4.161   6.563  17.585  0.00  0.00    +0.000 A 
ATOM     16  C   UNL     1       4.087   5.706  18.692  0.00  0.00    +0.000 A 
ATOM     17  C   UNL     1       3.138   5.979  19.680  0.00  0.00    +0.000 A 
ATOM     18  C   UNL     1       2.290   7.092  19.568  0.00  0.00    +0.000 A 
ENDBRANCH  11  16
ENDBRANCH   1  11
TORSDOF 3
ENDMDL
MODEL 5
REMARK VINA RESULT:      -6.7      2.806      6.587
REMARK  Name = 
REMARK  4 active torsions:
REMARK  status: ('A' for Active; 'I' for Inactive)
REMARK    1  A    between atoms: C_1  and  C_2
REMARK    2  A    between atoms: C_5  and  S_6
REMARK    3  A    between atoms: S_6  and  C_7
REMARK    4  A    between atoms: C_7  and  C_8
REMARK                            x       y       z     vdW  Elec       q    Type
REMARK                         _______ _______ _______ _____ _____    ______ ____
ROOT
ATOM      1  C   UNL     1       6.769   4.930  18.520  0.00  0.00    +0.000 C 
ENDROOT
BRANCH   1   2
ATOM      2  C   UNL     1       5.387   4.667  19.035  0.00  0.00    +0.000 A 
ATOM      3  C   UNL     1       4.326   5.538  19.194  0.00  0.00    +0.000 A 
ATOM      4  N   UNL     1       3.304   4.786  19.713  0.00  0.00    +0.000 N 
ATOM      5  C   UNL     1       2.021   5.163  20.084  0.00  0.00    +0.000 A 
ATOM      6  C   UNL     1       1.183   4.239  20.574  0.00  0.00    +0.000 A 
ATOM      7  C   UNL     1       1.749   2.862  20.660  0.00  0.00    +0.000 A 
ATOM      8  N   UNL     1       2.945   2.493  20.314  0.00  0.00    +0.000 NA
ATOM      9  C   UNL     1       3.761   3.475  19.828  0.00  0.00    +0.000 A 
ATOM     10  N   UNL     1       5.009   3.393  19.414  0.00  0.00    +0.000 NA
ENDBRANCH   1   2
BRANCH   1  11
ATOM     11  S   UNL     1       6.745   6.217  17.218  0.00  0.00    +0.000 S 
BRANCH  11  16
ATOM     12  C   UNL     1       5.763   3.098  12.049  0.00  0.00    +0.000 C 
ATOM     13  C   UNL     1       6.039   3.843  13.322  0.00  0.00    +0.000 A 
ATOM     14  C   UNL     1       5.134   3.810  14.384  0.00  0.00    +0.000 A 
ATOM     15  C   UNL     1       5.395   4.524  15.559  0.00  0.00    +0.000 A 
ATOM     16  C   UNL     1       6.566   5.279  15.705  0.00  0.00    +0.000 A 
ATOM     17  C   UNL     1       7.469   5.316  14.638  0.00  0.00    +0.000 A 
ATOM     18  C   UNL     1       7.209   4.601  13.458  0.00  0.00    +0.000 A 
ENDBRANCH  11  16
ENDBRANCH   1  11
TORSDOF 3
ENDMDL
MODEL 6
REMARK VINA RESULT:      -6.7      2.646      5.940
REMARK  Name = 
REMARK  4 active torsions:
REMARK  status: ('A' for Active; 'I' for Inactive)
REMARK    1  A    between atoms: C_1  and  C_2
REMARK    2  A    between atoms: C_5  and  S_6
REMARK    3  A    between atoms: S_6  and  C_7
REMARK    4  A    between atoms: C_7  and  C_8
REMARK                            x       y       z     vdW  Elec       q    Type
REMARK                         _______ _______ _______ _____ _____    ______ ____
ROOT
ATOM      1  C   UNL     1       6.859   5.513  19.512  0.00  0.00    +0.000 C 
ENDROOT
BRANCH   1   2
ATOM      2  C   UNL     1       5.499   4.900  19.372  0.00  0.00    +0.000 A 
ATOM      3  C   UNL     1       4.257   5.507  19.353  0.00  0.00    +0.000 A 
ATOM      4  N   UNL     1       3.350   4.487  19.217  0.00  0.00    +0.000 N 
ATOM      5  C   UNL     1       1.964   4.532  19.164  0.00  0.00    +0.000 A 
ATOM      6  C   UNL     1       1.278   3.389  19.026  0.00  0.00    +0.000 A 
ATOM      7  C   UNL     1       2.117   2.160  18.935  0.00  0.00    +0.000 A 
ATOM      8  N   UNL     1       3.414   2.103  18.979  0.00  0.00    +0.000 NA
ATOM      9  C   UNL     1       4.064   3.295  19.129  0.00  0.00    +0.000 A 
ATOM     10  N   UNL     1       5.358   3.535  19.212  0.00  0.00    +0.000 NA
ENDBRANCH   1   2
BRANCH   1  11
ATOM     11  S   UNL     1       7.231   6.605  18.090  0.00  0.00    +0.000 S 
BRANCH  11  16
ATOM     12  C   UNL     1       5.243   3.717  13.078  0.00  0.00    +0.000 C 
ATOM     13  C   UNL     1       5.723   4.392  14.330  0.00  0.00    +0.000 A 
ATOM     14  C   UNL     1       5.147   5.585  14.767  0.00  0.00    +0.000 A 
ATOM     15  C   UNL     1       5.616   6.215  15.927  0.00  0.00    +0.000 A 
ATOM     16  C   UNL     1       6.663   5.664  16.679  0.00  0.00    +0.000 A 
ATOM     17  C   UNL     1       7.242   4.472  16.236  0.00  0.00    +0.000 A 
ATOM     18  C   UNL     1       6.774   3.840  15.073  0.00  0.00    +0.000 A 
ENDBRANCH  11  16
ENDBRANCH   1  11
TORSDOF 3
ENDMDL
MODEL 7
REMARK VINA RESULT:      -6.6      1.954      2.429
REMARK  Name = 
REMARK  4 active torsions:
REMARK  status: ('A' for Active; 'I' for Inactive)
REMARK    1  A    between atoms: C_1  and  C_2
REMARK    2  A    between atoms: C_5  and  S_6
REMARK    3  A    between atoms: S_6  and  C_7
REMARK    4  A    between atoms: C_7  and  C_8
REMARK                            x       y       z     vdW  Elec       q    Type
REMARK                         _______ _______ _______ _____ _____    ______ ____
ROOT
ATOM      1  C   UNL     1       5.821   4.978  17.842  0.00  0.00    +0.000 C 
ENDROOT
BRANCH   1   2
ATOM      2  C   UNL     1       6.139   4.792  16.390  0.00  0.00    +0.000 A 
ATOM      3  C   UNL     1       5.570   3.935  15.466  0.00  0.00    +0.000 A 
ATOM      4  N   UNL     1       6.241   4.159  14.291  0.00  0.00    +0.000 N 
ATOM      5  C   UNL     1       6.089   3.554  13.051  0.00  0.00    +0.000 A 
ATOM      6  C   UNL     1       6.869   3.944  12.034  0.00  0.00    +0.000 A 
ATOM      7  C   UNL     1       7.841   5.025  12.367  0.00  0.00    +0.000 A 
ATOM      8  N   UNL     1       7.993   5.603  13.520  0.00  0.00    +0.000 NA
ATOM      9  C   UNL     1       7.178   5.163  14.525  0.00  0.00    +0.000 A 
ATOM     10  N   UNL     1       7.117   5.556  15.781  0.00  0.00    +0.000 NA
ENDBRANCH   1   2
BRANCH   1  11
ATOM     11  S   UNL     1       4.312   4.049  18.302  0.00  0.00    +0.000 S 
BRANCH  11  16
ATOM     12  C   UNL     1       0.809   8.189  21.131  0.00  0.00    +0.000 C 
ATOM     13  C   UNL     1       1.647   7.179  20.402  0.00  0.00    +0.000 A 
ATOM     14  C   UNL     1       1.765   5.871  20.874  0.00  0.00    +0.000 A 
ATOM     15  C   UNL     1       2.564   4.943  20.195  0.00  0.00    +0.000 A 
ATOM     16  C   UNL     1       3.256   5.296  19.029  0.00  0.00    +0.000 A 
ATOM     17  C   UNL     1       3.141   6.609  18.561  0.00  0.00    +0.000 A 
ATOM     18  C   UNL     1       2.341   7.541  19.241  0.00  0.00    +0.000 A 
ENDBRANCH  11  16
ENDBRANCH   1  11
TORSDOF 3
ENDMDL
MODEL 8
REMARK VINA RESULT:      -6.5      1.327      1.374
REMARK  Name = 
REMARK  4 active torsions:
REMARK  status: ('A' for Active; 'I' for Inactive)
REMARK    1  A    between atoms: C_1  and  C_2
REMARK    2  A    between atoms: C_5  and  S_6
REMARK    3  A    between atoms: S_6  and  C_7
REMARK    4  A    between atoms: C_7  and  C_8
REMARK                            x       y       z     vdW  Elec       q    Type
REMARK                         _______ _______ _______ _____ _____    ______ ____
ROOT
ATOM      1  C   UNL     1       6.536   6.198  17.377  0.00  0.00    +0.000 C 
ENDROOT
BRANCH   1   2
ATOM      2  C   UNL     1       6.427   5.522  16.044  0.00  0.00    +0.000 A 
ATOM      3  C   UNL     1       5.417   4.723  15.543  0.00  0.00    +0.000 A 
ATOM      4  N   UNL     1       5.825   4.355  14.286  0.00  0.00    +0.000 N 
ATOM      5  C   UNL     1       5.202   3.540  13.352  0.00  0.00    +0.000 A 
ATOM      6  C   UNL     1       5.801   3.321  12.173  0.00  0.00    +0.000 A 
ATOM      7  C   UNL     1       7.112   4.010  11.997  0.00  0.00    +0.000 A 
ATOM      8  N   UNL     1       7.706   4.778  12.860  0.00  0.00    +0.000 NA
ATOM      9  C   UNL     1       7.056   4.962  14.048  0.00  0.00    +0.000 A 
ATOM     10  N   UNL     1       7.421   5.673  15.096  0.00  0.00    +0.000 NA
ENDBRANCH   1   2
BRANCH   1  11
ATOM     11  S   UNL     1       6.671   4.965  18.723  0.00  0.00    +0.000 S 
BRANCH  11  16
ATOM     12  C   UNL     1       0.978   3.613  20.503  0.00  0.00    +0.000 C 
ATOM     13  C   UNL     1       2.359   3.964  20.034  0.00  0.00    +0.000 A 
ATOM     14  C   UNL     1       3.311   2.971  19.797  0.00  0.00    +0.000 A 
ATOM     15  C   UNL     1       4.602   3.313  19.377  0.00  0.00    +0.000 A 
ATOM     16  C   UNL     1       4.970   4.650  19.176  0.00  0.00    +0.000 A 
ATOM     17  C   UNL     1       4.017   5.644  19.419  0.00  0.00    +0.000 A 
ATOM     18  C   UNL     1       2.722   5.303  19.842  0.00  0.00    +0.000 A 
ENDBRANCH  11  16
ENDBRANCH   1  11
TORSDOF 3
ENDMDL
MODEL 9
REMARK VINA RESULT:      -6.5      2.812      6.473
REMARK  Name = 
REMARK  4 active torsions:
REMARK  status: ('A' for Active; 'I' for Inactive)
REMARK    1  A    between atoms: C_1  and  C_2
REMARK    2  A    between atoms: C_5  and  S_6
REMARK    3  A    between atoms: S_6  and  C_7
REMARK    4  A    between atoms: C_7  and  C_8
REMARK                            x       y       z     vdW  Elec       q    Type
REMARK                         _______ _______ _______ _____ _____    ______ ____
ROOT
ATOM      1  C   UNL     1       6.687   4.852  18.637  0.00  0.00    +0.000 C 
ENDROOT
BRANCH   1   2
ATOM      2  C   UNL     1       5.304   4.520  19.109  0.00  0.00    +0.000 A 
ATOM      3  C   UNL     1       4.708   3.286  19.288  0.00  0.00    +0.000 A 
ATOM      4  N   UNL     1       3.433   3.551  19.720  0.00  0.00    +0.000 N 
ATOM      5  C   UNL     1       2.400   2.678  20.029  0.00  0.00    +0.000 A 
ATOM      6  C   UNL     1       1.224   3.175  20.438  0.00  0.00    +0.000 A 
ATOM      7  C   UNL     1       1.167   4.663  20.522  0.00  0.00    +0.000 A 
ATOM      8  N   UNL     1       2.125   5.492  20.239  0.00  0.00    +0.000 NA
ATOM      9  C   UNL     1       3.300   4.934  19.820  0.00  0.00    +0.000 A 
ATOM     10  N   UNL     1       4.423   5.524  19.463  0.00  0.00    +0.000 NA
ENDBRANCH   1   2
BRANCH   1  11
ATOM     11  S   UNL     1       6.646   6.197  17.396  0.00  0.00    +0.000 S 
BRANCH  11  16
ATOM     12  C   UNL     1       5.924   3.148  12.142  0.00  0.00    +0.000 C 
ATOM     13  C   UNL     1       6.068   3.918  13.423  0.00  0.00    +0.000 A 
ATOM     14  C   UNL     1       7.231   4.636  13.702  0.00  0.00    +0.000 A 
ATOM     15  C   UNL     1       7.360   5.335  14.909  0.00  0.00    +0.000 A 
ATOM     16  C   UNL     1       6.329   5.340  15.858  0.00  0.00    +0.000 A 
ATOM     17  C   UNL     1       5.167   4.616  15.579  0.00  0.00    +0.000 A 
ATOM     18  C   UNL     1       5.036   3.913  14.370  0.00  0.00    +0.000 A 
ENDBRANCH  11  16
ENDBRANCH   1  11
TORSDOF 3
ENDMDL
