MODEL 1
REMARK VINA RESULT:      -7.7      0.000      0.000
REMARK  Name = 
REMARK  7 active torsions:
REMARK  status: ('A' for Active; 'I' for Inactive)
REMARK    1  A    between atoms: C_1  and  C_2
REMARK    2  A    between atoms: C_4  and  S_5
REMARK    3  A    between atoms: S_5  and  C_6
REMARK    4  A    between atoms: C_9  and  C_10
REMARK    5  A    between atoms: C_11  and  S_12
REMARK    6  A    between atoms: S_12  and  N_15
REMARK    7  A    between atoms: N_15  and  C_16
REMARK                            x       y       z     vdW  Elec       q    Type
REMARK                         _______ _______ _______ _____ _____    ______ ____
ROOT
ATOM      1  C   UNL     1       2.363   8.450  17.994  0.00  0.00    +0.000 C 
ATOM      2  C   UNL     1       3.029   7.109  17.873  0.00  0.00    +0.000 A 
ATOM      3  C   UNL     1       2.377   5.947  18.281  0.00  0.00    +0.000 A 
ATOM      4  C   UNL     1       2.996   4.685  18.176  0.00  0.00    +0.000 A 
ATOM      5  C   UNL     1       4.318   4.560  17.685  0.00  0.00    +0.000 A 
ATOM      6  C   UNL     1       5.048   3.247  17.610  0.00  0.00    +0.000 C 
ATOM      7  C   UNL     1       4.966   5.753  17.268  0.00  0.00    +0.000 A 
ATOM      8  C   UNL     1       4.319   7.002  17.351  0.00  0.00    +0.000 A 
ENDROOT
BRANCH   4   9
ATOM      9  S   UNL     1       2.013   3.284  18.723  0.00  0.00    +0.000 S 
ATOM     10  C   UNL     1       2.962   2.520  20.014  0.00  0.00    +0.000 C 
ATOM     11  O   UNL     1       0.782   3.812  19.277  0.00  0.00    +0.000 OA
ATOM     12  O   UNL     1       1.965   2.329  17.630  0.00  0.00    +0.000 OA
ENDBRANCH   4   9
BRANCH   7  13
ATOM     13  S   UNL     1       6.623   5.747  16.563  0.00  0.00    +0.000 S 
ATOM     14  O   UNL     1       7.261   6.985  16.941  0.00  0.00    +0.000 OA
ATOM     15  O   UNL     1       7.249   4.472  16.850  0.00  0.00    +0.000 OA
BRANCH  13  16
ATOM     16  N   UNL     1       6.358   5.834  14.891  0.00  0.00    +0.000 NA
ATOM     17  H   UNL     1       6.723   6.712  14.524  0.00  0.00    +0.000 HD
BRANCH  16  18
ATOM     18  C   UNL     1       6.620   4.629  14.091  0.00  0.00    +0.000 C 
ATOM     19  C   UNL     1       5.356   4.004  13.524  0.00  0.00    +0.000 C 
ATOM     20  C   UNL     1       5.880   3.074  12.443  0.00  0.00    +0.000 C 
ATOM     21  C   UNL     1       7.136   3.754  11.900  0.00  0.00    +0.000 C 
ATOM     22  C   UNL     1       7.401   4.952  12.817  0.00  0.00    +0.000 C 
ENDBRANCH  16  18
ENDBRANCH  13  16
ENDBRANCH   7  13
TORSDOF 4
ENDMDL
MODEL 2
REMARK VINA RESULT:      -7.6      1.265      1.691
REMARK  Name = 
REMARK  7 active torsions:
REMARK  status: ('A' for Active; 'I' for Inactive)
REMARK    1  A    between atoms: C_1  and  C_2
REMARK    2  A    between atoms: C_4  and  S_5
REMARK    3  A    between atoms: S_5  and  C_6
REMARK    4  A    between atoms: C_9  and  C_10
REMARK    5  A    between atoms: C_11  and  S_12
REMARK    6  A    between atoms: S_12  and  N_15
REMARK    7  A    between atoms: N_15  and  C_16
REMARK                            x       y       z     vdW  Elec       q    Type
REMARK                         _______ _______ _______ _____ _____    ______ ____
ROOT
ATOM      1  C   UNL     1       2.237   8.509  17.612  0.00  0.00    +0.000 C 
ATOM      2  C   UNL     1       3.091   7.301  17.871  0.00  0.00    +0.000 A 
ATOM      3  C   UNL     1       2.533   6.123  18.364  0.00  0.00    +0.000 A 
ATOM      4  C   UNL     1       3.328   4.987  18.615  0.00  0.00    +0.000 A 
ATOM      5  C   UNL     1       4.729   5.017  18.409  0.00  0.00    +0.000 A 
ATOM      6  C   UNL     1       5.632   3.854  18.720  0.00  0.00    +0.000 C 
ATOM      7  C   UNL     1       5.280   6.223  17.902  0.00  0.00    +0.000 A 
ATOM      8  C   UNL     1       4.465   7.339  17.627  0.00  0.00    +0.000 A 
ENDROOT
BRANCH   4   9
ATOM      9  S   UNL     1       2.454   3.541  19.226  0.00  0.00    +0.000 S 
ATOM     10  C   UNL     1       2.597   2.327  17.938  0.00  0.00    +0.000 C 
ATOM     11  O   UNL     1       3.158   3.078  20.404  0.00  0.00    +0.000 OA
ATOM     12  O   UNL     1       1.045   3.884  19.310  0.00  0.00    +0.000 OA
ENDBRANCH   4   9
BRANCH   7  13
ATOM     13  S   UNL     1       7.034   6.392  17.529  0.00  0.00    +0.000 S 
ATOM     14  O   UNL     1       7.198   7.599  16.755  0.00  0.00    +0.000 OA
ATOM     15  O   UNL     1       7.793   6.181  18.745  0.00  0.00    +0.000 OA
BRANCH  13  16
ATOM     16  N   UNL     1       7.357   5.101  16.480  0.00  0.00    +0.000 NA
ATOM     17  H   UNL     1       7.364   4.222  16.997  0.00  0.00    +0.000 HD
BRANCH  16  18
ATOM     18  C   UNL     1       6.678   5.088  15.176  0.00  0.00    +0.000 C 
ATOM     19  C   UNL     1       7.636   4.913  14.008  0.00  0.00    +0.000 C 
ATOM     20  C   UNL     1       6.719   4.524  12.861  0.00  0.00    +0.000 C 
ATOM     21  C   UNL     1       5.579   3.737  13.504  0.00  0.00    +0.000 C 
ATOM     22  C   UNL     1       5.774   3.867  15.018  0.00  0.00    +0.000 C 
ENDBRANCH  16  18
ENDBRANCH  13  16
ENDBRANCH   7  13
TORSDOF 4
ENDMDL
MODEL 3
REMARK VINA RESULT:      -7.6      0.960      1.112
REMARK  Name = 
REMARK  7 active torsions:
REMARK  status: ('A' for Active; 'I' for Inactive)
REMARK    1  A    between atoms: C_1  and  C_2
REMARK    2  A    between atoms: C_4  and  S_5
REMARK    3  A    between atoms: S_5  and  C_6
REMARK    4  A    between atoms: C_9  and  C_10
REMARK    5  A    between atoms: C_11  and  S_12
REMARK    6  A    between atoms: S_12  and  N_15
REMARK    7  A    between atoms: N_15  and  C_16
REMARK                            x       y       z     vdW  Elec       q    Type
REMARK                         _______ _______ _______ _____ _____    ______ ____
ROOT
ATOM      1  C   UNL     1       2.267   8.510  17.766  0.00  0.00    +0.000 C 
ATOM      2  C   UNL     1       2.979   7.198  17.936  0.00  0.00    +0.000 A 
ATOM      3  C   UNL     1       2.377   6.141  18.617  0.00  0.00    +0.000 A 
ATOM      4  C   UNL     1       3.039   4.908  18.784  0.00  0.00    +0.000 A 
ATOM      5  C   UNL     1       4.356   4.715  18.298  0.00  0.00    +0.000 A 
ATOM      6  C   UNL     1       5.131   3.443  18.505  0.00  0.00    +0.000 C 
ATOM      7  C   UNL     1       4.951   5.801  17.603  0.00  0.00    +0.000 A 
ATOM      8  C   UNL     1       4.261   7.015  17.417  0.00  0.00    +0.000 A 
ENDROOT
BRANCH   4   9
ATOM      9  S   UNL     1       2.119   3.640  19.664  0.00  0.00    +0.000 S 
ATOM     10  C   UNL     1       1.754   2.399  18.449  0.00  0.00    +0.000 C 
ATOM     11  O   UNL     1       3.003   3.086  20.669  0.00  0.00    +0.000 OA
ATOM     12  O   UNL     1       0.845   4.217  20.057  0.00  0.00    +0.000 OA
ENDBRANCH   4   9
BRANCH   7  13
ATOM     13  S   UNL     1       6.593   5.684  16.872  0.00  0.00    +0.000 S 
ATOM     14  O   UNL     1       7.339   6.846  17.293  0.00  0.00    +0.000 OA
ATOM     15  O   UNL     1       7.110   4.349  17.095  0.00  0.00    +0.000 OA
BRANCH  13  16
ATOM     16  N   UNL     1       6.317   5.867  15.210  0.00  0.00    +0.000 NA
ATOM     17  H   UNL     1       6.640   6.783  14.900  0.00  0.00    +0.000 HD
BRANCH  16  18
ATOM     18  C   UNL     1       6.628   4.730  14.333  0.00  0.00    +0.000 C 
ATOM     19  C   UNL     1       5.395   4.130  13.674  0.00  0.00    +0.000 C 
ATOM     20  C   UNL     1       5.974   3.292  12.548  0.00  0.00    +0.000 C 
ATOM     21  C   UNL     1       7.237   4.028  12.104  0.00  0.00    +0.000 C 
ATOM     22  C   UNL     1       7.448   5.158  13.116  0.00  0.00    +0.000 C 
ENDBRANCH  16  18
ENDBRANCH  13  16
ENDBRANCH   7  13
TORSDOF 4
ENDMDL
MODEL 4
REMARK VINA RESULT:      -7.5      1.009      1.071
REMARK  Name = 
REMARK  7 active torsions:
REMARK  status: ('A' for Active; 'I' for Inactive)
REMARK    1  A    between atoms: C_1  and  C_2
REMARK    2  A    between atoms: C_4  and  S_5
REMARK    3  A    between atoms: S_5  and  C_6
REMARK    4  A    between atoms: C_9  and  C_10
REMARK    5  A    between atoms: C_11  and  S_12
REMARK    6  A    between atoms: S_12  and  N_15
REMARK    7  A    between atoms: N_15  and  C_16
REMARK                            x       y       z     vdW  Elec       q    Type
REMARK                         _______ _______ _______ _____ _____    ______ ____
ROOT
ATOM      1  C   UNL     1       2.249   8.254  18.562  0.00  0.00    +0.000 C 
ATOM      2  C   UNL     1       2.821   6.898  18.260  0.00  0.00    +0.000 A 
ATOM      3  C   UNL     1       2.218   5.742  18.752  0.00  0.00    +0.000 A 
ATOM      4  C   UNL     1       2.749   4.466  18.477  0.00  0.00    +0.000 A 
ATOM      5  C   UNL     1       3.937   4.319  17.720  0.00  0.00    +0.000 A 
ATOM      6  C   UNL     1       4.582   2.986  17.451  0.00  0.00    +0.000 C 
ATOM      7  C   UNL     1       4.535   5.506  17.222  0.00  0.00    +0.000 A 
ATOM      8  C   UNL     1       3.972   6.771  17.481  0.00  0.00    +0.000 A 
ENDROOT
BRANCH   4   9
ATOM      9  S   UNL     1       1.841   3.076  19.164  0.00  0.00    +0.000 S 
ATOM     10  C   UNL     1       0.705   3.787  20.327  0.00  0.00    +0.000 C 
ATOM     11  O   UNL     1       1.101   2.467  18.077  0.00  0.00    +0.000 OA
ATOM     12  O   UNL     1       2.778   2.282  19.939  0.00  0.00    +0.000 OA
ENDBRANCH   4   9
BRANCH   7  13
ATOM     13  S   UNL     1       6.012   5.475  16.192  0.00  0.00    +0.000 S 
ATOM     14  O   UNL     1       6.588   6.798  16.219  0.00  0.00    +0.000 OA
ATOM     15  O   UNL     1       6.804   4.314  16.545  0.00  0.00    +0.000 OA
BRANCH  13  16
ATOM     16  N   UNL     1       5.414   5.244  14.623  0.00  0.00    +0.000 NA
ATOM     17  H   UNL     1       5.346   6.138  14.138  0.00  0.00    +0.000 HD
BRANCH  16  18
ATOM     18  C   UNL     1       5.944   4.114  13.846  0.00  0.00    +0.000 C 
ATOM     19  C   UNL     1       4.963   3.592  12.809  0.00  0.00    +0.000 C 
ATOM     20  C   UNL     1       5.837   2.755  11.891  0.00  0.00    +0.000 C 
ATOM     21  C   UNL     1       7.203   3.440  11.899  0.00  0.00    +0.000 C 
ATOM     22  C   UNL     1       7.124   4.532  12.969  0.00  0.00    +0.000 C 
ENDBRANCH  16  18
ENDBRANCH  13  16
ENDBRANCH   7  13
TORSDOF 4
ENDMDL
MODEL 5
REMARK VINA RESULT:      -7.4      1.262      1.629
REMARK  Name = 
REMARK  7 active torsions:
REMARK  status: ('A' for Active; 'I' for Inactive)
REMARK    1  A    between atoms: C_1  and  C_2
REMARK    2  A    between atoms: C_4  and  S_5
REMARK    3  A    between atoms: S_5  and  C_6
REMARK    4  A    between atoms: C_9  and  C_10
REMARK    5  A    between atoms: C_11  and  S_12
REMARK    6  A    between atoms: S_12  and  N_15
REMARK    7  A    between atoms: N_15  and  C_16
REMARK                            x       y       z     vdW  Elec       q    Type
REMARK                         _______ _______ _______ _____ _____    ______ ____
ROOT
ATOM      1  C   UNL     1       2.358   8.276  17.625  0.00  0.00    +0.000 C 
ATOM      2  C   UNL     1       3.065   6.976  17.886  0.00  0.00    +0.000 A 
ATOM      3  C   UNL     1       2.347   5.797  18.073  0.00  0.00    +0.000 A 
ATOM      4  C   UNL     1       3.002   4.574  18.322  0.00  0.00    +0.000 A 
ATOM      5  C   UNL     1       4.412   4.510  18.427  0.00  0.00    +0.000 A 
ATOM      6  C   UNL     1       5.157   3.245  18.754  0.00  0.00    +0.000 C 
ATOM      7  C   UNL     1       5.128   5.720  18.228  0.00  0.00    +0.000 A 
ATOM      8  C   UNL     1       4.458   6.928  17.948  0.00  0.00    +0.000 A 
ENDROOT
BRANCH   4   9
ATOM      9  S   UNL     1       1.935   3.142  18.518  0.00  0.00    +0.000 S 
ATOM     10  C   UNL     1       1.864   2.843  20.266  0.00  0.00    +0.000 C 
ATOM     11  O   UNL     1       0.619   3.517  18.039  0.00  0.00    +0.000 OA
ATOM     12  O   UNL     1       2.620   2.002  17.935  0.00  0.00    +0.000 OA
ENDBRANCH   4   9
BRANCH   7  13
ATOM     13  S   UNL     1       6.928   5.786  18.267  0.00  0.00    +0.000 S 
ATOM     14  O   UNL     1       7.322   7.119  17.881  0.00  0.00    +0.000 OA
ATOM     15  O   UNL     1       7.390   5.206  19.513  0.00  0.00    +0.000 OA
BRANCH  13  16
ATOM     16  N   UNL     1       7.403   4.760  17.005  0.00  0.00    +0.000 NA
ATOM     17  H   UNL     1       7.500   3.804  17.347  0.00  0.00    +0.000 HD
BRANCH  16  18
ATOM     18  C   UNL     1       6.747   4.926  15.700  0.00  0.00    +0.000 C 
ATOM     19  C   UNL     1       7.732   5.120  14.558  0.00  0.00    +0.000 C 
ATOM     20  C   UNL     1       6.889   4.858  13.322  0.00  0.00    +0.000 C 
ATOM     21  C   UNL     1       5.859   3.814  13.750  0.00  0.00    +0.000 C 
ATOM     22  C   UNL     1       6.018   3.655  15.265  0.00  0.00    +0.000 C 
ENDBRANCH  16  18
ENDBRANCH  13  16
ENDBRANCH   7  13
TORSDOF 4
ENDMDL
MODEL 6
REMARK VINA RESULT:      -7.2      1.113      1.433
REMARK  Name = 
REMARK  7 active torsions:
REMARK  status: ('A' for Active; 'I' for Inactive)
REMARK    1  A    between atoms: C_1  and  C_2
REMARK    2  A    between atoms: C_4  and  S_5
REMARK    3  A    between atoms: S_5  and  C_6
REMARK    4  A    between atoms: C_9  and  C_10
REMARK    5  A    between atoms: C_11  and  S_12
REMARK    6  A    between atoms: S_12  and  N_15
REMARK    7  A    between atoms: N_15  and  C_16
REMARK                            x       y       z     vdW  Elec       q    Type
REMARK                         _______ _______ _______ _____ _____    ______ ____
ROOT
ATOM      1  C   UNL     1       2.534   8.455  17.770  0.00  0.00    +0.000 C 
ATOM      2  C   UNL     1       3.132   7.082  17.894  0.00  0.00    +0.000 A 
ATOM      3  C   UNL     1       2.387   6.021  18.403  0.00  0.00    +0.000 A 
ATOM      4  C   UNL     1       2.941   4.731  18.527  0.00  0.00    +0.000 A 
ATOM      5  C   UNL     1       4.289   4.479  18.172  0.00  0.00    +0.000 A 
ATOM      6  C   UNL     1       4.948   3.138  18.343  0.00  0.00    +0.000 C 
ATOM      7  C   UNL     1       5.032   5.570  17.650  0.00  0.00    +0.000 A 
ATOM      8  C   UNL     1       4.451   6.846  17.503  0.00  0.00    +0.000 A 
ENDROOT
BRANCH   4   9
ATOM      9  S   UNL     1       1.843   3.467  19.179  0.00  0.00    +0.000 S 
ATOM     10  C   UNL     1       0.843   4.294  20.390  0.00  0.00    +0.000 C 
ATOM     11  O   UNL     1       1.004   3.021  18.085  0.00  0.00    +0.000 OA
ATOM     12  O   UNL     1       2.658   2.510  19.905  0.00  0.00    +0.000 OA
ENDBRANCH   4   9
BRANCH   7  13
ATOM     13  S   UNL     1       6.736   5.390  17.095  0.00  0.00    +0.000 S 
ATOM     14  O   UNL     1       7.117   6.627  16.455  0.00  0.00    +0.000 OA
ATOM     15  O   UNL     1       7.525   4.842  18.180  0.00  0.00    +0.000 OA
BRANCH  13  16
ATOM     16  N   UNL     1       6.648   4.222  15.870  0.00  0.00    +0.000 NA
ATOM     17  H   UNL     1       6.020   3.469  16.149  0.00  0.00    +0.000 HD
BRANCH  16  18
ATOM     18  C   UNL     1       6.534   4.691  14.482  0.00  0.00    +0.000 C 
ATOM     19  C   UNL     1       7.874   5.070  13.870  0.00  0.00    +0.000 C 
ATOM     20  C   UNL     1       7.577   5.115  12.381  0.00  0.00    +0.000 C 
ATOM     21  C   UNL     1       6.499   4.057  12.152  0.00  0.00    +0.000 C 
ATOM     22  C   UNL     1       6.072   3.578  13.542  0.00  0.00    +0.000 C 
ENDBRANCH  16  18
ENDBRANCH  13  16
ENDBRANCH   7  13
TORSDOF 4
ENDMDL
MODEL 7
REMARK VINA RESULT:      -7.0      2.632      3.514
REMARK  Name = 
REMARK  7 active torsions:
REMARK  status: ('A' for Active; 'I' for Inactive)
REMARK    1  A    between atoms: C_1  and  C_2
REMARK    2  A    between atoms: C_4  and  S_5
REMARK    3  A    between atoms: S_5  and  C_6
REMARK    4  A    between atoms: C_9  and  C_10
REMARK    5  A    between atoms: C_11  and  S_12
REMARK    6  A    between atoms: S_12  and  N_15
REMARK    7  A    between atoms: N_15  and  C_16
REMARK                            x       y       z     vdW  Elec       q    Type
REMARK                         _______ _______ _______ _____ _____    ______ ____
ROOT
ATOM      1  C   UNL     1       2.235   8.426  18.584  0.00  0.00    +0.000 C 
ATOM      2  C   UNL     1       2.810   7.090  18.205  0.00  0.00    +0.000 A 
ATOM      3  C   UNL     1       2.488   5.943  18.928  0.00  0.00    +0.000 A 
ATOM      4  C   UNL     1       3.027   4.687  18.583  0.00  0.00    +0.000 A 
ATOM      5  C   UNL     1       3.943   4.556  17.511  0.00  0.00    +0.000 A 
ATOM      6  C   UNL     1       4.595   3.252  17.141  0.00  0.00    +0.000 C 
ATOM      7  C   UNL     1       4.255   5.734  16.783  0.00  0.00    +0.000 A 
ATOM      8  C   UNL     1       3.682   6.976  17.122  0.00  0.00    +0.000 A 
ENDROOT
BRANCH   4   9
ATOM      9  S   UNL     1       2.495   3.303  19.598  0.00  0.00    +0.000 S 
ATOM     10  C   UNL     1       1.459   4.012  20.853  0.00  0.00    +0.000 C 
ATOM     11  O   UNL     1       1.702   2.431  18.755  0.00  0.00    +0.000 OA
ATOM     12  O   UNL     1       3.668   2.784  20.279  0.00  0.00    +0.000 OA
ENDBRANCH   4   9
BRANCH   7  13
ATOM     13  S   UNL     1       5.353   5.715  15.356  0.00  0.00    +0.000 S 
ATOM     14  O   UNL     1       5.211   4.429  14.715  0.00  0.00    +0.000 OA
ATOM     15  O   UNL     1       5.169   6.941  14.606  0.00  0.00    +0.000 OA
BRANCH  13  16
ATOM     16  N   UNL     1       6.907   5.745  16.033  0.00  0.00    +0.000 NA
ATOM     17  H   UNL     1       7.561   6.187  15.389  0.00  0.00    +0.000 HD
BRANCH  16  18
ATOM     18  C   UNL     1       7.031   6.114  17.450  0.00  0.00    +0.000 C 
ATOM     19  C   UNL     1       7.757   5.065  18.278  0.00  0.00    +0.000 C 
ATOM     20  C   UNL     1       8.122   5.814  19.548  0.00  0.00    +0.000 C 
ATOM     21  C   UNL     1       8.357   7.258  19.112  0.00  0.00    +0.000 C 
ATOM     22  C   UNL     1       7.931   7.334  17.643  0.00  0.00    +0.000 C 
ENDBRANCH  16  18
ENDBRANCH  13  16
ENDBRANCH   7  13
TORSDOF 4
ENDMDL
MODEL 8
REMARK VINA RESULT:      -6.9      2.671      3.509
REMARK  Name = 
REMARK  7 active torsions:
REMARK  status: ('A' for Active; 'I' for Inactive)
REMARK    1  A    between atoms: C_1  and  C_2
REMARK    2  A    between atoms: C_4  and  S_5
REMARK    3  A    between atoms: S_5  and  C_6
REMARK    4  A    between atoms: C_9  and  C_10
REMARK    5  A    between atoms: C_11  and  S_12
REMARK    6  A    between atoms: S_12  and  N_15
REMARK    7  A    between atoms: N_15  and  C_16
REMARK                            x       y       z     vdW  Elec       q    Type
REMARK                         _______ _______ _______ _____ _____    ______ ____
ROOT
ATOM      1  C   UNL     1       2.572   8.509  18.202  0.00  0.00    +0.000 C 
ATOM      2  C   UNL     1       2.941   7.062  18.037  0.00  0.00    +0.000 A 
ATOM      3  C   UNL     1       2.359   6.080  18.835  0.00  0.00    +0.000 A 
ATOM      4  C   UNL     1       2.703   4.721  18.690  0.00  0.00    +0.000 A 
ATOM      5  C   UNL     1       3.681   4.312  17.752  0.00  0.00    +0.000 A 
ATOM      6  C   UNL     1       4.131   2.885  17.600  0.00  0.00    +0.000 C 
ATOM      7  C   UNL     1       4.261   5.325  16.943  0.00  0.00    +0.000 A 
ATOM      8  C   UNL     1       3.881   6.675  17.080  0.00  0.00    +0.000 A 
ENDROOT
BRANCH   4   9
ATOM      9  S   UNL     1       1.845   3.577  19.778  0.00  0.00    +0.000 S 
ATOM     10  C   UNL     1       0.935   2.498  18.702  0.00  0.00    +0.000 C 
ATOM     11  O   UNL     1       2.855   2.814  20.483  0.00  0.00    +0.000 OA
ATOM     12  O   UNL     1       0.859   4.338  20.525  0.00  0.00    +0.000 OA
ENDBRANCH   4   9
BRANCH   7  13
ATOM     13  S   UNL     1       5.471   4.953  15.662  0.00  0.00    +0.000 S 
ATOM     14  O   UNL     1       4.870   4.000  14.760  0.00  0.00    +0.000 OA
ATOM     15  O   UNL     1       6.025   6.197  15.166  0.00  0.00    +0.000 OA
BRANCH  13  16
ATOM     16  N   UNL     1       6.699   4.126  16.487  0.00  0.00    +0.000 NA
ATOM     17  H   UNL     1       7.177   3.486  15.853  0.00  0.00    +0.000 HD
BRANCH  16  18
ATOM     18  C   UNL     1       7.550   4.897  17.404  0.00  0.00    +0.000 C 
ATOM     19  C   UNL     1       7.404   6.401  17.230  0.00  0.00    +0.000 C 
ATOM     20  C   UNL     1       8.021   6.961  18.500  0.00  0.00    +0.000 C 
ATOM     21  C   UNL     1       7.729   5.924  19.583  0.00  0.00    +0.000 C 
ATOM     22  C   UNL     1       7.126   4.714  18.861  0.00  0.00    +0.000 C 
ENDBRANCH  16  18
ENDBRANCH  13  16
ENDBRANCH   7  13
TORSDOF 4
ENDMDL
MODEL 9
REMARK VINA RESULT:      -6.9      2.576      3.428
REMARK  Name = 
REMARK  7 active torsions:
REMARK  status: ('A' for Active; 'I' for Inactive)
REMARK    1  A    between atoms: C_1  and  C_2
REMARK    2  A    between atoms: C_4  and  S_5
REMARK    3  A    between atoms: S_5  and  C_6
REMARK    4  A    between atoms: C_9  and  C_10
REMARK    5  A    between atoms: C_11  and  S_12
REMARK    6  A    between atoms: S_12  and  N_15
REMARK    7  A    between atoms: N_15  and  C_16
REMARK                            x       y       z     vdW  Elec       q    Type
REMARK                         _______ _______ _______ _____ _____    ______ ____
ROOT
ATOM      1  C   UNL     1       2.466   8.170  18.411  0.00  0.00    +0.000 C 
ATOM      2  C   UNL     1       2.862   6.758  18.086  0.00  0.00    +0.000 A 
ATOM      3  C   UNL     1       2.256   5.679  18.728  0.00  0.00    +0.000 A 
ATOM      4  C   UNL     1       2.624   4.352  18.433  0.00  0.00    +0.000 A 
ATOM      5  C   UNL     1       3.651   4.070  17.499  0.00  0.00    +0.000 A 
ATOM      6  C   UNL     1       4.126   2.676  17.193  0.00  0.00    +0.000 C 
ATOM      7  C   UNL     1       4.254   5.180  16.850  0.00  0.00    +0.000 A 
ATOM      8  C   UNL     1       3.850   6.500  17.135  0.00  0.00    +0.000 A 
ENDROOT
BRANCH   4   9
ATOM      9  S   UNL     1       1.732   3.075  19.329  0.00  0.00    +0.000 S 
ATOM     10  C   UNL     1       0.850   3.930  20.610  0.00  0.00    +0.000 C 
ATOM     11  O   UNL     1       0.785   2.483  18.405  0.00  0.00    +0.000 OA
ATOM     12  O   UNL     1       2.715   2.239  19.995  0.00  0.00    +0.000 OA
ENDBRANCH   4   9
BRANCH   7  13
ATOM     13  S   UNL     1       5.527   4.979  15.593  0.00  0.00    +0.000 S 
ATOM     14  O   UNL     1       5.004   4.092  14.582  0.00  0.00    +0.000 OA
ATOM     15  O   UNL     1       6.045   6.285  15.238  0.00  0.00    +0.000 OA
BRANCH  13  16
ATOM     16  N   UNL     1       6.758   4.128  16.389  0.00  0.00    +0.000 NA
ATOM     17  H   UNL     1       7.267   3.545  15.725  0.00  0.00    +0.000 HD
BRANCH  16  18
ATOM     18  C   UNL     1       7.567   4.855  17.378  0.00  0.00    +0.000 C 
ATOM     19  C   UNL     1       7.452   6.365  17.247  0.00  0.00    +0.000 C 
ATOM     20  C   UNL     1       8.004   6.873  18.568  0.00  0.00    +0.000 C 
ATOM     21  C   UNL     1       7.638   5.805  19.596  0.00  0.00    +0.000 C 
ATOM     22  C   UNL     1       7.060   4.630  18.802  0.00  0.00    +0.000 C 
ENDBRANCH  16  18
ENDBRANCH  13  16
ENDBRANCH   7  13
TORSDOF 4
ENDMDL
