MODEL 1
REMARK VINA RESULT:      -7.4      0.000      0.000
REMARK  Name = 
REMARK  7 active torsions:
REMARK  status: ('A' for Active; 'I' for Inactive)
REMARK    1  A    between atoms: C_1  and  O_2
REMARK    2  A    between atoms: O_2  and  C_3
REMARK    3  A    between atoms: C_6  and  C_7
REMARK    4  A    between atoms: C_8  and  C_9
REMARK    5  A    between atoms: C_9  and  C_11
REMARK    6  A    between atoms: C_13  and  C_14
REMARK    7  A    between atoms: C_16  and  C_17
REMARK                            x       y       z     vdW  Elec       q    Type
REMARK                         _______ _______ _______ _____ _____    ______ ____
ROOT
ATOM      1  C   UNL     1       3.445   6.092  18.482  0.00  0.00    +0.000 C 
ATOM      2  C   UNL     1       4.115   5.389  19.410  0.00  0.00    +0.000 C 
ENDROOT
BRANCH   1   6
ATOM      3  C   UNL     1       1.055   9.573  19.257  0.00  0.00    +0.000 A 
ATOM      4  C   UNL     1       1.624   9.351  18.003  0.00  0.00    +0.000 A 
ATOM      5  C   UNL     1       2.380   8.201  17.760  0.00  0.00    +0.000 A 
ATOM      6  C   UNL     1       2.610   7.267  18.778  0.00  0.00    +0.000 A 
ATOM      7  C   UNL     1       2.026   7.493  20.032  0.00  0.00    +0.000 A 
ATOM      8  C   UNL     1       1.261   8.641  20.272  0.00  0.00    +0.000 A 
BRANCH   3  10
ATOM      9  C   UNL     1      -1.054  10.635  19.184  0.00  0.00    +0.000 C 
ATOM     10  O   UNL     1       0.352  10.739  19.386  0.00  0.00    +0.000 OA
ENDBRANCH   3  10
ENDBRANCH   1   6
BRANCH   2  11
ATOM     11  C   UNL     1       5.018   4.279  18.991  0.00  0.00    +0.000 C 
ATOM     12  O   UNL     1       5.082   3.230  19.621  0.00  0.00    +0.000 OA
BRANCH  11  13
ATOM     13  C   UNL     1       5.802   4.537  17.787  0.00  0.00    +0.000 A 
ATOM     14  C   UNL     1       5.594   4.164  16.421  0.00  0.00    +0.000 A 
ATOM     15  C   UNL     1       6.617   4.725  15.689  0.00  0.00    +0.000 A 
ATOM     16  C   UNL     1       6.936   4.771  14.248  0.00  0.00    +0.000 C 
ATOM     17  O   UNL     1       7.474   5.379  16.513  0.00  0.00    +0.000 OA
ATOM     18  C   UNL     1       6.985   5.263  17.777  0.00  0.00    +0.000 A 
ATOM     19  C   UNL     1       7.781   5.925  18.836  0.00  0.00    +0.000 C 
ENDBRANCH  11  13
ENDBRANCH   2  11
TORSDOF 4
ENDMDL
MODEL 2
REMARK VINA RESULT:      -7.3      0.473      1.200
REMARK  Name = 
REMARK  7 active torsions:
REMARK  status: ('A' for Active; 'I' for Inactive)
REMARK    1  A    between atoms: C_1  and  O_2
REMARK    2  A    between atoms: O_2  and  C_3
REMARK    3  A    between atoms: C_6  and  C_7
REMARK    4  A    between atoms: C_8  and  C_9
REMARK    5  A    between atoms: C_9  and  C_11
REMARK    6  A    between atoms: C_13  and  C_14
REMARK    7  A    between atoms: C_16  and  C_17
REMARK                            x       y       z     vdW  Elec       q    Type
REMARK                         _______ _______ _______ _____ _____    ______ ____
ROOT
ATOM      1  C   UNL     1       3.516   6.154  18.400  0.00  0.00    +0.000 C 
ATOM      2  C   UNL     1       4.053   5.366  19.346  0.00  0.00    +0.000 C 
ENDROOT
BRANCH   1   6
ATOM      3  C   UNL     1       1.019   9.526  19.312  0.00  0.00    +0.000 A 
ATOM      4  C   UNL     1       1.288   8.546  20.267  0.00  0.00    +0.000 A 
ATOM      5  C   UNL     1       2.122   7.466  19.962  0.00  0.00    +0.000 A 
ATOM      6  C   UNL     1       2.676   7.329  18.683  0.00  0.00    +0.000 A 
ATOM      7  C   UNL     1       2.408   8.323  17.732  0.00  0.00    +0.000 A 
ATOM      8  C   UNL     1       1.580   9.409  18.041  0.00  0.00    +0.000 A 
BRANCH   3  10
ATOM      9  C   UNL     1      -0.355  10.389  21.028  0.00  0.00    +0.000 C 
ATOM     10  O   UNL     1       0.177  10.525  19.714  0.00  0.00    +0.000 OA
ENDBRANCH   3  10
ENDBRANCH   1   6
BRANCH   2  11
ATOM     11  C   UNL     1       4.977   4.262  18.955  0.00  0.00    +0.000 C 
ATOM     12  O   UNL     1       5.047   3.224  19.601  0.00  0.00    +0.000 OA
BRANCH  11  13
ATOM     13  C   UNL     1       5.773   4.514  17.757  0.00  0.00    +0.000 A 
ATOM     14  C   UNL     1       5.569   4.148  16.388  0.00  0.00    +0.000 A 
ATOM     15  C   UNL     1       6.605   4.697  15.665  0.00  0.00    +0.000 A 
ATOM     16  C   UNL     1       6.934   4.743  14.227  0.00  0.00    +0.000 C 
ATOM     17  O   UNL     1       7.464   5.337  16.497  0.00  0.00    +0.000 OA
ATOM     18  C   UNL     1       6.966   5.224  17.758  0.00  0.00    +0.000 A 
ATOM     19  C   UNL     1       7.763   5.871  18.824  0.00  0.00    +0.000 C 
ENDBRANCH  11  13
ENDBRANCH   2  11
TORSDOF 4
ENDMDL
MODEL 3
REMARK VINA RESULT:      -7.2      1.018      1.646
REMARK  Name = 
REMARK  7 active torsions:
REMARK  status: ('A' for Active; 'I' for Inactive)
REMARK    1  A    between atoms: C_1  and  O_2
REMARK    2  A    between atoms: O_2  and  C_3
REMARK    3  A    between atoms: C_6  and  C_7
REMARK    4  A    between atoms: C_8  and  C_9
REMARK    5  A    between atoms: C_9  and  C_11
REMARK    6  A    between atoms: C_13  and  C_14
REMARK    7  A    between atoms: C_16  and  C_17
REMARK                            x       y       z     vdW  Elec       q    Type
REMARK                         _______ _______ _______ _____ _____    ______ ____
ROOT
ATOM      1  C   UNL     1       3.807   6.140  18.173  0.00  0.00    +0.000 C 
ATOM      2  C   UNL     1       3.469   5.109  17.381  0.00  0.00    +0.000 C 
ENDROOT
BRANCH   1   6
ATOM      3  C   UNL     1       1.111   9.281  19.309  0.00  0.00    +0.000 A 
ATOM      4  C   UNL     1       1.439   8.255  20.194  0.00  0.00    +0.000 A 
ATOM      5  C   UNL     1       2.337   7.252  19.817  0.00  0.00    +0.000 A 
ATOM      6  C   UNL     1       2.898   7.239  18.534  0.00  0.00    +0.000 A 
ATOM      7  C   UNL     1       2.570   8.279  17.654  0.00  0.00    +0.000 A 
ATOM      8  C   UNL     1       1.677   9.288  18.035  0.00  0.00    +0.000 A 
BRANCH   3  10
ATOM      9  C   UNL     1      -0.617  10.805  18.790  0.00  0.00    +0.000 C 
ATOM     10  O   UNL     1       0.210  10.197  19.776  0.00  0.00    +0.000 OA
ENDBRANCH   3  10
ENDBRANCH   1   6
BRANCH   2  11
ATOM     11  C   UNL     1       4.433   3.992  17.164  0.00  0.00    +0.000 C 
ATOM     12  O   UNL     1       4.315   2.919  17.743  0.00  0.00    +0.000 OA
BRANCH  11  13
ATOM     13  C   UNL     1       5.507   4.275  16.216  0.00  0.00    +0.000 A 
ATOM     14  C   UNL     1       5.525   4.316  14.785  0.00  0.00    +0.000 A 
ATOM     15  C   UNL     1       6.794   4.694  14.407  0.00  0.00    +0.000 A 
ATOM     16  C   UNL     1       7.429   4.978  13.106  0.00  0.00    +0.000 C 
ATOM     17  O   UNL     1       7.580   4.841  15.503  0.00  0.00    +0.000 OA
ATOM     18  C   UNL     1       6.807   4.586  16.592  0.00  0.00    +0.000 A 
ATOM     19  C   UNL     1       7.485   4.703  17.903  0.00  0.00    +0.000 C 
ENDBRANCH  11  13
ENDBRANCH   2  11
TORSDOF 4
ENDMDL
MODEL 4
REMARK VINA RESULT:      -7.1      1.118      1.282
REMARK  Name = 
REMARK  7 active torsions:
REMARK  status: ('A' for Active; 'I' for Inactive)
REMARK    1  A    between atoms: C_1  and  O_2
REMARK    2  A    between atoms: O_2  and  C_3
REMARK    3  A    between atoms: C_6  and  C_7
REMARK    4  A    between atoms: C_8  and  C_9
REMARK    5  A    between atoms: C_9  and  C_11
REMARK    6  A    between atoms: C_13  and  C_14
REMARK    7  A    between atoms: C_16  and  C_17
REMARK                            x       y       z     vdW  Elec       q    Type
REMARK                         _______ _______ _______ _____ _____    ______ ____
ROOT
ATOM      1  C   UNL     1       3.810   6.103  18.185  0.00  0.00    +0.000 C 
ATOM      2  C   UNL     1       3.441   5.008  17.500  0.00  0.00    +0.000 C 
ENDROOT
BRANCH   1   6
ATOM      3  C   UNL     1       1.183   9.340  19.208  0.00  0.00    +0.000 A 
ATOM      4  C   UNL     1       1.834   9.300  17.976  0.00  0.00    +0.000 A 
ATOM      5  C   UNL     1       2.669   8.227  17.649  0.00  0.00    +0.000 A 
ATOM      6  C   UNL     1       2.893   7.190  18.563  0.00  0.00    +0.000 A 
ATOM      7  C   UNL     1       2.227   7.234  19.795  0.00  0.00    +0.000 A 
ATOM      8  C   UNL     1       1.384   8.304  20.119  0.00  0.00    +0.000 A 
BRANCH   3  10
ATOM      9  C   UNL     1       1.026  11.493  20.167  0.00  0.00    +0.000 C 
ATOM     10  O   UNL     1       0.407  10.445  19.429  0.00  0.00    +0.000 OA
ENDBRANCH   3  10
ENDBRANCH   1   6
BRANCH   2  11
ATOM     11  C   UNL     1       4.428   3.916  17.260  0.00  0.00    +0.000 C 
ATOM     12  O   UNL     1       4.336   2.831  17.823  0.00  0.00    +0.000 OA
BRANCH  11  13
ATOM     13  C   UNL     1       5.490   4.236  16.312  0.00  0.00    +0.000 A 
ATOM     14  C   UNL     1       5.505   4.278  14.881  0.00  0.00    +0.000 A 
ATOM     15  C   UNL     1       6.760   4.700  14.501  0.00  0.00    +0.000 A 
ATOM     16  C   UNL     1       7.384   5.006  13.199  0.00  0.00    +0.000 C 
ATOM     17  O   UNL     1       7.541   4.875  15.597  0.00  0.00    +0.000 OA
ATOM     18  C   UNL     1       6.778   4.592  16.686  0.00  0.00    +0.000 A 
ATOM     19  C   UNL     1       7.454   4.734  17.997  0.00  0.00    +0.000 C 
ENDBRANCH  11  13
ENDBRANCH   2  11
TORSDOF 4
ENDMDL
MODEL 5
REMARK VINA RESULT:      -7.0      4.113      5.181
REMARK  Name = 
REMARK  7 active torsions:
REMARK  status: ('A' for Active; 'I' for Inactive)
REMARK    1  A    between atoms: C_1  and  O_2
REMARK    2  A    between atoms: O_2  and  C_3
REMARK    3  A    between atoms: C_6  and  C_7
REMARK    4  A    between atoms: C_8  and  C_9
REMARK    5  A    between atoms: C_9  and  C_11
REMARK    6  A    between atoms: C_13  and  C_14
REMARK    7  A    between atoms: C_16  and  C_17
REMARK                            x       y       z     vdW  Elec       q    Type
REMARK                         _______ _______ _______ _____ _____    ______ ____
ROOT
ATOM      1  C   UNL     1       5.305   4.190  17.101  0.00  0.00    +0.000 C 
ATOM      2  C   UNL     1       5.404   5.205  16.227  0.00  0.00    +0.000 C 
ENDROOT
BRANCH   1   6
ATOM      3  C   UNL     1       1.885   3.341  19.553  0.00  0.00    +0.000 A 
ATOM      4  C   UNL     1       3.149   3.524  20.114  0.00  0.00    +0.000 A 
ATOM      5  C   UNL     1       4.248   3.824  19.304  0.00  0.00    +0.000 A 
ATOM      6  C   UNL     1       4.110   3.911  17.913  0.00  0.00    +0.000 A 
ATOM      7  C   UNL     1       2.835   3.734  17.359  0.00  0.00    +0.000 A 
ATOM      8  C   UNL     1       1.732   3.443  18.172  0.00  0.00    +0.000 A 
BRANCH   3  10
ATOM      9  C   UNL     1       1.315   2.697  21.753  0.00  0.00    +0.000 C 
ATOM     10  O   UNL     1       0.888   3.034  20.437  0.00  0.00    +0.000 OA
ENDBRANCH   3  10
ENDBRANCH   1   6
BRANCH   2  11
ATOM     11  C   UNL     1       6.622   5.336  15.377  0.00  0.00    +0.000 C 
ATOM     12  O   UNL     1       7.580   6.014  15.727  0.00  0.00    +0.000 OA
BRANCH  11  13
ATOM     13  C   UNL     1       6.581   4.600  14.117  0.00  0.00    +0.000 A 
ATOM     14  C   UNL     1       5.779   3.494  13.689  0.00  0.00    +0.000 A 
ATOM     15  C   UNL     1       6.115   3.234  12.379  0.00  0.00    +0.000 A 
ATOM     16  C   UNL     1       5.615   2.284  11.366  0.00  0.00    +0.000 C 
ATOM     17  O   UNL     1       7.107   4.070  11.979  0.00  0.00    +0.000 OA
ATOM     18  C   UNL     1       7.390   4.889  13.027  0.00  0.00    +0.000 A 
ATOM     19  C   UNL     1       8.453   5.892  12.787  0.00  0.00    +0.000 C 
ENDBRANCH  11  13
ENDBRANCH   2  11
TORSDOF 4
ENDMDL
MODEL 6
REMARK VINA RESULT:      -7.0      3.403      4.816
REMARK  Name = 
REMARK  7 active torsions:
REMARK  status: ('A' for Active; 'I' for Inactive)
REMARK    1  A    between atoms: C_1  and  O_2
REMARK    2  A    between atoms: O_2  and  C_3
REMARK    3  A    between atoms: C_6  and  C_7
REMARK    4  A    between atoms: C_8  and  C_9
REMARK    5  A    between atoms: C_9  and  C_11
REMARK    6  A    between atoms: C_13  and  C_14
REMARK    7  A    between atoms: C_16  and  C_17
REMARK                            x       y       z     vdW  Elec       q    Type
REMARK                         _______ _______ _______ _____ _____    ______ ____
ROOT
ATOM      1  C   UNL     1       4.662   5.081  16.573  0.00  0.00    +0.000 C 
ATOM      2  C   UNL     1       5.957   4.725  16.569  0.00  0.00    +0.000 C 
ENDROOT
BRANCH   1   6
ATOM      3  C   UNL     1       1.835   4.068  19.640  0.00  0.00    +0.000 A 
ATOM      4  C   UNL     1       1.816   3.430  18.400  0.00  0.00    +0.000 A 
ATOM      5  C   UNL     1       2.758   3.755  17.421  0.00  0.00    +0.000 A 
ATOM      6  C   UNL     1       3.717   4.750  17.651  0.00  0.00    +0.000 A 
ATOM      7  C   UNL     1       3.734   5.379  18.903  0.00  0.00    +0.000 A 
ATOM      8  C   UNL     1       2.796   5.047  19.887  0.00  0.00    +0.000 A 
BRANCH   3  10
ATOM      9  C   UNL     1       1.269   2.804  21.553  0.00  0.00    +0.000 C 
ATOM     10  O   UNL     1       0.856   3.685  20.515  0.00  0.00    +0.000 OA
ENDBRANCH   3  10
ENDBRANCH   1   6
BRANCH   2  11
ATOM     11  C   UNL     1       6.855   5.203  15.478  0.00  0.00    +0.000 C 
ATOM     12  O   UNL     1       7.698   6.071  15.673  0.00  0.00    +0.000 OA
BRANCH  11  13
ATOM     13  C   UNL     1       6.655   4.559  14.183  0.00  0.00    +0.000 A 
ATOM     14  C   UNL     1       5.752   3.530  13.763  0.00  0.00    +0.000 A 
ATOM     15  C   UNL     1       5.950   3.344  12.414  0.00  0.00    +0.000 A 
ATOM     16  C   UNL     1       5.303   2.496  11.394  0.00  0.00    +0.000 C 
ATOM     17  O   UNL     1       6.949   4.152  11.975  0.00  0.00    +0.000 OA
ATOM     18  C   UNL     1       7.376   4.880  13.041  0.00  0.00    +0.000 A 
ATOM     19  C   UNL     1       8.470   5.840  12.766  0.00  0.00    +0.000 C 
ENDBRANCH  11  13
ENDBRANCH   2  11
TORSDOF 4
ENDMDL
MODEL 7
REMARK VINA RESULT:      -6.8      4.821      6.473
REMARK  Name = 
REMARK  7 active torsions:
REMARK  status: ('A' for Active; 'I' for Inactive)
REMARK    1  A    between atoms: C_1  and  O_2
REMARK    2  A    between atoms: O_2  and  C_3
REMARK    3  A    between atoms: C_6  and  C_7
REMARK    4  A    between atoms: C_8  and  C_9
REMARK    5  A    between atoms: C_9  and  C_11
REMARK    6  A    between atoms: C_13  and  C_14
REMARK    7  A    between atoms: C_16  and  C_17
REMARK                            x       y       z     vdW  Elec       q    Type
REMARK                         _______ _______ _______ _____ _____    ______ ____
ROOT
ATOM      1  C   UNL     1       8.661   8.813  18.613  0.00  0.00    +0.000 C 
ATOM      2  C   UNL     1       7.886   8.170  17.724  0.00  0.00    +0.000 C 
ENDROOT
BRANCH   1   6
ATOM      3  C   UNL     1       9.539  13.004  18.321  0.00  0.00    +0.000 A 
ATOM      4  C   UNL     1       8.526  12.423  17.558  0.00  0.00    +0.000 A 
ATOM      5  C   UNL     1       8.237  11.061  17.682  0.00  0.00    +0.000 A 
ATOM      6  C   UNL     1       8.980  10.247  18.548  0.00  0.00    +0.000 A 
ATOM      7  C   UNL     1       9.989  10.842  19.316  0.00  0.00    +0.000 A 
ATOM      8  C   UNL     1      10.273  12.208  19.198  0.00  0.00    +0.000 A 
BRANCH   3  10
ATOM      9  C   UNL     1      10.956  14.867  18.637  0.00  0.00    +0.000 C 
ATOM     10  O   UNL     1       9.747  14.339  18.104  0.00  0.00    +0.000 OA
ENDBRANCH   3  10
ENDBRANCH   1   6
BRANCH   2  11
ATOM     11  C   UNL     1       7.539   6.736  17.941  0.00  0.00    +0.000 C 
ATOM     12  O   UNL     1       7.825   6.156  18.982  0.00  0.00    +0.000 OA
BRANCH  11  13
ATOM     13  C   UNL     1       6.840   6.092  16.833  0.00  0.00    +0.000 A 
ATOM     14  C   UNL     1       7.306   5.233  15.787  0.00  0.00    +0.000 A 
ATOM     15  C   UNL     1       6.206   4.866  15.045  0.00  0.00    +0.000 A 
ATOM     16  C   UNL     1       6.004   3.962  13.896  0.00  0.00    +0.000 C 
ATOM     17  O   UNL     1       5.095   5.479  15.527  0.00  0.00    +0.000 OA
ATOM     18  C   UNL     1       5.477   6.220  16.602  0.00  0.00    +0.000 A 
ATOM     19  C   UNL     1       4.396   6.967  17.283  0.00  0.00    +0.000 C 
ENDBRANCH  11  13
ENDBRANCH   2  11
TORSDOF 4
ENDMDL
MODEL 8
REMARK VINA RESULT:      -6.8      4.675      6.260
REMARK  Name = 
REMARK  7 active torsions:
REMARK  status: ('A' for Active; 'I' for Inactive)
REMARK    1  A    between atoms: C_1  and  O_2
REMARK    2  A    between atoms: O_2  and  C_3
REMARK    3  A    between atoms: C_6  and  C_7
REMARK    4  A    between atoms: C_8  and  C_9
REMARK    5  A    between atoms: C_9  and  C_11
REMARK    6  A    between atoms: C_13  and  C_14
REMARK    7  A    between atoms: C_16  and  C_17
REMARK                            x       y       z     vdW  Elec       q    Type
REMARK                         _______ _______ _______ _____ _____    ______ ____
ROOT
ATOM      1  C   UNL     1       8.667   8.569  18.679  0.00  0.00    +0.000 C 
ATOM      2  C   UNL     1       7.818   7.989  17.814  0.00  0.00    +0.000 C 
ENDROOT
BRANCH   1   6
ATOM      3  C   UNL     1       9.451  12.781  18.947  0.00  0.00    +0.000 A 
ATOM      4  C   UNL     1       9.783  11.916  19.989  0.00  0.00    +0.000 A 
ATOM      5  C   UNL     1       9.543  10.544  19.877  0.00  0.00    +0.000 A 
ATOM      6  C   UNL     1       8.933  10.015  18.732  0.00  0.00    +0.000 A 
ATOM      7  C   UNL     1       8.611  10.890  17.686  0.00  0.00    +0.000 A 
ATOM      8  C   UNL     1       8.861  12.263  17.795  0.00  0.00    +0.000 A 
BRANCH   3  10
ATOM      9  C   UNL     1       8.943  15.023  18.407  0.00  0.00    +0.000 C 
ATOM     10  O   UNL     1       9.714  14.104  19.173  0.00  0.00    +0.000 OA
ENDBRANCH   3  10
ENDBRANCH   1   6
BRANCH   2  11
ATOM     11  C   UNL     1       7.540   6.527  17.914  0.00  0.00    +0.000 C 
ATOM     12  O   UNL     1       7.869   5.876  18.899  0.00  0.00    +0.000 OA
BRANCH  11  13
ATOM     13  C   UNL     1       6.850   5.946  16.766  0.00  0.00    +0.000 A 
ATOM     14  C   UNL     1       7.316   5.109  15.703  0.00  0.00    +0.000 A 
ATOM     15  C   UNL     1       6.226   4.806  14.918  0.00  0.00    +0.000 A 
ATOM     16  C   UNL     1       6.027   3.950  13.733  0.00  0.00    +0.000 C 
ATOM     17  O   UNL     1       5.123   5.439  15.393  0.00  0.00    +0.000 OA
ATOM     18  C   UNL     1       5.499   6.128  16.503  0.00  0.00    +0.000 A 
ATOM     19  C   UNL     1       4.425   6.888  17.182  0.00  0.00    +0.000 C 
ENDBRANCH  11  13
ENDBRANCH   2  11
TORSDOF 4
ENDMDL
MODEL 9
REMARK VINA RESULT:      -6.7      1.596      2.708
REMARK  Name = 
REMARK  7 active torsions:
REMARK  status: ('A' for Active; 'I' for Inactive)
REMARK    1  A    between atoms: C_1  and  O_2
REMARK    2  A    between atoms: O_2  and  C_3
REMARK    3  A    between atoms: C_6  and  C_7
REMARK    4  A    between atoms: C_8  and  C_9
REMARK    5  A    between atoms: C_9  and  C_11
REMARK    6  A    between atoms: C_13  and  C_14
REMARK    7  A    between atoms: C_16  and  C_17
REMARK                            x       y       z     vdW  Elec       q    Type
REMARK                         _______ _______ _______ _____ _____    ______ ____
ROOT
ATOM      1  C   UNL     1       2.993   7.166  18.337  0.00  0.00    +0.000 C 
ATOM      2  C   UNL     1       3.832   7.402  17.315  0.00  0.00    +0.000 C 
ENDROOT
BRANCH   1   6
ATOM      3  C   UNL     1       0.176  10.084  19.744  0.00  0.00    +0.000 A 
ATOM      4  C   UNL     1       0.564  10.041  18.405  0.00  0.00    +0.000 A 
ATOM      5  C   UNL     1       1.465   9.070  17.958  0.00  0.00    +0.000 A 
ATOM      6  C   UNL     1       2.020   8.144  18.850  0.00  0.00    +0.000 A 
ATOM      7  C   UNL     1       1.617   8.189  20.192  0.00  0.00    +0.000 A 
ATOM      8  C   UNL     1       0.708   9.156  20.637  0.00  0.00    +0.000 A 
BRANCH   3  10
ATOM      9  C   UNL     1      -0.508  12.315  19.377  0.00  0.00    +0.000 C 
ATOM     10  O   UNL     1      -0.695  11.086  20.072  0.00  0.00    +0.000 OA
ENDBRANCH   3  10
ENDBRANCH   1   6
BRANCH   2  11
ATOM     11  C   UNL     1       4.705   6.306  16.804  0.00  0.00    +0.000 C 
ATOM     12  O   UNL     1       5.471   6.481  15.864  0.00  0.00    +0.000 OA
BRANCH  11  13
ATOM     13  C   UNL     1       4.579   5.033  17.506  0.00  0.00    +0.000 A 
ATOM     14  C   UNL     1       3.691   3.926  17.313  0.00  0.00    +0.000 A 
ATOM     15  C   UNL     1       4.050   2.957  18.223  0.00  0.00    +0.000 A 
ATOM     16  C   UNL     1       3.582   1.582  18.489  0.00  0.00    +0.000 C 
ATOM     17  O   UNL     1       5.067   3.405  19.002  0.00  0.00    +0.000 OA
ATOM     18  C   UNL     1       5.383   4.656  18.573  0.00  0.00    +0.000 A 
ATOM     19  C   UNL     1       6.489   5.323  19.297  0.00  0.00    +0.000 C 
ENDBRANCH  11  13
ENDBRANCH   2  11
TORSDOF 4
ENDMDL
