MODEL 1
REMARK VINA RESULT:      -5.9      0.000      0.000
REMARK  Name = 
REMARK  6 active torsions:
REMARK  status: ('A' for Active; 'I' for Inactive)
REMARK    1  A    between atoms: C_1  and  O_2
REMARK    2  A    between atoms: O_2  and  C_3
REMARK    3  A    between atoms: C_6  and  C_7
REMARK    4  A    between atoms: C_8  and  N_9
REMARK    5  A    between atoms: C_12  and  O_13
REMARK    6  A    between atoms: O_13  and  C_14
REMARK                            x       y       z     vdW  Elec       q    Type
REMARK                         _______ _______ _______ _____ _____    ______ ____
ROOT
ATOM      1  C   UNL     1       5.329   5.661  15.928  0.00  0.00    +0.000 A 
ATOM      2  C   UNL     1       5.027   4.313  16.126  0.00  0.00    +0.000 A 
ATOM      3  C   UNL     1       4.105   3.927  17.097  0.00  0.00    +0.000 A 
ATOM      4  C   UNL     1       3.466   4.893  17.886  0.00  0.00    +0.000 A 
ATOM      5  C   UNL     1       3.766   6.255  17.697  0.00  0.00    +0.000 A 
ATOM      6  C   UNL     1       4.702   6.628  16.721  0.00  0.00    +0.000 A 
ENDROOT
BRANCH   1   8
ATOM      7  C   UNL     1       6.856   4.774  14.330  0.00  0.00    +0.000 C 
ATOM      8  O   UNL     1       6.233   5.901  14.932  0.00  0.00    +0.000 OA
ENDBRANCH   1   8
BRANCH   4   9
ATOM      9  C   UNL     1       2.482   4.436  18.874  0.00  0.00    +0.000 C 
ATOM     10  C   UNL     1       2.863   4.024  20.088  0.00  0.00    +0.000 C 
BRANCH  10  11
ATOM     11  N   UNL     1       1.873   3.531  21.017  0.00  0.00    +0.000 N 
ATOM     12  O   UNL     1       2.217   3.252  22.173  0.00  0.00    +0.000 OA
ATOM     13  O   UNL     1       0.721   3.442  20.575  0.00  0.00    +0.000 OA
ENDBRANCH  10  11
ENDBRANCH   4   9
BRANCH   5  14
ATOM     14  O   UNL     1       3.094   7.140  18.505  0.00  0.00    +0.000 OA
ATOM     15  C   UNL     1       2.506   8.278  17.881  0.00  0.00    +0.000 C 
ENDBRANCH   5  14
TORSDOF 4
ENDMDL
MODEL 2
REMARK VINA RESULT:      -5.9      2.921      5.949
REMARK  Name = 
REMARK  6 active torsions:
REMARK  status: ('A' for Active; 'I' for Inactive)
REMARK    1  A    between atoms: C_1  and  O_2
REMARK    2  A    between atoms: O_2  and  C_3
REMARK    3  A    between atoms: C_6  and  C_7
REMARK    4  A    between atoms: C_8  and  N_9
REMARK    5  A    between atoms: C_12  and  O_13
REMARK    6  A    between atoms: O_13  and  C_14
REMARK                            x       y       z     vdW  Elec       q    Type
REMARK                         _______ _______ _______ _____ _____    ______ ____
ROOT
ATOM      1  C   UNL     1       2.562   3.300  19.449  0.00  0.00    +0.000 A 
ATOM      2  C   UNL     1       2.000   3.477  18.183  0.00  0.00    +0.000 A 
ATOM      3  C   UNL     1       2.781   3.915  17.116  0.00  0.00    +0.000 A 
ATOM      4  C   UNL     1       4.144   4.182  17.301  0.00  0.00    +0.000 A 
ATOM      5  C   UNL     1       4.720   4.011  18.574  0.00  0.00    +0.000 A 
ATOM      6  C   UNL     1       3.919   3.577  19.642  0.00  0.00    +0.000 A 
ENDROOT
BRANCH   1   8
ATOM      7  C   UNL     1       2.189   2.699  21.723  0.00  0.00    +0.000 C 
ATOM      8  O   UNL     1       1.691   2.848  20.399  0.00  0.00    +0.000 OA
ENDBRANCH   1   8
BRANCH   4   9
ATOM      9  C   UNL     1       4.928   4.613  16.138  0.00  0.00    +0.000 C 
ATOM     10  C   UNL     1       5.898   3.842  15.634  0.00  0.00    +0.000 C 
BRANCH  10  11
ATOM     11  N   UNL     1       6.684   4.321  14.522  0.00  0.00    +0.000 N 
ATOM     12  O   UNL     1       7.587   5.143  14.730  0.00  0.00    +0.000 OA
ATOM     13  O   UNL     1       6.396   3.845  13.418  0.00  0.00    +0.000 OA
ENDBRANCH  10  11
ENDBRANCH   4   9
BRANCH   5  14
ATOM     14  O   UNL     1       6.061   4.287  18.673  0.00  0.00    +0.000 OA
ATOM     15  C   UNL     1       6.434   5.486  19.346  0.00  0.00    +0.000 C 
ENDBRANCH   5  14
TORSDOF 4
ENDMDL
MODEL 3
REMARK VINA RESULT:      -5.7      3.149      6.099
REMARK  Name = 
REMARK  6 active torsions:
REMARK  status: ('A' for Active; 'I' for Inactive)
REMARK    1  A    between atoms: C_1  and  O_2
REMARK    2  A    between atoms: O_2  and  C_3
REMARK    3  A    between atoms: C_6  and  C_7
REMARK    4  A    between atoms: C_8  and  N_9
REMARK    5  A    between atoms: C_12  and  O_13
REMARK    6  A    between atoms: O_13  and  C_14
REMARK                            x       y       z     vdW  Elec       q    Type
REMARK                         _______ _______ _______ _____ _____    ______ ____
ROOT
ATOM      1  C   UNL     1       3.629   4.484  19.334  0.00  0.00    +0.000 A 
ATOM      2  C   UNL     1       3.117   4.240  18.059  0.00  0.00    +0.000 A 
ATOM      3  C   UNL     1       3.965   4.159  16.957  0.00  0.00    +0.000 A 
ATOM      4  C   UNL     1       5.348   4.318  17.118  0.00  0.00    +0.000 A 
ATOM      5  C   UNL     1       5.875   4.568  18.399  0.00  0.00    +0.000 A 
ATOM      6  C   UNL     1       5.008   4.656  19.499  0.00  0.00    +0.000 A 
ENDROOT
BRANCH   1   8
ATOM      7  C   UNL     1       1.371   4.109  19.993  0.00  0.00    +0.000 C 
ATOM      8  O   UNL     1       2.691   4.519  20.327  0.00  0.00    +0.000 OA
ENDBRANCH   1   8
BRANCH   4   9
ATOM      9  C   UNL     1       6.200   4.195  15.930  0.00  0.00    +0.000 C 
ATOM     10  C   UNL     1       5.793   4.645  14.739  0.00  0.00    +0.000 C 
BRANCH  10  11
ATOM     11  N   UNL     1       6.635   4.460  13.580  0.00  0.00    +0.000 N 
ATOM     12  O   UNL     1       6.368   3.555  12.778  0.00  0.00    +0.000 OA
ATOM     13  O   UNL     1       7.575   5.256  13.468  0.00  0.00    +0.000 OA
ENDBRANCH  10  11
ENDBRANCH   4   9
BRANCH   5  14
ATOM     14  O   UNL     1       7.239   4.707  18.475  0.00  0.00    +0.000 OA
ATOM     15  C   UNL     1       7.746   5.727  19.330  0.00  0.00    +0.000 C 
ENDBRANCH   5  14
TORSDOF 4
ENDMDL
MODEL 4
REMARK VINA RESULT:      -5.7      2.845      5.966
REMARK  Name = 
REMARK  6 active torsions:
REMARK  status: ('A' for Active; 'I' for Inactive)
REMARK    1  A    between atoms: C_1  and  O_2
REMARK    2  A    between atoms: O_2  and  C_3
REMARK    3  A    between atoms: C_6  and  C_7
REMARK    4  A    between atoms: C_8  and  N_9
REMARK    5  A    between atoms: C_12  and  O_13
REMARK    6  A    between atoms: O_13  and  C_14
REMARK                            x       y       z     vdW  Elec       q    Type
REMARK                         _______ _______ _______ _____ _____    ______ ____
ROOT
ATOM      1  C   UNL     1       2.791   4.216  19.685  0.00  0.00    +0.000 A 
ATOM      2  C   UNL     1       2.269   4.558  18.436  0.00  0.00    +0.000 A 
ATOM      3  C   UNL     1       3.116   4.839  17.366  0.00  0.00    +0.000 A 
ATOM      4  C   UNL     1       4.506   4.778  17.531  0.00  0.00    +0.000 A 
ATOM      5  C   UNL     1       5.043   4.439  18.787  0.00  0.00    +0.000 A 
ATOM      6  C   UNL     1       4.178   4.166  19.858  0.00  0.00    +0.000 A 
ENDROOT
BRANCH   1   8
ATOM      7  C   UNL     1       2.107   2.856  21.516  0.00  0.00    +0.000 C 
ATOM      8  O   UNL     1       1.852   3.946  20.640  0.00  0.00    +0.000 OA
ENDBRANCH   1   8
BRANCH   4   9
ATOM      9  C   UNL     1       5.352   5.055  16.366  0.00  0.00    +0.000 C 
ATOM     10  C   UNL     1       5.727   4.076  15.535  0.00  0.00    +0.000 C 
BRANCH  10  11
ATOM     11  N   UNL     1       6.603   4.375  14.428  0.00  0.00    +0.000 N 
ATOM     12  O   UNL     1       6.450   3.773  13.357  0.00  0.00    +0.000 OA
ATOM     13  O   UNL     1       7.453   5.249  14.638  0.00  0.00    +0.000 OA
ENDBRANCH  10  11
ENDBRANCH   4   9
BRANCH   5  14
ATOM     14  O   UNL     1       6.413   4.396  18.867  0.00  0.00    +0.000 OA
ATOM     15  C   UNL     1       7.075   5.548  19.380  0.00  0.00    +0.000 C 
ENDBRANCH   5  14
TORSDOF 4
ENDMDL
MODEL 5
REMARK VINA RESULT:      -5.7      2.821      5.938
REMARK  Name = 
REMARK  6 active torsions:
REMARK  status: ('A' for Active; 'I' for Inactive)
REMARK    1  A    between atoms: C_1  and  O_2
REMARK    2  A    between atoms: O_2  and  C_3
REMARK    3  A    between atoms: C_6  and  C_7
REMARK    4  A    between atoms: C_8  and  N_9
REMARK    5  A    between atoms: C_12  and  O_13
REMARK    6  A    between atoms: O_13  and  C_14
REMARK                            x       y       z     vdW  Elec       q    Type
REMARK                         _______ _______ _______ _____ _____    ______ ____
ROOT
ATOM      1  C   UNL     1       2.493   5.864  19.678  0.00  0.00    +0.000 A 
ATOM      2  C   UNL     1       2.894   6.800  18.724  0.00  0.00    +0.000 A 
ATOM      3  C   UNL     1       3.667   6.412  17.631  0.00  0.00    +0.000 A 
ATOM      4  C   UNL     1       4.047   5.073  17.475  0.00  0.00    +0.000 A 
ATOM      5  C   UNL     1       3.651   4.121  18.433  0.00  0.00    +0.000 A 
ATOM      6  C   UNL     1       2.881   4.527  19.534  0.00  0.00    +0.000 A 
ENDROOT
BRANCH   1   8
ATOM      7  C   UNL     1       1.531   7.781  20.712  0.00  0.00    +0.000 C 
ATOM      8  O   UNL     1       1.725   6.373  20.687  0.00  0.00    +0.000 OA
ENDBRANCH   1   8
BRANCH   4   9
ATOM      9  C   UNL     1       4.835   4.712  16.291  0.00  0.00    +0.000 C 
ATOM     10  C   UNL     1       6.110   5.097  16.166  0.00  0.00    +0.000 C 
BRANCH  10  11
ATOM     11  N   UNL     1       6.839   4.769  14.964  0.00  0.00    +0.000 N 
ATOM     12  O   UNL     1       7.806   5.470  14.635  0.00  0.00    +0.000 OA
ATOM     13  O   UNL     1       6.440   3.773  14.349  0.00  0.00    +0.000 OA
ENDBRANCH  10  11
ENDBRANCH   4   9
BRANCH   5  14
ATOM     14  O   UNL     1       4.059   2.829  18.207  0.00  0.00    +0.000 OA
ATOM     15  C   UNL     1       3.177   1.785  18.610  0.00  0.00    +0.000 C 
ENDBRANCH   5  14
TORSDOF 4
ENDMDL
MODEL 6
REMARK VINA RESULT:      -5.7      2.483      5.693
REMARK  Name = 
REMARK  6 active torsions:
REMARK  status: ('A' for Active; 'I' for Inactive)
REMARK    1  A    between atoms: C_1  and  O_2
REMARK    2  A    between atoms: O_2  and  C_3
REMARK    3  A    between atoms: C_6  and  C_7
REMARK    4  A    between atoms: C_8  and  N_9
REMARK    5  A    between atoms: C_12  and  O_13
REMARK    6  A    between atoms: O_13  and  C_14
REMARK                            x       y       z     vdW  Elec       q    Type
REMARK                         _______ _______ _______ _____ _____    ______ ____
ROOT
ATOM      1  C   UNL     1       2.152   3.327  19.184  0.00  0.00    +0.000 A 
ATOM      2  C   UNL     1       2.719   2.326  18.394  0.00  0.00    +0.000 A 
ATOM      3  C   UNL     1       3.808   2.604  17.570  0.00  0.00    +0.000 A 
ATOM      4  C   UNL     1       4.350   3.895  17.529  0.00  0.00    +0.000 A 
ATOM      5  C   UNL     1       3.784   4.913  18.319  0.00  0.00    +0.000 A 
ATOM      6  C   UNL     1       2.682   4.621  19.137  0.00  0.00    +0.000 A 
ENDROOT
BRANCH   1   8
ATOM      7  C   UNL     1       1.340   2.771  21.353  0.00  0.00    +0.000 C 
ATOM      8  O   UNL     1       1.104   2.916  19.958  0.00  0.00    +0.000 OA
ENDBRANCH   1   8
BRANCH   4   9
ATOM      9  C   UNL     1       5.515   4.127  16.668  0.00  0.00    +0.000 C 
ATOM     10  C   UNL     1       5.367   4.449  15.378  0.00  0.00    +0.000 C 
BRANCH  10  11
ATOM     11  N   UNL     1       6.535   4.619  14.546  0.00  0.00    +0.000 N 
ATOM     12  O   UNL     1       7.461   5.338  14.945  0.00  0.00    +0.000 OA
ATOM     13  O   UNL     1       6.526   3.999  13.476  0.00  0.00    +0.000 OA
ENDBRANCH  10  11
ENDBRANCH   4   9
BRANCH   5  14
ATOM     14  O   UNL     1       4.375   6.149  18.227  0.00  0.00    +0.000 OA
ATOM     15  C   UNL     1       3.610   7.198  17.642  0.00  0.00    +0.000 C 
ENDBRANCH   5  14
TORSDOF 4
ENDMDL
MODEL 7
REMARK VINA RESULT:      -5.7      2.445      5.591
REMARK  Name = 
REMARK  6 active torsions:
REMARK  status: ('A' for Active; 'I' for Inactive)
REMARK    1  A    between atoms: C_1  and  O_2
REMARK    2  A    between atoms: O_2  and  C_3
REMARK    3  A    between atoms: C_6  and  C_7
REMARK    4  A    between atoms: C_8  and  N_9
REMARK    5  A    between atoms: C_12  and  O_13
REMARK    6  A    between atoms: O_13  and  C_14
REMARK                            x       y       z     vdW  Elec       q    Type
REMARK                         _______ _______ _______ _____ _____    ______ ____
ROOT
ATOM      1  C   UNL     1       2.728   4.147  19.566  0.00  0.00    +0.000 A 
ATOM      2  C   UNL     1       3.319   3.148  18.792  0.00  0.00    +0.000 A 
ATOM      3  C   UNL     1       4.075   3.475  17.667  0.00  0.00    +0.000 A 
ATOM      4  C   UNL     1       4.252   4.816  17.302  0.00  0.00    +0.000 A 
ATOM      5  C   UNL     1       3.657   5.832  18.073  0.00  0.00    +0.000 A 
ATOM      6  C   UNL     1       2.892   5.487  19.198  0.00  0.00    +0.000 A 
ENDROOT
BRANCH   1   8
ATOM      7  C   UNL     1       2.692   2.769  21.508  0.00  0.00    +0.000 C 
ATOM      8  O   UNL     1       2.032   3.691  20.649  0.00  0.00    +0.000 OA
ENDBRANCH   1   8
BRANCH   4   9
ATOM      9  C   UNL     1       5.081   5.107  16.127  0.00  0.00    +0.000 C 
ATOM     10  C   UNL     1       6.015   4.246  15.709  0.00  0.00    +0.000 C 
BRANCH  10  11
ATOM     11  N   UNL     1       6.848   4.589  14.581  0.00  0.00    +0.000 N 
ATOM     12  O   UNL     1       6.643   4.039  13.490  0.00  0.00    +0.000 OA
ATOM     13  O   UNL     1       7.715   5.444  14.794  0.00  0.00    +0.000 OA
ENDBRANCH  10  11
ENDBRANCH   4   9
BRANCH   5  14
ATOM     14  O   UNL     1       3.882   7.120  17.654  0.00  0.00    +0.000 OA
ATOM     15  C   UNL     1       2.835   8.065  17.854  0.00  0.00    +0.000 C 
ENDBRANCH   5  14
TORSDOF 4
ENDMDL
MODEL 8
REMARK VINA RESULT:      -5.6      2.993      5.604
REMARK  Name = 
REMARK  6 active torsions:
REMARK  status: ('A' for Active; 'I' for Inactive)
REMARK    1  A    between atoms: C_1  and  O_2
REMARK    2  A    between atoms: O_2  and  C_3
REMARK    3  A    between atoms: C_6  and  C_7
REMARK    4  A    between atoms: C_8  and  N_9
REMARK    5  A    between atoms: C_12  and  O_13
REMARK    6  A    between atoms: O_13  and  C_14
REMARK                            x       y       z     vdW  Elec       q    Type
REMARK                         _______ _______ _______ _____ _____    ______ ____
ROOT
ATOM      1  C   UNL     1       2.191   3.955  17.667  0.00  0.00    +0.000 A 
ATOM      2  C   UNL     1       2.163   5.259  18.163  0.00  0.00    +0.000 A 
ATOM      3  C   UNL     1       3.279   6.086  18.049  0.00  0.00    +0.000 A 
ATOM      4  C   UNL     1       4.444   5.616  17.428  0.00  0.00    +0.000 A 
ATOM      5  C   UNL     1       4.484   4.301  16.928  0.00  0.00    +0.000 A 
ATOM      6  C   UNL     1       3.356   3.477  17.057  0.00  0.00    +0.000 A 
ENDROOT
BRANCH   1   8
ATOM      7  C   UNL     1       0.891   2.473  19.003  0.00  0.00    +0.000 C 
ATOM      8  O   UNL     1       1.025   3.261  17.827  0.00  0.00    +0.000 OA
ENDBRANCH   1   8
BRANCH   4   9
ATOM      9  C   UNL     1       5.581   6.536  17.307  0.00  0.00    +0.000 C 
ATOM     10  C   UNL     1       6.689   6.364  18.036  0.00  0.00    +0.000 C 
BRANCH  10  11
ATOM     11  N   UNL     1       7.767   7.319  17.931  0.00  0.00    +0.000 N 
ATOM     12  O   UNL     1       8.558   7.443  18.876  0.00  0.00    +0.000 OA
ATOM     13  O   UNL     1       7.828   7.943  16.865  0.00  0.00    +0.000 OA
ENDBRANCH  10  11
ENDBRANCH   4   9
BRANCH   5  14
ATOM     14  O   UNL     1       5.659   3.918  16.329  0.00  0.00    +0.000 OA
ATOM     15  C   UNL     1       5.707   3.942  14.906  0.00  0.00    +0.000 C 
ENDBRANCH   5  14
TORSDOF 4
ENDMDL
MODEL 9
REMARK VINA RESULT:      -5.6      2.081      2.547
REMARK  Name = 
REMARK  6 active torsions:
REMARK  status: ('A' for Active; 'I' for Inactive)
REMARK    1  A    between atoms: C_1  and  O_2
REMARK    2  A    between atoms: O_2  and  C_3
REMARK    3  A    between atoms: C_6  and  C_7
REMARK    4  A    between atoms: C_8  and  N_9
REMARK    5  A    between atoms: C_12  and  O_13
REMARK    6  A    between atoms: O_13  and  C_14
REMARK                            x       y       z     vdW  Elec       q    Type
REMARK                         _______ _______ _______ _____ _____    ______ ____
ROOT
ATOM      1  C   UNL     1       6.840   4.982  15.584  0.00  0.00    +0.000 A 
ATOM      2  C   UNL     1       5.569   4.487  15.292  0.00  0.00    +0.000 A 
ATOM      3  C   UNL     1       4.721   4.061  16.313  0.00  0.00    +0.000 A 
ATOM      4  C   UNL     1       5.136   4.130  17.649  0.00  0.00    +0.000 A 
ATOM      5  C   UNL     1       6.419   4.624  17.955  0.00  0.00    +0.000 A 
ATOM      6  C   UNL     1       7.264   5.041  16.916  0.00  0.00    +0.000 A 
ENDROOT
BRANCH   1   8
ATOM      7  C   UNL     1       7.213   4.811  13.238  0.00  0.00    +0.000 C 
ATOM      8  O   UNL     1       7.559   5.382  14.493  0.00  0.00    +0.000 OA
ENDBRANCH   1   8
BRANCH   4   9
ATOM      9  C   UNL     1       4.195   3.696  18.688  0.00  0.00    +0.000 C 
ATOM     10  C   UNL     1       3.265   4.529  19.168  0.00  0.00    +0.000 C 
BRANCH  10  11
ATOM     11  N   UNL     1       2.389   4.086  20.227  0.00  0.00    +0.000 N 
ATOM     12  O   UNL     1       2.807   3.261  21.050  0.00  0.00    +0.000 OA
ATOM     13  O   UNL     1       1.262   4.594  20.238  0.00  0.00    +0.000 OA
ENDBRANCH  10  11
ENDBRANCH   4   9
BRANCH   5  14
ATOM     14  O   UNL     1       6.749   4.664  19.287  0.00  0.00    +0.000 OA
ATOM     15  C   UNL     1       7.696   5.646  19.697  0.00  0.00    +0.000 C 
ENDBRANCH   5  14
TORSDOF 4
ENDMDL
