MODEL 1
REMARK VINA RESULT:      -9.0      0.000      0.000
REMARK  Name = 
REMARK  7 active torsions:
REMARK  status: ('A' for Active; 'I' for Inactive)
REMARK    1  A    between atoms: C_2  and  O_3
REMARK    2  A    between atoms: C_2  and  C_4
REMARK    3  A    between atoms: C_7  and  C_8
REMARK    4  A    between atoms: C_8  and  N_9
REMARK    5  A    between atoms: C_10  and  C_12
REMARK    6  A    between atoms: N_16  and  C_17
REMARK    7  A    between atoms: C_17  and  C_18
REMARK                            x       y       z     vdW  Elec       q    Type
REMARK                         _______ _______ _______ _____ _____    ______ ____
ROOT
ATOM      1  C   UNL     1       2.004   7.152  20.126  0.00  0.00    +0.000 A 
ATOM      2  C   UNL     1       2.234   6.158  20.994  0.00  0.00    +0.000 A 
ATOM      3  C   UNL     1       2.769   4.897  20.509  0.00  0.00    +0.000 A 
ATOM      4  C   UNL     1       3.485   4.874  19.354  0.00  0.00    +0.000 A 
ATOM      5  N   UNL     1       3.475   6.027  18.518  0.00  0.00    +0.000 N 
ATOM      6  C   UNL     1       2.380   6.881  18.717  0.00  0.00    +0.000 A 
ATOM      7  O   UNL     1       1.715   7.401  17.815  0.00  0.00    +0.000 OA
ATOM      8  C   UNL     1       4.074   3.565  18.863  0.00  0.00    +0.000 C 
ATOM      9  C   UNL     1       3.309   2.818  17.763  0.00  0.00    +0.000 C 
ATOM     10  C   UNL     1       1.771   2.786  17.740  0.00  0.00    +0.000 C 
ATOM     11  C   UNL     1       0.941   3.277  18.930  0.00  0.00    +0.000 C 
ATOM     12  C   UNL     1       1.383   2.723  20.290  0.00  0.00    +0.000 C 
ATOM     13  C   UNL     1       2.219   3.661  21.199  0.00  0.00    +0.000 C 
ENDROOT
BRANCH   1  15
ATOM     14  N   UNL     1       1.468   9.427  19.636  0.00  0.00    +0.000 N 
ATOM     15  C   UNL     1       1.311   8.398  20.533  0.00  0.00    +0.000 C 
ATOM     16  O   UNL     1       0.638   8.487  21.554  0.00  0.00    +0.000 OA
ATOM     17  H   UNL     1       1.924   9.211  18.747  0.00  0.00    +0.000 HD
BRANCH  14  18
ATOM     18  C   UNL     1       0.790  10.690  19.710  0.00  0.00    +0.000 C 
BRANCH  18  22
ATOM     19  C   UNL     1      -2.687  10.673  17.144  0.00  0.00    +0.000 A 
ATOM     20  C   UNL     1      -1.623   9.803  16.884  0.00  0.00    +0.000 A 
ATOM     21  C   UNL     1      -0.500   9.800  17.713  0.00  0.00    +0.000 A 
ATOM     22  C   UNL     1      -0.435  10.654  18.825  0.00  0.00    +0.000 A 
ATOM     23  C   UNL     1      -1.503  11.525  19.076  0.00  0.00    +0.000 A 
ATOM     24  C   UNL     1      -2.632  11.526  18.253  0.00  0.00    +0.000 A 
BRANCH  19  26
ATOM     25  O   UNL     1      -3.819  10.221  15.101  0.00  0.00    +0.000 OA
ATOM     26  C   UNL     1      -3.866  10.638  16.246  0.00  0.00    +0.000 C 
BRANCH  26  27
ATOM     27  O   UNL     1      -4.984  11.155  16.800  0.00  0.00    +0.000 OA
ATOM     28  H   UNL     1      -4.837  11.646  17.630  0.00  0.00    +0.000 HD
ENDBRANCH  26  27
ENDBRANCH  19  26
ENDBRANCH  18  22
ENDBRANCH  14  18
ENDBRANCH   1  15
BRANCH   5  29
ATOM     29  C   UNL     1       4.103   6.006  17.175  0.00  0.00    +0.000 C 
BRANCH  29  30
ATOM     30  C   UNL     1       5.554   6.575  17.007  0.00  0.00    +0.000 C 
ATOM     31  C   UNL     1       6.394   6.718  18.282  0.00  0.00    +0.000 C 
ATOM     32  C   UNL     1       7.131   5.464  18.747  0.00  0.00    +0.000 C 
ATOM     33  C   UNL     1       7.681   4.554  17.649  0.00  0.00    +0.000 C 
ATOM     34  C   UNL     1       6.823   4.461  16.395  0.00  0.00    +0.000 C 
ATOM     35  C   UNL     1       6.340   5.820  15.930  0.00  0.00    +0.000 C 
ENDBRANCH  29  30
ENDBRANCH   5  29
TORSDOF 7
ENDMDL
MODEL 2
REMARK VINA RESULT:      -8.9      0.128      1.016
REMARK  Name = 
REMARK  7 active torsions:
REMARK  status: ('A' for Active; 'I' for Inactive)
REMARK    1  A    between atoms: C_2  and  O_3
REMARK    2  A    between atoms: C_2  and  C_4
REMARK    3  A    between atoms: C_7  and  C_8
REMARK    4  A    between atoms: C_8  and  N_9
REMARK    5  A    between atoms: C_10  and  C_12
REMARK    6  A    between atoms: N_16  and  C_17
REMARK    7  A    between atoms: C_17  and  C_18
REMARK                            x       y       z     vdW  Elec       q    Type
REMARK                         _______ _______ _______ _____ _____    ______ ____
ROOT
ATOM      1  C   UNL     1       2.027   7.108  20.154  0.00  0.00    +0.000 A 
ATOM      2  C   UNL     1       2.261   6.108  21.014  0.00  0.00    +0.000 A 
ATOM      3  C   UNL     1       2.784   4.846  20.516  0.00  0.00    +0.000 A 
ATOM      4  C   UNL     1       3.487   4.825  19.353  0.00  0.00    +0.000 A 
ATOM      5  N   UNL     1       3.474   5.983  18.524  0.00  0.00    +0.000 N 
ATOM      6  C   UNL     1       2.386   6.842  18.739  0.00  0.00    +0.000 A 
ATOM      7  O   UNL     1       1.714   7.370  17.847  0.00  0.00    +0.000 OA
ATOM      8  C   UNL     1       4.064   3.516  18.849  0.00  0.00    +0.000 C 
ATOM      9  C   UNL     1       3.283   2.779  17.754  0.00  0.00    +0.000 C 
ATOM     10  C   UNL     1       1.744   2.755  17.748  0.00  0.00    +0.000 C 
ATOM     11  C   UNL     1       0.930   3.244  18.949  0.00  0.00    +0.000 C 
ATOM     12  C   UNL     1       1.384   2.681  20.302  0.00  0.00    +0.000 C 
ATOM     13  C   UNL     1       2.235   3.610  21.206  0.00  0.00    +0.000 C 
ENDROOT
BRANCH   1  15
ATOM     14  N   UNL     1       1.585   9.417  19.737  0.00  0.00    +0.000 N 
ATOM     15  C   UNL     1       1.345   8.355  20.575  0.00  0.00    +0.000 C 
ATOM     16  O   UNL     1       0.613   8.419  21.556  0.00  0.00    +0.000 OA
ATOM     17  H   UNL     1       2.090   9.226  18.869  0.00  0.00    +0.000 HD
BRANCH  14  18
ATOM     18  C   UNL     1       0.940  10.696  19.828  0.00  0.00    +0.000 C 
BRANCH  18  22
ATOM     19  C   UNL     1      -2.542  10.663  17.269  0.00  0.00    +0.000 A 
ATOM     20  C   UNL     1      -2.441  11.605  18.298  0.00  0.00    +0.000 A 
ATOM     21  C   UNL     1      -1.316  11.624  19.124  0.00  0.00    +0.000 A 
ATOM     22  C   UNL     1      -0.267  10.713  18.918  0.00  0.00    +0.000 A 
ATOM     23  C   UNL     1      -0.378   9.771  17.888  0.00  0.00    +0.000 A 
ATOM     24  C   UNL     1      -1.499   9.753  17.055  0.00  0.00    +0.000 A 
BRANCH  19  26
ATOM     25  O   UNL     1      -4.812  11.160  16.762  0.00  0.00    +0.000 OA
ATOM     26  C   UNL     1      -3.748  10.682  16.407  0.00  0.00    +0.000 C 
BRANCH  26  27
ATOM     27  O   UNL     1      -3.569  10.079  15.212  0.00  0.00    +0.000 OA
ATOM     28  H   UNL     1      -2.708  10.259  14.791  0.00  0.00    +0.000 HD
ENDBRANCH  26  27
ENDBRANCH  19  26
ENDBRANCH  18  22
ENDBRANCH  14  18
ENDBRANCH   1  15
BRANCH   5  29
ATOM     29  C   UNL     1       4.087   5.966  17.173  0.00  0.00    +0.000 C 
BRANCH  29  30
ATOM     30  C   UNL     1       5.531   6.547  16.989  0.00  0.00    +0.000 C 
ATOM     31  C   UNL     1       6.383   6.700  18.254  0.00  0.00    +0.000 C 
ATOM     32  C   UNL     1       7.137   5.453  18.713  0.00  0.00    +0.000 C 
ATOM     33  C   UNL     1       7.683   4.546  17.611  0.00  0.00    +0.000 C 
ATOM     34  C   UNL     1       6.812   4.443  16.367  0.00  0.00    +0.000 C 
ATOM     35  C   UNL     1       6.312   5.797  15.905  0.00  0.00    +0.000 C 
ENDBRANCH  29  30
ENDBRANCH   5  29
TORSDOF 7
ENDMDL
MODEL 3
REMARK VINA RESULT:      -8.4      0.904      1.064
REMARK  Name = 
REMARK  7 active torsions:
REMARK  status: ('A' for Active; 'I' for Inactive)
REMARK    1  A    between atoms: C_2  and  O_3
REMARK    2  A    between atoms: C_2  and  C_4
REMARK    3  A    between atoms: C_7  and  C_8
REMARK    4  A    between atoms: C_8  and  N_9
REMARK    5  A    between atoms: C_10  and  C_12
REMARK    6  A    between atoms: N_16  and  C_17
REMARK    7  A    between atoms: C_17  and  C_18
REMARK                            x       y       z     vdW  Elec       q    Type
REMARK                         _______ _______ _______ _____ _____    ______ ____
ROOT
ATOM      1  C   UNL     1       1.765   6.872  20.459  0.00  0.00    +0.000 A 
ATOM      2  C   UNL     1       1.333   5.750  21.050  0.00  0.00    +0.000 A 
ATOM      3  C   UNL     1       1.886   4.470  20.639  0.00  0.00    +0.000 A 
ATOM      4  C   UNL     1       3.122   4.424  20.076  0.00  0.00    +0.000 A 
ATOM      5  N   UNL     1       3.734   5.644  19.667  0.00  0.00    +0.000 N 
ATOM      6  C   UNL     1       2.838   6.701  19.450  0.00  0.00    +0.000 A 
ATOM      7  O   UNL     1       2.876   7.474  18.487  0.00  0.00    +0.000 OA
ATOM      8  C   UNL     1       3.715   3.086  19.678  0.00  0.00    +0.000 C 
ATOM      9  C   UNL     1       3.625   2.689  18.199  0.00  0.00    +0.000 C 
ATOM     10  C   UNL     1       2.384   3.027  17.354  0.00  0.00    +0.000 C 
ATOM     11  C   UNL     1       1.095   3.545  17.997  0.00  0.00    +0.000 C 
ATOM     12  C   UNL     1       0.610   2.734  19.205  0.00  0.00    +0.000 C 
ATOM     13  C   UNL     1       0.890   3.323  20.611  0.00  0.00    +0.000 C 
ENDROOT
BRANCH   1  15
ATOM     14  N   UNL     1       1.609   9.193  19.921  0.00  0.00    +0.000 N 
ATOM     15  C   UNL     1       1.127   8.185  20.719  0.00  0.00    +0.000 C 
ATOM     16  O   UNL     1       0.233   8.343  21.543  0.00  0.00    +0.000 OA
ATOM     17  H   UNL     1       2.248   8.931  19.167  0.00  0.00    +0.000 HD
BRANCH  14  18
ATOM     18  C   UNL     1       1.071  10.523  19.862  0.00  0.00    +0.000 C 
BRANCH  18  22
ATOM     19  C   UNL     1      -2.551  10.581  17.506  0.00  0.00    +0.000 A 
ATOM     20  C   UNL     1      -1.481   9.767  17.121  0.00  0.00    +0.000 A 
ATOM     21  C   UNL     1      -0.310   9.739  17.882  0.00  0.00    +0.000 A 
ATOM     22  C   UNL     1      -0.203  10.512  19.049  0.00  0.00    +0.000 A 
ATOM     23  C   UNL     1      -1.278  11.327  19.425  0.00  0.00    +0.000 A 
ATOM     24  C   UNL     1      -2.454  11.352  18.670  0.00  0.00    +0.000 A 
BRANCH  19  26
ATOM     25  O   UNL     1      -3.775  10.340  15.481  0.00  0.00    +0.000 OA
ATOM     26  C   UNL     1      -3.780  10.574  16.677  0.00  0.00    +0.000 C 
BRANCH  26  27
ATOM     27  O   UNL     1      -4.898  10.896  17.364  0.00  0.00    +0.000 OA
ATOM     28  H   UNL     1      -5.370  10.136  17.752  0.00  0.00    +0.000 HD
ENDBRANCH  26  27
ENDBRANCH  19  26
ENDBRANCH  18  22
ENDBRANCH  14  18
ENDBRANCH   1  15
BRANCH   5  29
ATOM     29  C   UNL     1       5.006   5.645  18.904  0.00  0.00    +0.000 C 
BRANCH  29  30
ATOM     30  C   UNL     1       5.054   6.364  17.512  0.00  0.00    +0.000 C 
ATOM     31  C   UNL     1       6.358   7.085  17.150  0.00  0.00    +0.000 C 
ATOM     32  C   UNL     1       7.459   6.219  16.541  0.00  0.00    +0.000 C 
ATOM     33  C   UNL     1       7.002   5.096  15.610  0.00  0.00    +0.000 C 
ATOM     34  C   UNL     1       5.693   4.425  16.000  0.00  0.00    +0.000 C 
ATOM     35  C   UNL     1       4.624   5.432  16.375  0.00  0.00    +0.000 C 
ENDBRANCH  29  30
ENDBRANCH   5  29
TORSDOF 7
ENDMDL
MODEL 4
REMARK VINA RESULT:      -8.4      0.930      1.476
REMARK  Name = 
REMARK  7 active torsions:
REMARK  status: ('A' for Active; 'I' for Inactive)
REMARK    1  A    between atoms: C_2  and  O_3
REMARK    2  A    between atoms: C_2  and  C_4
REMARK    3  A    between atoms: C_7  and  C_8
REMARK    4  A    between atoms: C_8  and  N_9
REMARK    5  A    between atoms: C_10  and  C_12
REMARK    6  A    between atoms: N_16  and  C_17
REMARK    7  A    between atoms: C_17  and  C_18
REMARK                            x       y       z     vdW  Elec       q    Type
REMARK                         _______ _______ _______ _____ _____    ______ ____
ROOT
ATOM      1  C   UNL     1       1.743   6.733  20.490  0.00  0.00    +0.000 A 
ATOM      2  C   UNL     1       1.328   5.595  21.062  0.00  0.00    +0.000 A 
ATOM      3  C   UNL     1       1.904   4.331  20.634  0.00  0.00    +0.000 A 
ATOM      4  C   UNL     1       3.142   4.315  20.075  0.00  0.00    +0.000 A 
ATOM      5  N   UNL     1       3.735   5.550  19.687  0.00  0.00    +0.000 N 
ATOM      6  C   UNL     1       2.823   6.595  19.483  0.00  0.00    +0.000 A 
ATOM      7  O   UNL     1       2.851   7.384  18.532  0.00  0.00    +0.000 OA
ATOM      8  C   UNL     1       3.760   2.993  19.659  0.00  0.00    +0.000 C 
ATOM      9  C   UNL     1       3.681   2.617  18.174  0.00  0.00    +0.000 C 
ATOM     10  C   UNL     1       2.438   2.947  17.330  0.00  0.00    +0.000 C 
ATOM     11  C   UNL     1       1.138   3.434  17.975  0.00  0.00    +0.000 C 
ATOM     12  C   UNL     1       0.662   2.596  19.169  0.00  0.00    +0.000 C 
ATOM     13  C   UNL     1       0.928   3.169  20.585  0.00  0.00    +0.000 C 
ENDROOT
BRANCH   1  15
ATOM     14  N   UNL     1       1.616   9.078  20.057  0.00  0.00    +0.000 N 
ATOM     15  C   UNL     1       1.082   8.031  20.768  0.00  0.00    +0.000 C 
ATOM     16  O   UNL     1       0.130   8.148  21.531  0.00  0.00    +0.000 OA
ATOM     17  H   UNL     1       2.310   8.855  19.340  0.00  0.00    +0.000 HD
BRANCH  14  18
ATOM     18  C   UNL     1       1.078  10.409  20.025  0.00  0.00    +0.000 C 
BRANCH  18  22
ATOM     19  C   UNL     1      -2.338  10.426  17.379  0.00  0.00    +0.000 A 
ATOM     20  C   UNL     1      -2.350  11.205  18.541  0.00  0.00    +0.000 A 
ATOM     21  C   UNL     1      -1.247  11.208  19.396  0.00  0.00    +0.000 A 
ATOM     22  C   UNL     1      -0.109  10.446  19.090  0.00  0.00    +0.000 A 
ATOM     23  C   UNL     1      -0.105   9.666  17.927  0.00  0.00    +0.000 A 
ATOM     24  C   UNL     1      -1.204   9.666  17.065  0.00  0.00    +0.000 A 
BRANCH  19  26
ATOM     25  O   UNL     1      -4.606  10.898  16.841  0.00  0.00    +0.000 OA
ATOM     26  C   UNL     1      -3.525  10.458  16.491  0.00  0.00    +0.000 C 
BRANCH  26  27
ATOM     27  O   UNL     1      -3.306   9.912  15.275  0.00  0.00    +0.000 OA
ATOM     28  H   UNL     1      -3.437  10.522  14.526  0.00  0.00    +0.000 HD
ENDBRANCH  26  27
ENDBRANCH  19  26
ENDBRANCH  18  22
ENDBRANCH  14  18
ENDBRANCH   1  15
BRANCH   5  29
ATOM     29  C   UNL     1       5.010   5.584  18.929  0.00  0.00    +0.000 C 
BRANCH  29  30
ATOM     30  C   UNL     1       5.056   6.343  17.558  0.00  0.00    +0.000 C 
ATOM     31  C   UNL     1       6.327   7.143  17.251  0.00  0.00    +0.000 C 
ATOM     32  C   UNL     1       7.491   6.355  16.652  0.00  0.00    +0.000 C 
ATOM     33  C   UNL     1       7.122   5.234  15.681  0.00  0.00    +0.000 C 
ATOM     34  C   UNL     1       5.842   4.483  16.015  0.00  0.00    +0.000 C 
ATOM     35  C   UNL     1       4.709   5.419  16.386  0.00  0.00    +0.000 C 
ENDBRANCH  29  30
ENDBRANCH   5  29
TORSDOF 7
ENDMDL
MODEL 5
REMARK VINA RESULT:      -8.3      2.711      3.647
REMARK  Name = 
REMARK  7 active torsions:
REMARK  status: ('A' for Active; 'I' for Inactive)
REMARK    1  A    between atoms: C_2  and  O_3
REMARK    2  A    between atoms: C_2  and  C_4
REMARK    3  A    between atoms: C_7  and  C_8
REMARK    4  A    between atoms: C_8  and  N_9
REMARK    5  A    between atoms: C_10  and  C_12
REMARK    6  A    between atoms: N_16  and  C_17
REMARK    7  A    between atoms: C_17  and  C_18
REMARK                            x       y       z     vdW  Elec       q    Type
REMARK                         _______ _______ _______ _____ _____    ______ ____
ROOT
ATOM      1  C   UNL     1       1.958   6.784  20.498  0.00  0.00    +0.000 A 
ATOM      2  C   UNL     1       1.510   5.669  21.091  0.00  0.00    +0.000 A 
ATOM      3  C   UNL     1       2.016   4.377  20.656  0.00  0.00    +0.000 A 
ATOM      4  C   UNL     1       3.235   4.302  20.061  0.00  0.00    +0.000 A 
ATOM      5  N   UNL     1       3.871   5.507  19.646  0.00  0.00    +0.000 N 
ATOM      6  C   UNL     1       3.000   6.590  19.460  0.00  0.00    +0.000 A 
ATOM      7  O   UNL     1       3.035   7.371  18.502  0.00  0.00    +0.000 OA
ATOM      8  C   UNL     1       3.781   2.951  19.638  0.00  0.00    +0.000 C 
ATOM      9  C   UNL     1       3.642   2.568  18.159  0.00  0.00    +0.000 C 
ATOM     10  C   UNL     1       2.389   2.948  17.349  0.00  0.00    +0.000 C 
ATOM     11  C   UNL     1       1.132   3.497  18.029  0.00  0.00    +0.000 C 
ATOM     12  C   UNL     1       0.656   2.690  19.243  0.00  0.00    +0.000 C 
ATOM     13  C   UNL     1       0.989   3.259  20.646  0.00  0.00    +0.000 C 
ENDROOT
BRANCH   1  15
ATOM     14  N   UNL     1       0.847   8.729  19.671  0.00  0.00    +0.000 N 
ATOM     15  C   UNL     1       1.364   8.112  20.784  0.00  0.00    +0.000 C 
ATOM     16  O   UNL     1       1.311   8.592  21.911  0.00  0.00    +0.000 OA
ATOM     17  H   UNL     1       0.810   8.185  18.806  0.00  0.00    +0.000 HD
BRANCH  14  18
ATOM     18  C   UNL     1       0.090   9.949  19.686  0.00  0.00    +0.000 C 
BRANCH  18  22
ATOM     19  C   UNL     1       2.667  13.307  18.815  0.00  0.00    +0.000 A 
ATOM     20  C   UNL     1       1.893  13.304  19.981  0.00  0.00    +0.000 A 
ATOM     21  C   UNL     1       1.064  12.219  20.270  0.00  0.00    +0.000 A 
ATOM     22  C   UNL     1       1.012  11.114  19.407  0.00  0.00    +0.000 A 
ATOM     23  C   UNL     1       1.786  11.126  18.240  0.00  0.00    +0.000 A 
ATOM     24  C   UNL     1       2.623  12.206  17.950  0.00  0.00    +0.000 A 
BRANCH  19  26
ATOM     25  O   UNL     1       3.310  15.591  18.975  0.00  0.00    +0.000 OA
ATOM     26  C   UNL     1       3.542  14.473  18.549  0.00  0.00    +0.000 C 
BRANCH  26  27
ATOM     27  O   UNL     1       4.596  14.188  17.753  0.00  0.00    +0.000 OA
ATOM     28  H   UNL     1       5.230  14.919  17.640  0.00  0.00    +0.000 HD
ENDBRANCH  26  27
ENDBRANCH  19  26
ENDBRANCH  18  22
ENDBRANCH  14  18
ENDBRANCH   1  15
BRANCH   5  29
ATOM     29  C   UNL     1       5.123   5.479  18.851  0.00  0.00    +0.000 C 
BRANCH  29  30
ATOM     30  C   UNL     1       5.169   6.247  17.484  0.00  0.00    +0.000 C 
ATOM     31  C   UNL     1       6.473   6.980  17.147  0.00  0.00    +0.000 C 
ATOM     32  C   UNL     1       7.574   6.137  16.507  0.00  0.00    +0.000 C 
ATOM     33  C   UNL     1       7.117   5.046  15.538  0.00  0.00    +0.000 C 
ATOM     34  C   UNL     1       5.808   4.362  15.905  0.00  0.00    +0.000 C 
ATOM     35  C   UNL     1       4.739   5.355  16.316  0.00  0.00    +0.000 C 
ENDBRANCH  29  30
ENDBRANCH   5  29
TORSDOF 7
ENDMDL
MODEL 6
REMARK VINA RESULT:      -8.3      2.474      3.312
REMARK  Name = 
REMARK  7 active torsions:
REMARK  status: ('A' for Active; 'I' for Inactive)
REMARK    1  A    between atoms: C_2  and  O_3
REMARK    2  A    between atoms: C_2  and  C_4
REMARK    3  A    between atoms: C_7  and  C_8
REMARK    4  A    between atoms: C_8  and  N_9
REMARK    5  A    between atoms: C_10  and  C_12
REMARK    6  A    between atoms: N_16  and  C_17
REMARK    7  A    between atoms: C_17  and  C_18
REMARK                            x       y       z     vdW  Elec       q    Type
REMARK                         _______ _______ _______ _____ _____    ______ ____
ROOT
ATOM      1  C   UNL     1       2.173   7.051  20.123  0.00  0.00    +0.000 A 
ATOM      2  C   UNL     1       2.378   6.030  20.966  0.00  0.00    +0.000 A 
ATOM      3  C   UNL     1       2.893   4.772  20.450  0.00  0.00    +0.000 A 
ATOM      4  C   UNL     1       3.616   4.766  19.299  0.00  0.00    +0.000 A 
ATOM      5  N   UNL     1       3.634   5.942  18.495  0.00  0.00    +0.000 N 
ATOM      6  C   UNL     1       2.554   6.810  18.710  0.00  0.00    +0.000 A 
ATOM      7  O   UNL     1       1.905   7.367  17.818  0.00  0.00    +0.000 OA
ATOM      8  C   UNL     1       4.183   3.460  18.777  0.00  0.00    +0.000 C 
ATOM      9  C   UNL     1       3.412   2.757  17.653  0.00  0.00    +0.000 C 
ATOM     10  C   UNL     1       1.873   2.755  17.620  0.00  0.00    +0.000 C 
ATOM     11  C   UNL     1       1.045   3.230  18.817  0.00  0.00    +0.000 C 
ATOM     12  C   UNL     1       1.467   2.631  20.165  0.00  0.00    +0.000 C 
ATOM     13  C   UNL     1       2.314   3.529  21.103  0.00  0.00    +0.000 C 
ENDROOT
BRANCH   1  15
ATOM     14  N   UNL     1       0.973   9.025  19.521  0.00  0.00    +0.000 N 
ATOM     15  C   UNL     1       1.502   8.299  20.560  0.00  0.00    +0.000 C 
ATOM     16  O   UNL     1       1.401   8.628  21.736  0.00  0.00    +0.000 OA
ATOM     17  H   UNL     1       0.982   8.595  18.593  0.00  0.00    +0.000 HD
BRANCH  14  18
ATOM     18  C   UNL     1       0.150  10.192  19.670  0.00  0.00    +0.000 C 
BRANCH  18  22
ATOM     19  C   UNL     1       2.403  13.677  18.465  0.00  0.00    +0.000 A 
ATOM     20  C   UNL     1       2.668  12.436  17.876  0.00  0.00    +0.000 A 
ATOM     21  C   UNL     1       1.939  11.308  18.258  0.00  0.00    +0.000 A 
ATOM     22  C   UNL     1       0.922  11.411  19.219  0.00  0.00    +0.000 A 
ATOM     23  C   UNL     1       0.665  12.656  19.806  0.00  0.00    +0.000 A 
ATOM     24  C   UNL     1       1.387  13.789  19.423  0.00  0.00    +0.000 A 
BRANCH  19  26
ATOM     25  O   UNL     1       2.726  15.977  17.952  0.00  0.00    +0.000 OA
ATOM     26  C   UNL     1       3.192  14.853  18.026  0.00  0.00    +0.000 C 
BRANCH  26  27
ATOM     27  O   UNL     1       4.460  14.551  17.672  0.00  0.00    +0.000 OA
ATOM     28  H   UNL     1       4.690  13.607  17.748  0.00  0.00    +0.000 HD
ENDBRANCH  26  27
ENDBRANCH  19  26
ENDBRANCH  18  22
ENDBRANCH  14  18
ENDBRANCH   1  15
BRANCH   5  29
ATOM     29  C   UNL     1       4.270   5.944  17.156  0.00  0.00    +0.000 C 
BRANCH  29  30
ATOM     30  C   UNL     1       5.725   6.511  17.009  0.00  0.00    +0.000 C 
ATOM     31  C   UNL     1       6.551   6.639  18.293  0.00  0.00    +0.000 C 
ATOM     32  C   UNL     1       7.279   5.378  18.755  0.00  0.00    +0.000 C 
ATOM     33  C   UNL     1       7.839   4.477  17.654  0.00  0.00    +0.000 C 
ATOM     34  C   UNL     1       6.994   4.398  16.391  0.00  0.00    +0.000 C 
ATOM     35  C   UNL     1       6.520   5.763  15.933  0.00  0.00    +0.000 C 
ENDBRANCH  29  30
ENDBRANCH   5  29
TORSDOF 7
ENDMDL
MODEL 7
REMARK VINA RESULT:      -8.3      1.108      1.564
REMARK  Name = 
REMARK  7 active torsions:
REMARK  status: ('A' for Active; 'I' for Inactive)
REMARK    1  A    between atoms: C_2  and  O_3
REMARK    2  A    between atoms: C_2  and  C_4
REMARK    3  A    between atoms: C_7  and  C_8
REMARK    4  A    between atoms: C_8  and  N_9
REMARK    5  A    between atoms: C_10  and  C_12
REMARK    6  A    between atoms: N_16  and  C_17
REMARK    7  A    between atoms: C_17  and  C_18
REMARK                            x       y       z     vdW  Elec       q    Type
REMARK                         _______ _______ _______ _____ _____    ______ ____
ROOT
ATOM      1  C   UNL     1       2.484   6.960  19.206  0.00  0.00    +0.000 A 
ATOM      2  C   UNL     1       2.661   6.339  20.379  0.00  0.00    +0.000 A 
ATOM      3  C   UNL     1       2.923   4.909  20.396  0.00  0.00    +0.000 A 
ATOM      4  C   UNL     1       3.474   4.316  19.304  0.00  0.00    +0.000 A 
ATOM      5  N   UNL     1       3.542   5.052  18.087  0.00  0.00    +0.000 N 
ATOM      6  C   UNL     1       2.631   6.114  17.997  0.00  0.00    +0.000 A 
ATOM      7  O   UNL     1       1.948   6.379  17.001  0.00  0.00    +0.000 OA
ATOM      8  C   UNL     1       3.780   2.831  19.332  0.00  0.00    +0.000 C 
ATOM      9  C   UNL     1       2.773   1.892  18.656  0.00  0.00    +0.000 C 
ATOM     10  C   UNL     1       1.258   2.156  18.732  0.00  0.00    +0.000 C 
ATOM     11  C   UNL     1       0.675   3.208  19.679  0.00  0.00    +0.000 C 
ATOM     12  C   UNL     1       1.191   3.127  21.121  0.00  0.00    +0.000 C 
ATOM     13  C   UNL     1       2.274   4.154  21.543  0.00  0.00    +0.000 C 
ENDROOT
BRANCH   1  15
ATOM     14  N   UNL     1       1.052   8.691  20.015  0.00  0.00    +0.000 N 
ATOM     15  C   UNL     1       2.056   8.378  19.132  0.00  0.00    +0.000 C 
ATOM     16  O   UNL     1       2.574   9.195  18.379  0.00  0.00    +0.000 OA
ATOM     17  H   UNL     1       0.789   7.979  20.700  0.00  0.00    +0.000 HD
BRANCH  14  18
ATOM     18  C   UNL     1       0.552  10.016  20.254  0.00  0.00    +0.000 C 
BRANCH  18  22
ATOM     19  C   UNL     1      -2.605  10.826  17.418  0.00  0.00    +0.000 A 
ATOM     20  C   UNL     1      -2.514  11.577  18.595  0.00  0.00    +0.000 A 
ATOM     21  C   UNL     1      -1.493  11.323  19.512  0.00  0.00    +0.000 A 
ATOM     22  C   UNL     1      -0.537  10.328  19.254  0.00  0.00    +0.000 A 
ATOM     23  C   UNL     1      -0.637   9.579  18.075  0.00  0.00    +0.000 A 
ATOM     24  C   UNL     1      -1.654   9.834  17.151  0.00  0.00    +0.000 A 
BRANCH  19  26
ATOM     25  O   UNL     1      -3.833  10.557  15.399  0.00  0.00    +0.000 OA
ATOM     26  C   UNL     1      -3.699  11.133  16.465  0.00  0.00    +0.000 C 
BRANCH  26  27
ATOM     27  O   UNL     1      -4.502  12.140  16.869  0.00  0.00    +0.000 OA
ATOM     28  H   UNL     1      -5.033  12.547  16.160  0.00  0.00    +0.000 HD
ENDBRANCH  26  27
ENDBRANCH  19  26
ENDBRANCH  18  22
ENDBRANCH  14  18
ENDBRANCH   1  15
BRANCH   5  29
ATOM     29  C   UNL     1       3.983   4.408  16.826  0.00  0.00    +0.000 C 
BRANCH  29  30
ATOM     30  C   UNL     1       5.177   5.039  16.030  0.00  0.00    +0.000 C 
ATOM     31  C   UNL     1       5.378   6.552  16.167  0.00  0.00    +0.000 C 
ATOM     32  C   UNL     1       6.176   7.018  17.384  0.00  0.00    +0.000 C 
ATOM     33  C   UNL     1       7.332   6.119  17.822  0.00  0.00    +0.000 C 
ATOM     34  C   UNL     1       7.093   4.626  17.646  0.00  0.00    +0.000 C 
ATOM     35  C   UNL     1       6.492   4.298  16.295  0.00  0.00    +0.000 C 
ENDBRANCH  29  30
ENDBRANCH   5  29
TORSDOF 7
ENDMDL
MODEL 8
REMARK VINA RESULT:      -8.2      2.604      3.880
REMARK  Name = 
REMARK  7 active torsions:
REMARK  status: ('A' for Active; 'I' for Inactive)
REMARK    1  A    between atoms: C_2  and  O_3
REMARK    2  A    between atoms: C_2  and  C_4
REMARK    3  A    between atoms: C_7  and  C_8
REMARK    4  A    between atoms: C_8  and  N_9
REMARK    5  A    between atoms: C_10  and  C_12
REMARK    6  A    between atoms: N_16  and  C_17
REMARK    7  A    between atoms: C_17  and  C_18
REMARK                            x       y       z     vdW  Elec       q    Type
REMARK                         _______ _______ _______ _____ _____    ______ ____
ROOT
ATOM      1  C   UNL     1       2.035   7.288  19.850  0.00  0.00    +0.000 A 
ATOM      2  C   UNL     1       2.235   6.366  20.801  0.00  0.00    +0.000 A 
ATOM      3  C   UNL     1       2.787   5.072  20.436  0.00  0.00    +0.000 A 
ATOM      4  C   UNL     1       3.544   4.961  19.312  0.00  0.00    +0.000 A 
ATOM      5  N   UNL     1       3.563   6.045  18.389  0.00  0.00    +0.000 N 
ATOM      6  C   UNL     1       2.461   6.908  18.481  0.00  0.00    +0.000 A 
ATOM      7  O   UNL     1       1.828   7.354  17.518  0.00  0.00    +0.000 OA
ATOM      8  C   UNL     1       4.151   3.620  18.947  0.00  0.00    +0.000 C 
ATOM      9  C   UNL     1       3.425   2.786  17.883  0.00  0.00    +0.000 C 
ATOM     10  C   UNL     1       1.889   2.747  17.808  0.00  0.00    +0.000 C 
ATOM     11  C   UNL     1       1.018   3.327  18.925  0.00  0.00    +0.000 C 
ATOM     12  C   UNL     1       1.410   2.883  20.340  0.00  0.00    +0.000 C 
ATOM     13  C   UNL     1       2.213   3.893  21.201  0.00  0.00    +0.000 C 
ENDROOT
BRANCH   1  15
ATOM     14  N   UNL     1       1.226   9.383  19.038  0.00  0.00    +0.000 N 
ATOM     15  C   UNL     1       1.328   8.560  20.133  0.00  0.00    +0.000 C 
ATOM     16  O   UNL     1       0.852   8.831  21.230  0.00  0.00    +0.000 OA
ATOM     17  H   UNL     1       1.526   9.005  18.137  0.00  0.00    +0.000 HD
BRANCH  14  18
ATOM     18  C   UNL     1       0.470  10.603  18.995  0.00  0.00    +0.000 C 
BRANCH  18  22
ATOM     19  C   UNL     1       3.056  14.009  19.611  0.00  0.00    +0.000 A 
ATOM     20  C   UNL     1       2.278  13.522  20.667  0.00  0.00    +0.000 A 
ATOM     21  C   UNL     1       1.445  12.419  20.476  0.00  0.00    +0.000 A 
ATOM     22  C   UNL     1       1.395  11.774  19.230  0.00  0.00    +0.000 A 
ATOM     23  C   UNL     1       2.174  12.269  18.176  0.00  0.00    +0.000 A 
ATOM     24  C   UNL     1       3.014  13.370  18.366  0.00  0.00    +0.000 A 
BRANCH  19  26
ATOM     25  O   UNL     1       5.122  15.073  20.118  0.00  0.00    +0.000 OA
ATOM     26  C   UNL     1       3.936  15.176  19.858  0.00  0.00    +0.000 C 
BRANCH  26  27
ATOM     27  O   UNL     1       3.287  16.360  19.814  0.00  0.00    +0.000 OA
ATOM     28  H   UNL     1       3.856  17.129  19.624  0.00  0.00    +0.000 HD
ENDBRANCH  26  27
ENDBRANCH  19  26
ENDBRANCH  18  22
ENDBRANCH  14  18
ENDBRANCH   1  15
BRANCH   5  29
ATOM     29  C   UNL     1       4.238   5.921  17.074  0.00  0.00    +0.000 C 
BRANCH  29  30
ATOM     30  C   UNL     1       5.687   6.497  16.908  0.00  0.00    +0.000 C 
ATOM     31  C   UNL     1       6.478   6.763  18.194  0.00  0.00    +0.000 C 
ATOM     32  C   UNL     1       7.214   5.566  18.793  0.00  0.00    +0.000 C 
ATOM     33  C   UNL     1       7.816   4.574  17.798  0.00  0.00    +0.000 C 
ATOM     34  C   UNL     1       7.005   4.358  16.528  0.00  0.00    +0.000 C 
ATOM     35  C   UNL     1       6.521   5.664  15.930  0.00  0.00    +0.000 C 
ENDBRANCH  29  30
ENDBRANCH   5  29
TORSDOF 7
ENDMDL
MODEL 9
REMARK VINA RESULT:      -8.1      1.147      1.561
REMARK  Name = 
REMARK  7 active torsions:
REMARK  status: ('A' for Active; 'I' for Inactive)
REMARK    1  A    between atoms: C_2  and  O_3
REMARK    2  A    between atoms: C_2  and  C_4
REMARK    3  A    between atoms: C_7  and  C_8
REMARK    4  A    between atoms: C_8  and  N_9
REMARK    5  A    between atoms: C_10  and  C_12
REMARK    6  A    between atoms: N_16  and  C_17
REMARK    7  A    between atoms: C_17  and  C_18
REMARK                            x       y       z     vdW  Elec       q    Type
REMARK                         _______ _______ _______ _____ _____    ______ ____
ROOT
ATOM      1  C   UNL     1       2.286   8.004  19.076  0.00  0.00    +0.000 A 
ATOM      2  C   UNL     1       2.255   7.153  20.111  0.00  0.00    +0.000 A 
ATOM      3  C   UNL     1       2.754   5.799  19.936  0.00  0.00    +0.000 A 
ATOM      4  C   UNL     1       3.671   5.544  18.966  0.00  0.00    +0.000 A 
ATOM      5  N   UNL     1       3.926   6.544  17.984  0.00  0.00    +0.000 N 
ATOM      6  C   UNL     1       2.896   7.484  17.829  0.00  0.00    +0.000 A 
ATOM      7  O   UNL     1       2.465   7.889  16.744  0.00  0.00    +0.000 OA
ATOM      8  C   UNL     1       4.219   4.139  18.803  0.00  0.00    +0.000 C 
ATOM      9  C   UNL     1       3.611   3.270  17.695  0.00  0.00    +0.000 C 
ATOM     10  C   UNL     1       2.109   3.329  17.367  0.00  0.00    +0.000 C 
ATOM     11  C   UNL     1       1.118   4.057  18.278  0.00  0.00    +0.000 C 
ATOM     12  C   UNL     1       1.240   3.707  19.767  0.00  0.00    +0.000 C 
ATOM     13  C   UNL     1       1.971   4.729  20.676  0.00  0.00    +0.000 C 
ENDROOT
BRANCH   1  15
ATOM     14  N   UNL     1       0.597   9.397  20.030  0.00  0.00    +0.000 N 
ATOM     15  C   UNL     1       1.646   9.340  19.146  0.00  0.00    +0.000 C 
ATOM     16  O   UNL     1       2.041  10.305  18.501  0.00  0.00    +0.000 OA
ATOM     17  H   UNL     1       0.439   8.581  20.626  0.00  0.00    +0.000 HD
BRANCH  14  18
ATOM     18  C   UNL     1      -0.102  10.595  20.399  0.00  0.00    +0.000 C 
BRANCH  18  22
ATOM     19  C   UNL     1      -3.377  11.194  17.645  0.00  0.00    +0.000 A 
ATOM     20  C   UNL     1      -3.282  11.980  18.798  0.00  0.00    +0.000 A 
ATOM     21  C   UNL     1      -2.223  11.795  19.688  0.00  0.00    +0.000 A 
ATOM     22  C   UNL     1      -1.234  10.834  19.426  0.00  0.00    +0.000 A 
ATOM     23  C   UNL     1      -1.339  10.048  18.272  0.00  0.00    +0.000 A 
ATOM     24  C   UNL     1      -2.393  10.235  17.375  0.00  0.00    +0.000 A 
BRANCH  19  26
ATOM     25  O   UNL     1      -5.417  12.208  16.960  0.00  0.00    +0.000 OA
ATOM     26  C   UNL     1      -4.512  11.428  16.719  0.00  0.00    +0.000 C 
BRANCH  26  27
ATOM     27  O   UNL     1      -4.469  10.664  15.607  0.00  0.00    +0.000 OA
ATOM     28  H   UNL     1      -3.965   9.834  15.702  0.00  0.00    +0.000 HD
ENDBRANCH  26  27
ENDBRANCH  19  26
ENDBRANCH  18  22
ENDBRANCH  14  18
ENDBRANCH   1  15
BRANCH   5  29
ATOM     29  C   UNL     1       4.793   6.265  16.813  0.00  0.00    +0.000 C 
BRANCH  29  30
ATOM     30  C   UNL     1       6.303   6.682  16.871  0.00  0.00    +0.000 C 
ATOM     31  C   UNL     1       6.892   6.956  18.260  0.00  0.00    +0.000 C 
ATOM     32  C   UNL     1       7.383   5.736  19.036  0.00  0.00    +0.000 C 
ATOM     33  C   UNL     1       8.030   4.623  18.212  0.00  0.00    +0.000 C 
ATOM     34  C   UNL     1       7.424   4.403  16.833  0.00  0.00    +0.000 C 
ATOM     35  C   UNL     1       7.193   5.706  16.095  0.00  0.00    +0.000 C 
ENDBRANCH  29  30
ENDBRANCH   5  29
TORSDOF 7
ENDMDL
