MODEL 1
REMARK VINA RESULT:      -7.3      0.000      0.000
REMARK  Name = 
REMARK  7 active torsions:
REMARK  status: ('A' for Active; 'I' for Inactive)
REMARK    1  A    between atoms: C_2  and  C_4
REMARK    2  A    between atoms: N_7  and  C_8
REMARK    3  A    between atoms: N_16  and  C1*_17
REMARK    4  A    between atoms: C4*_19  and  C5*_20
REMARK    5  A    between atoms: C5*_20  and  O5*_21
REMARK    6  A    between atoms: C3*_22  and  O3*_23
REMARK    7  A    between atoms: C2*_24  and  O2*_25
REMARK                            x       y       z     vdW  Elec       q    Type
REMARK                         _______ _______ _______ _____ _____    ______ ____
ROOT
ATOM      1  C   UNL     1       2.742   6.259  18.824  0.00  0.00    +0.000 A 
ATOM      2  N   UNL     1       1.931   7.297  18.874  0.00  0.00    +0.000 NA
ATOM      3  C   UNL     1       2.552   8.255  18.118  0.00  0.00    +0.000 A 
ATOM      4  N   UNL     1       2.007   9.480  17.978  0.00  0.00    +0.000 N 
ATOM      5  N   UNL     1       3.713   7.862  17.586  0.00  0.00    +0.000 NA
ATOM      6  N   UNL     1       3.797   6.576  18.018  0.00  0.00    +0.000 N 
ATOM      7  H   UNL     1       2.589  10.183  17.546  0.00  0.00    +0.000 HD
ENDROOT
BRANCH   4   8
ATOM      8  C   UNL     1       0.705   9.905  18.303  0.00  0.00    +0.000 A 
ATOM      9  C   UNL     1      -0.360   9.622  17.432  0.00  0.00    +0.000 A 
ATOM     10  C   UNL     1      -1.632  10.150  17.669  0.00  0.00    +0.000 A 
ATOM     11  C   UNL     1      -1.848  10.964  18.774  0.00  0.00    +0.000 A 
ATOM     12  F   UNL     1      -3.059  11.491  18.986  0.00  0.00    +0.000 F 
ATOM     13  C   UNL     1      -0.817  11.249  19.655  0.00  0.00    +0.000 A 
ATOM     14  C   UNL     1       0.447  10.723  19.413  0.00  0.00    +0.000 A 
ENDBRANCH   4   8
BRANCH   1  16
ATOM     15  N   UNL     1       3.243   4.798  20.611  0.00  0.00    +0.000 N 
ATOM     16  C   UNL     1       2.488   5.005  19.491  0.00  0.00    +0.000 C 
ATOM     17  O   UNL     1       1.661   4.172  19.137  0.00  0.00    +0.000 OA
ATOM     18  H   UNL     1       3.109   3.954  21.147  0.00  0.00    +0.000 HD
ATOM     19  H   UNL     1       3.906   5.500  20.917  0.00  0.00    +0.000 HD
ENDBRANCH   1  16
BRANCH   6  20
ATOM     20  C1* UNL     1       4.778   5.663  17.456  0.00  0.00    +0.000 C 
ATOM     21  O4* UNL     1       5.587   5.116  18.515  0.00  0.00    +0.000 OA
ATOM     22  C4* UNL     1       6.966   5.101  18.083  0.00  0.00    +0.000 C 
ATOM     23  C3* UNL     1       7.007   5.602  16.639  0.00  0.00    +0.000 C 
ATOM     24  C2* UNL     1       5.706   6.365  16.466  0.00  0.00    +0.000 C 
BRANCH  23  25
ATOM     25  O3* UNL     1       7.019   4.520  15.696  0.00  0.00    +0.000 OA
ATOM     26  H3* UNL     1       6.134   4.109  15.661  0.00  0.00    +0.000 HD
ENDBRANCH  23  25
BRANCH  24  27
ATOM     27  O2* UNL     1       5.224   6.295  15.121  0.00  0.00    +0.000 OA
ATOM     28  H2* UNL     1       5.912   5.821  14.606  0.00  0.00    +0.000 HD
ENDBRANCH  24  27
BRANCH  22  29
ATOM     29  C5* UNL     1       7.782   5.968  19.043  0.00  0.00    +0.000 C 
BRANCH  29  30
ATOM     30  O5* UNL     1       7.781   5.384  20.344  0.00  0.00    +0.000 OA
ATOM     31  H5* UNL     1       6.897   5.562  20.720  0.00  0.00    +0.000 HD
ENDBRANCH  29  30
ENDBRANCH  22  29
ENDBRANCH   6  20
TORSDOF 7
ENDMDL
MODEL 2
REMARK VINA RESULT:      -7.2      4.803      7.424
REMARK  Name = 
REMARK  7 active torsions:
REMARK  status: ('A' for Active; 'I' for Inactive)
REMARK    1  A    between atoms: C_2  and  C_4
REMARK    2  A    between atoms: N_7  and  C_8
REMARK    3  A    between atoms: N_16  and  C1*_17
REMARK    4  A    between atoms: C4*_19  and  C5*_20
REMARK    5  A    between atoms: C5*_20  and  O5*_21
REMARK    6  A    between atoms: C3*_22  and  O3*_23
REMARK    7  A    between atoms: C2*_24  and  O2*_25
REMARK                            x       y       z     vdW  Elec       q    Type
REMARK                         _______ _______ _______ _____ _____    ______ ____
ROOT
ATOM      1  C   UNL     1       7.731   6.528  18.376  0.00  0.00    +0.000 A 
ATOM      2  N   UNL     1       8.435   7.639  18.469  0.00  0.00    +0.000 NA
ATOM      3  C   UNL     1       7.677   8.582  17.830  0.00  0.00    +0.000 A 
ATOM      4  N   UNL     1       8.118   9.849  17.705  0.00  0.00    +0.000 N 
ATOM      5  N   UNL     1       6.521   8.117  17.347  0.00  0.00    +0.000 NA
ATOM      6  N   UNL     1       6.559   6.815  17.738  0.00  0.00    +0.000 N 
ATOM      7  H   UNL     1       7.590  10.450  17.089  0.00  0.00    +0.000 HD
ENDROOT
BRANCH   4   8
ATOM      8  C   UNL     1       9.192  10.475  18.365  0.00  0.00    +0.000 A 
ATOM      9  C   UNL     1       9.179  10.592  19.765  0.00  0.00    +0.000 A 
ATOM     10  C   UNL     1      10.167  11.327  20.427  0.00  0.00    +0.000 A 
ATOM     11  C   UNL     1      11.172  11.949  19.696  0.00  0.00    +0.000 A 
ATOM     12  F   UNL     1      12.102  12.673  20.328  0.00  0.00    +0.000 F 
ATOM     13  C   UNL     1      11.215  11.838  18.315  0.00  0.00    +0.000 A 
ATOM     14  C   UNL     1      10.228  11.108  17.662  0.00  0.00    +0.000 A 
ENDBRANCH   4   8
BRANCH   1  16
ATOM     15  N   UNL     1       8.383   5.265  20.262  0.00  0.00    +0.000 N 
ATOM     16  C   UNL     1       8.153   5.258  18.915  0.00  0.00    +0.000 C 
ATOM     17  O   UNL     1       8.289   4.227  18.266  0.00  0.00    +0.000 OA
ATOM     18  H   UNL     1       8.661   4.409  20.719  0.00  0.00    +0.000 HD
ATOM     19  H   UNL     1       8.245   6.111  20.800  0.00  0.00    +0.000 HD
ENDBRANCH   1  16
BRANCH   6  20
ATOM     20  C1* UNL     1       5.373   5.979  17.660  0.00  0.00    +0.000 C 
ATOM     21  O4* UNL     1       4.268   6.757  17.162  0.00  0.00    +0.000 OA
ATOM     22  C4* UNL     1       3.089   6.433  17.932  0.00  0.00    +0.000 C 
ATOM     23  C3* UNL     1       3.469   5.331  18.922  0.00  0.00    +0.000 C 
ATOM     24  C2* UNL     1       4.981   5.422  19.027  0.00  0.00    +0.000 C 
BRANCH  23  25
ATOM     25  O3* UNL     1       3.132   4.026  18.428  0.00  0.00    +0.000 OA
ATOM     26  H3* UNL     1       3.852   3.699  17.858  0.00  0.00    +0.000 HD
ENDBRANCH  23  25
BRANCH  24  27
ATOM     27  O2* UNL     1       5.571   4.145  19.287  0.00  0.00    +0.000 OA
ATOM     28  H2* UNL     1       6.226   4.284  20.005  0.00  0.00    +0.000 HD
ENDBRANCH  24  27
BRANCH  22  29
ATOM     29  C5* UNL     1       2.592   7.708  18.613  0.00  0.00    +0.000 C 
BRANCH  29  30
ATOM     30  O5* UNL     1       2.338   7.455  19.993  0.00  0.00    +0.000 OA
ATOM     31  H5* UNL     1       3.212   7.410  20.426  0.00  0.00    +0.000 HD
ENDBRANCH  29  30
ENDBRANCH  22  29
ENDBRANCH   6  20
TORSDOF 7
ENDMDL
MODEL 3
REMARK VINA RESULT:      -7.2      4.822      7.434
REMARK  Name = 
REMARK  7 active torsions:
REMARK  status: ('A' for Active; 'I' for Inactive)
REMARK    1  A    between atoms: C_2  and  C_4
REMARK    2  A    between atoms: N_7  and  C_8
REMARK    3  A    between atoms: N_16  and  C1*_17
REMARK    4  A    between atoms: C4*_19  and  C5*_20
REMARK    5  A    between atoms: C5*_20  and  O5*_21
REMARK    6  A    between atoms: C3*_22  and  O3*_23
REMARK    7  A    between atoms: C2*_24  and  O2*_25
REMARK                            x       y       z     vdW  Elec       q    Type
REMARK                         _______ _______ _______ _____ _____    ______ ____
ROOT
ATOM      1  C   UNL     1       7.740   6.580  18.385  0.00  0.00    +0.000 A 
ATOM      2  N   UNL     1       8.405   7.715  18.483  0.00  0.00    +0.000 NA
ATOM      3  C   UNL     1       7.639   8.622  17.802  0.00  0.00    +0.000 A 
ATOM      4  N   UNL     1       8.044   9.901  17.670  0.00  0.00    +0.000 N 
ATOM      5  N   UNL     1       6.517   8.111  17.287  0.00  0.00    +0.000 NA
ATOM      6  N   UNL     1       6.583   6.819  17.701  0.00  0.00    +0.000 N 
ATOM      7  H   UNL     1       7.519  10.474  17.025  0.00  0.00    +0.000 HD
ENDROOT
BRANCH   4   8
ATOM      8  C   UNL     1       9.073  10.572  18.356  0.00  0.00    +0.000 A 
ATOM      9  C   UNL     1      10.162  11.098  17.640  0.00  0.00    +0.000 A 
ATOM     10  C   UNL     1      11.257  11.647  18.313  0.00  0.00    +0.000 A 
ATOM     11  C   UNL     1      11.273  11.673  19.702  0.00  0.00    +0.000 A 
ATOM     12  F   UNL     1      12.333  12.174  20.346  0.00  0.00    +0.000 F 
ATOM     13  C   UNL     1      10.206  11.171  20.432  0.00  0.00    +0.000 A 
ATOM     14  C   UNL     1       9.121  10.625  19.757  0.00  0.00    +0.000 A 
ENDBRANCH   4   8
BRANCH   1  16
ATOM     15  N   UNL     1       8.362   5.369  20.315  0.00  0.00    +0.000 N 
ATOM     16  C   UNL     1       8.184   5.334  18.960  0.00  0.00    +0.000 C 
ATOM     17  O   UNL     1       8.379   4.298  18.335  0.00  0.00    +0.000 OA
ATOM     18  H   UNL     1       8.651   4.530  20.796  0.00  0.00    +0.000 HD
ATOM     19  H   UNL     1       8.174   6.219  20.833  0.00  0.00    +0.000 HD
ENDBRANCH   1  16
BRANCH   6  20
ATOM     20  C1* UNL     1       5.428   5.942  17.598  0.00  0.00    +0.000 C 
ATOM     21  O4* UNL     1       4.334   6.659  16.993  0.00  0.00    +0.000 OA
ATOM     22  C4* UNL     1       3.120   6.338  17.707  0.00  0.00    +0.000 C 
ATOM     23  C3* UNL     1       3.469   5.301  18.775  0.00  0.00    +0.000 C 
ATOM     24  C2* UNL     1       4.968   5.445  18.966  0.00  0.00    +0.000 C 
BRANCH  23  25
ATOM     25  O3* UNL     1       3.200   3.963  18.332  0.00  0.00    +0.000 OA
ATOM     26  H3* UNL     1       3.757   3.758  17.559  0.00  0.00    +0.000 HD
ENDBRANCH  23  25
BRANCH  24  27
ATOM     27  O2* UNL     1       5.578   4.202  19.328  0.00  0.00    +0.000 OA
ATOM     28  H2* UNL     1       5.475   3.608  18.553  0.00  0.00    +0.000 HD
ENDBRANCH  24  27
BRANCH  22  29
ATOM     29  C5* UNL     1       2.546   7.631  18.288  0.00  0.00    +0.000 C 
BRANCH  29  30
ATOM     30  O5* UNL     1       2.796   8.716  17.398  0.00  0.00    +0.000 OA
ATOM     31  H5* UNL     1       2.223   9.449  17.698  0.00  0.00    +0.000 HD
ENDBRANCH  29  30
ENDBRANCH  22  29
ENDBRANCH   6  20
TORSDOF 7
ENDMDL
MODEL 4
REMARK VINA RESULT:      -7.0      0.419      1.046
REMARK  Name = 
REMARK  7 active torsions:
REMARK  status: ('A' for Active; 'I' for Inactive)
REMARK    1  A    between atoms: C_2  and  C_4
REMARK    2  A    between atoms: N_7  and  C_8
REMARK    3  A    between atoms: N_16  and  C1*_17
REMARK    4  A    between atoms: C4*_19  and  C5*_20
REMARK    5  A    between atoms: C5*_20  and  O5*_21
REMARK    6  A    between atoms: C3*_22  and  O3*_23
REMARK    7  A    between atoms: C2*_24  and  O2*_25
REMARK                            x       y       z     vdW  Elec       q    Type
REMARK                         _______ _______ _______ _____ _____    ______ ____
ROOT
ATOM      1  C   UNL     1       2.587   6.299  19.070  0.00  0.00    +0.000 A 
ATOM      2  N   UNL     1       1.865   7.400  18.997  0.00  0.00    +0.000 NA
ATOM      3  C   UNL     1       2.589   8.233  18.188  0.00  0.00    +0.000 A 
ATOM      4  N   UNL     1       2.154   9.481  17.920  0.00  0.00    +0.000 N 
ATOM      5  N   UNL     1       3.731   7.702  17.741  0.00  0.00    +0.000 NA
ATOM      6  N   UNL     1       3.692   6.457  18.284  0.00  0.00    +0.000 N 
ATOM      7  H   UNL     1       2.807  10.094  17.455  0.00  0.00    +0.000 HD
ENDROOT
BRANCH   4   8
ATOM      8  C   UNL     1       0.883  10.036  18.154  0.00  0.00    +0.000 A 
ATOM      9  C   UNL     1       0.700  10.943  19.211  0.00  0.00    +0.000 A 
ATOM     10  C   UNL     1      -0.578  11.401  19.543  0.00  0.00    +0.000 A 
ATOM     11  C   UNL     1      -1.680  10.956  18.824  0.00  0.00    +0.000 A 
ATOM     12  F   UNL     1      -2.906  11.374  19.159  0.00  0.00    +0.000 F 
ATOM     13  C   UNL     1      -1.526  10.070  17.769  0.00  0.00    +0.000 A 
ATOM     14  C   UNL     1      -0.253   9.616  17.445  0.00  0.00    +0.000 A 
ENDBRANCH   4   8
BRANCH   1  16
ATOM     15  N   UNL     1       2.819   5.029  21.047  0.00  0.00    +0.000 N 
ATOM     16  C   UNL     1       2.205   5.134  19.831  0.00  0.00    +0.000 C 
ATOM     17  O   UNL     1       1.389   4.293  19.472  0.00  0.00    +0.000 OA
ATOM     18  H   UNL     1       2.590   4.253  21.650  0.00  0.00    +0.000 HD
ATOM     19  H   UNL     1       3.473   5.739  21.353  0.00  0.00    +0.000 HD
ENDBRANCH   1  16
BRANCH   6  20
ATOM     20  C1* UNL     1       4.612   5.422  17.843  0.00  0.00    +0.000 C 
ATOM     21  O4* UNL     1       5.448   5.022  18.946  0.00  0.00    +0.000 OA
ATOM     22  C4* UNL     1       6.804   4.875  18.468  0.00  0.00    +0.000 C 
ATOM     23  C3* UNL     1       6.796   5.128  16.960  0.00  0.00    +0.000 C 
ATOM     24  C2* UNL     1       5.517   5.910  16.715  0.00  0.00    +0.000 C 
BRANCH  23  25
ATOM     25  O3* UNL     1       6.724   3.906  16.212  0.00  0.00    +0.000 OA
ATOM     26  H3* UNL     1       5.790   3.654  16.090  0.00  0.00    +0.000 HD
ENDBRANCH  23  25
BRANCH  24  27
ATOM     27  O2* UNL     1       4.971   5.639  15.421  0.00  0.00    +0.000 OA
ATOM     28  H2* UNL     1       5.706   5.756  14.781  0.00  0.00    +0.000 HD
ENDBRANCH  24  27
BRANCH  22  29
ATOM     29  C5* UNL     1       7.695   5.852  19.237  0.00  0.00    +0.000 C 
BRANCH  29  30
ATOM     30  O5* UNL     1       7.971   5.337  20.537  0.00  0.00    +0.000 OA
ATOM     31  H5* UNL     1       7.271   5.688  21.122  0.00  0.00    +0.000 HD
ENDBRANCH  29  30
ENDBRANCH  22  29
ENDBRANCH   6  20
TORSDOF 7
ENDMDL
MODEL 5
REMARK VINA RESULT:      -7.0      4.586      8.171
REMARK  Name = 
REMARK  7 active torsions:
REMARK  status: ('A' for Active; 'I' for Inactive)
REMARK    1  A    between atoms: C_2  and  C_4
REMARK    2  A    between atoms: N_7  and  C_8
REMARK    3  A    between atoms: N_16  and  C1*_17
REMARK    4  A    between atoms: C4*_19  and  C5*_20
REMARK    5  A    between atoms: C5*_20  and  O5*_21
REMARK    6  A    between atoms: C3*_22  and  O3*_23
REMARK    7  A    between atoms: C2*_24  and  O2*_25
REMARK                            x       y       z     vdW  Elec       q    Type
REMARK                         _______ _______ _______ _____ _____    ______ ____
ROOT
ATOM      1  C   UNL     1       1.275   9.233  19.379  0.00  0.00    +0.000 A 
ATOM      2  N   UNL     1       1.978   8.137  19.170  0.00  0.00    +0.000 NA
ATOM      3  C   UNL     1       1.835   7.411  20.321  0.00  0.00    +0.000 A 
ATOM      4  N   UNL     1       2.460   6.226  20.469  0.00  0.00    +0.000 N 
ATOM      5  N   UNL     1       1.065   7.997  21.243  0.00  0.00    +0.000 NA
ATOM      6  N   UNL     1       0.689   9.139  20.608  0.00  0.00    +0.000 N 
ATOM      7  H   UNL     1       2.444   5.823  21.394  0.00  0.00    +0.000 HD
ENDROOT
BRANCH   4   8
ATOM      8  C   UNL     1       3.092   5.438  19.489  0.00  0.00    +0.000 A 
ATOM      9  C   UNL     1       4.491   5.470  19.363  0.00  0.00    +0.000 A 
ATOM     10  C   UNL     1       5.126   4.801  18.312  0.00  0.00    +0.000 A 
ATOM     11  C   UNL     1       4.369   4.101  17.381  0.00  0.00    +0.000 A 
ATOM     12  F   UNL     1       4.975   3.483  16.361  0.00  0.00    +0.000 F 
ATOM     13  C   UNL     1       2.988   4.045  17.489  0.00  0.00    +0.000 A 
ATOM     14  C   UNL     1       2.362   4.713  18.535  0.00  0.00    +0.000 A 
ENDBRANCH   4   8
BRANCH   1  16
ATOM     15  N   UNL     1       0.006  10.247  17.665  0.00  0.00    +0.000 N 
ATOM     16  C   UNL     1       1.144  10.302  18.419  0.00  0.00    +0.000 C 
ATOM     17  O   UNL     1       1.946  11.217  18.268  0.00  0.00    +0.000 OA
ATOM     18  H   UNL     1      -0.171  10.971  16.985  0.00  0.00    +0.000 HD
ATOM     19  H   UNL     1      -0.668   9.505  17.810  0.00  0.00    +0.000 HD
ENDBRANCH   1  16
BRANCH   6  20
ATOM     20  C1* UNL     1      -0.381   9.969  21.137  0.00  0.00    +0.000 C 
ATOM     21  O4* UNL     1      -0.402  11.228  20.438  0.00  0.00    +0.000 OA
ATOM     22  C4* UNL     1      -0.610  12.286  21.398  0.00  0.00    +0.000 C 
ATOM     23  C3* UNL     1      -0.803  11.639  22.770  0.00  0.00    +0.000 C 
ATOM     24  C2* UNL     1      -0.193  10.257  22.625  0.00  0.00    +0.000 C 
BRANCH  23  25
ATOM     25  O3* UNL     1      -2.191  11.483  23.099  0.00  0.00    +0.000 OA
ATOM     26  H3* UNL     1      -2.728  12.062  22.526  0.00  0.00    +0.000 HD
ENDBRANCH  23  25
BRANCH  24  27
ATOM     27  O2* UNL     1      -0.852   9.296  23.455  0.00  0.00    +0.000 OA
ATOM     28  H2* UNL     1      -1.337   8.695  22.850  0.00  0.00    +0.000 HD
ENDBRANCH  24  27
BRANCH  22  29
ATOM     29  C5* UNL     1       0.591  13.231  21.342  0.00  0.00    +0.000 C 
BRANCH  29  30
ATOM     30  O5* UNL     1       1.772  12.497  21.031  0.00  0.00    +0.000 OA
ATOM     31  H5* UNL     1       2.113  12.873  20.196  0.00  0.00    +0.000 HD
ENDBRANCH  29  30
ENDBRANCH  22  29
ENDBRANCH   6  20
TORSDOF 7
ENDMDL
MODEL 6
REMARK VINA RESULT:      -6.9      2.263      4.215
REMARK  Name = 
REMARK  7 active torsions:
REMARK  status: ('A' for Active; 'I' for Inactive)
REMARK    1  A    between atoms: C_2  and  C_4
REMARK    2  A    between atoms: N_7  and  C_8
REMARK    3  A    between atoms: N_16  and  C1*_17
REMARK    4  A    between atoms: C4*_19  and  C5*_20
REMARK    5  A    between atoms: C5*_20  and  O5*_21
REMARK    6  A    between atoms: C3*_22  and  O3*_23
REMARK    7  A    between atoms: C2*_24  and  O2*_25
REMARK                            x       y       z     vdW  Elec       q    Type
REMARK                         _______ _______ _______ _____ _____    ______ ____
ROOT
ATOM      1  C   UNL     1       4.173   6.447  17.574  0.00  0.00    +0.000 A 
ATOM      2  N   UNL     1       3.567   7.582  17.862  0.00  0.00    +0.000 NA
ATOM      3  C   UNL     1       2.253   7.238  18.031  0.00  0.00    +0.000 A 
ATOM      4  N   UNL     1       1.326   8.177  18.307  0.00  0.00    +0.000 N 
ATOM      5  N   UNL     1       2.007   5.935  17.872  0.00  0.00    +0.000 NA
ATOM      6  N   UNL     1       3.249   5.444  17.618  0.00  0.00    +0.000 N 
ATOM      7  H   UNL     1       0.361   7.883  18.259  0.00  0.00    +0.000 HD
ENDROOT
BRANCH   4   8
ATOM      8  C   UNL     1       1.520   9.511  18.710  0.00  0.00    +0.000 A 
ATOM      9  C   UNL     1       0.958   9.965  19.914  0.00  0.00    +0.000 A 
ATOM     10  C   UNL     1       1.024  11.317  20.265  0.00  0.00    +0.000 A 
ATOM     11  C   UNL     1       1.649  12.221  19.417  0.00  0.00    +0.000 A 
ATOM     12  F   UNL     1       1.690  13.519  19.741  0.00  0.00    +0.000 F 
ATOM     13  C   UNL     1       2.223  11.797  18.228  0.00  0.00    +0.000 A 
ATOM     14  C   UNL     1       2.152  10.452  17.883  0.00  0.00    +0.000 A 
ENDBRANCH   4   8
BRANCH   1  16
ATOM     15  N   UNL     1       5.935   6.540  16.005  0.00  0.00    +0.000 N 
ATOM     16  C   UNL     1       5.586   6.333  17.310  0.00  0.00    +0.000 C 
ATOM     17  O   UNL     1       6.445   6.094  18.152  0.00  0.00    +0.000 OA
ATOM     18  H   UNL     1       6.909   6.500  15.742  0.00  0.00    +0.000 HD
ATOM     19  H   UNL     1       5.228   6.764  15.316  0.00  0.00    +0.000 HD
ENDBRANCH   1  16
BRANCH   6  20
ATOM     20  C1* UNL     1       3.505   4.014  17.644  0.00  0.00    +0.000 C 
ATOM     21  O4* UNL     1       2.313   3.305  17.254  0.00  0.00    +0.000 OA
ATOM     22  C4* UNL     1       2.147   2.166  18.126  0.00  0.00    +0.000 C 
ATOM     23  C3* UNL     1       3.350   2.122  19.070  0.00  0.00    +0.000 C 
ATOM     24  C2* UNL     1       3.907   3.534  19.037  0.00  0.00    +0.000 C 
BRANCH  23  25
ATOM     25  O3* UNL     1       4.369   1.227  18.600  0.00  0.00    +0.000 OA
ATOM     26  H3* UNL     1       5.158   1.307  19.167  0.00  0.00    +0.000 HD
ENDBRANCH  23  25
BRANCH  24  27
ATOM     27  O2* UNL     1       5.324   3.549  19.232  0.00  0.00    +0.000 OA
ATOM     28  H2* UNL     1       5.489   4.116  20.016  0.00  0.00    +0.000 HD
ENDBRANCH  24  27
BRANCH  22  29
ATOM     29  C5* UNL     1       0.813   2.309  18.859  0.00  0.00    +0.000 C 
BRANCH  29  30
ATOM     30  O5* UNL     1       0.752   3.575  19.513  0.00  0.00    +0.000 OA
ATOM     31  H5* UNL     1       1.668   3.913  19.535  0.00  0.00    +0.000 HD
ENDBRANCH  29  30
ENDBRANCH  22  29
ENDBRANCH   6  20
TORSDOF 7
ENDMDL
MODEL 7
REMARK VINA RESULT:      -6.9      2.599      3.774
REMARK  Name = 
REMARK  7 active torsions:
REMARK  status: ('A' for Active; 'I' for Inactive)
REMARK    1  A    between atoms: C_2  and  C_4
REMARK    2  A    between atoms: N_7  and  C_8
REMARK    3  A    between atoms: N_16  and  C1*_17
REMARK    4  A    between atoms: C4*_19  and  C5*_20
REMARK    5  A    between atoms: C5*_20  and  O5*_21
REMARK    6  A    between atoms: C3*_22  and  O3*_23
REMARK    7  A    between atoms: C2*_24  and  O2*_25
REMARK                            x       y       z     vdW  Elec       q    Type
REMARK                         _______ _______ _______ _____ _____    ______ ____
ROOT
ATOM      1  C   UNL     1       1.912   5.698  20.328  0.00  0.00    +0.000 A 
ATOM      2  N   UNL     1       1.396   6.816  20.800  0.00  0.00    +0.000 NA
ATOM      3  C   UNL     1       1.872   7.793  19.968  0.00  0.00    +0.000 A 
ATOM      4  N   UNL     1       1.564   9.088  20.182  0.00  0.00    +0.000 N 
ATOM      5  N   UNL     1       2.657   7.339  18.988  0.00  0.00    +0.000 NA
ATOM      6  N   UNL     1       2.639   5.999  19.213  0.00  0.00    +0.000 N 
ATOM      7  H   UNL     1       2.074   9.767  19.635  0.00  0.00    +0.000 HD
ENDROOT
BRANCH   4   8
ATOM      8  C   UNL     1       0.582   9.629  21.032  0.00  0.00    +0.000 A 
ATOM      9  C   UNL     1      -0.238  10.674  20.576  0.00  0.00    +0.000 A 
ATOM     10  C   UNL     1      -1.126  11.314  21.446  0.00  0.00    +0.000 A 
ATOM     11  C   UNL     1      -1.198  10.917  22.775  0.00  0.00    +0.000 A 
ATOM     12  F   UNL     1      -2.028  11.547  23.614  0.00  0.00    +0.000 F 
ATOM     13  C   UNL     1      -0.408   9.881  23.248  0.00  0.00    +0.000 A 
ATOM     14  C   UNL     1       0.474   9.249  22.379  0.00  0.00    +0.000 A 
ENDBRANCH   4   8
BRANCH   1  16
ATOM     15  N   UNL     1       0.504   3.811  20.521  0.00  0.00    +0.000 N 
ATOM     16  C   UNL     1       1.679   4.397  20.905  0.00  0.00    +0.000 C 
ATOM     17  O   UNL     1       2.446   3.813  21.662  0.00  0.00    +0.000 OA
ATOM     18  H   UNL     1       0.278   2.890  20.864  0.00  0.00    +0.000 HD
ATOM     19  H   UNL     1      -0.115   4.284  19.875  0.00  0.00    +0.000 HD
ENDBRANCH   1  16
BRANCH   6  20
ATOM     20  C1* UNL     1       3.148   5.068  18.219  0.00  0.00    +0.000 C 
ATOM     21  O4* UNL     1       2.088   4.191  17.795  0.00  0.00    +0.000 OA
ATOM     22  C4* UNL     1       2.609   2.847  17.701  0.00  0.00    +0.000 C 
ATOM     23  C3* UNL     1       4.104   2.904  18.016  0.00  0.00    +0.000 C 
ATOM     24  C2* UNL     1       4.280   4.207  18.775  0.00  0.00    +0.000 C 
BRANCH  23  25
ATOM     25  O3* UNL     1       4.901   2.970  16.824  0.00  0.00    +0.000 OA
ATOM     26  H3* UNL     1       5.647   2.345  16.897  0.00  0.00    +0.000 HD
ENDBRANCH  23  25
BRANCH  24  27
ATOM     27  O2* UNL     1       5.569   4.784  18.545  0.00  0.00    +0.000 OA
ATOM     28  H2* UNL     1       5.508   5.721  18.833  0.00  0.00    +0.000 HD
ENDBRANCH  24  27
BRANCH  22  29
ATOM     29  C5* UNL     1       1.825   1.957  18.666  0.00  0.00    +0.000 C 
BRANCH  29  30
ATOM     30  O5* UNL     1       0.447   1.940  18.301  0.00  0.00    +0.000 OA
ATOM     31  H5* UNL     1       0.073   1.128  18.695  0.00  0.00    +0.000 HD
ENDBRANCH  29  30
ENDBRANCH  22  29
ENDBRANCH   6  20
TORSDOF 7
ENDMDL
MODEL 8
REMARK VINA RESULT:      -6.8      2.318      3.103
REMARK  Name = 
REMARK  7 active torsions:
REMARK  status: ('A' for Active; 'I' for Inactive)
REMARK    1  A    between atoms: C_2  and  C_4
REMARK    2  A    between atoms: N_7  and  C_8
REMARK    3  A    between atoms: N_16  and  C1*_17
REMARK    4  A    between atoms: C4*_19  and  C5*_20
REMARK    5  A    between atoms: C5*_20  and  O5*_21
REMARK    6  A    between atoms: C3*_22  and  O3*_23
REMARK    7  A    between atoms: C2*_24  and  O2*_25
REMARK                            x       y       z     vdW  Elec       q    Type
REMARK                         _______ _______ _______ _____ _____    ______ ____
ROOT
ATOM      1  C   UNL     1       1.992   4.897  20.653  0.00  0.00    +0.000 A 
ATOM      2  N   UNL     1       1.511   6.083  20.966  0.00  0.00    +0.000 NA
ATOM      3  C   UNL     1       2.340   6.970  20.334  0.00  0.00    +0.000 A 
ATOM      4  N   UNL     1       2.157   8.298  20.468  0.00  0.00    +0.000 N 
ATOM      5  N   UNL     1       3.317   6.393  19.628  0.00  0.00    +0.000 NA
ATOM      6  N   UNL     1       3.055   5.073  19.815  0.00  0.00    +0.000 N 
ATOM      7  H   UNL     1       2.892   8.891  20.112  0.00  0.00    +0.000 HD
ENDROOT
BRANCH   4   8
ATOM      8  C   UNL     1       1.044   8.983  20.991  0.00  0.00    +0.000 A 
ATOM      9  C   UNL     1       0.229   9.744  20.138  0.00  0.00    +0.000 A 
ATOM     10  C   UNL     1      -0.798  10.539  20.657  0.00  0.00    +0.000 A 
ATOM     11  C   UNL     1      -1.015  10.579  22.029  0.00  0.00    +0.000 A 
ATOM     12  F   UNL     1      -1.980  11.360  22.527  0.00  0.00    +0.000 F 
ATOM     13  C   UNL     1      -0.231   9.828  22.891  0.00  0.00    +0.000 A 
ATOM     14  C   UNL     1       0.790   9.042  22.370  0.00  0.00    +0.000 A 
ENDBRANCH   4   8
BRANCH   1  16
ATOM     15  N   UNL     1       0.453   3.141  20.296  0.00  0.00    +0.000 N 
ATOM     16  C   UNL     1       1.426   3.651  21.110  0.00  0.00    +0.000 C 
ATOM     17  O   UNL     1       1.768   3.050  22.122  0.00  0.00    +0.000 OA
ATOM     18  H   UNL     1       0.023   2.260  20.535  0.00  0.00    +0.000 HD
ATOM     19  H   UNL     1       0.192   3.626  19.447  0.00  0.00    +0.000 HD
ENDBRANCH   1  16
BRANCH   6  20
ATOM     20  C1* UNL     1       3.713   4.060  19.005  0.00  0.00    +0.000 C 
ATOM     21  O4* UNL     1       5.098   4.413  18.826  0.00  0.00    +0.000 OA
ATOM     22  C4* UNL     1       5.465   4.161  17.452  0.00  0.00    +0.000 C 
ATOM     23  C3* UNL     1       4.253   3.544  16.752  0.00  0.00    +0.000 C 
ATOM     24  C2* UNL     1       3.074   3.935  17.624  0.00  0.00    +0.000 C 
BRANCH  23  25
ATOM     25  O3* UNL     1       4.327   2.111  16.714  0.00  0.00    +0.000 OA
ATOM     26  H3* UNL     1       3.432   1.737  16.813  0.00  0.00    +0.000 HD
ENDBRANCH  23  25
BRANCH  24  27
ATOM     27  O2* UNL     1       2.038   2.948  17.589  0.00  0.00    +0.000 OA
ATOM     28  H2* UNL     1       2.131   2.482  16.730  0.00  0.00    +0.000 HD
ENDBRANCH  24  27
BRANCH  22  29
ATOM     29  C5* UNL     1       5.915   5.480  16.823  0.00  0.00    +0.000 C 
BRANCH  29  30
ATOM     30  O5* UNL     1       5.523   6.572  17.650  0.00  0.00    +0.000 OA
ATOM     31  H5* UNL     1       4.551   6.637  17.571  0.00  0.00    +0.000 HD
ENDBRANCH  29  30
ENDBRANCH  22  29
ENDBRANCH   6  20
TORSDOF 7
ENDMDL
MODEL 9
REMARK VINA RESULT:      -6.8      2.280      4.113
REMARK  Name = 
REMARK  7 active torsions:
REMARK  status: ('A' for Active; 'I' for Inactive)
REMARK    1  A    between atoms: C_2  and  C_4
REMARK    2  A    between atoms: N_7  and  C_8
REMARK    3  A    between atoms: N_16  and  C1*_17
REMARK    4  A    between atoms: C4*_19  and  C5*_20
REMARK    5  A    between atoms: C5*_20  and  O5*_21
REMARK    6  A    between atoms: C3*_22  and  O3*_23
REMARK    7  A    between atoms: C2*_24  and  O2*_25
REMARK                            x       y       z     vdW  Elec       q    Type
REMARK                         _______ _______ _______ _____ _____    ______ ____
ROOT
ATOM      1  C   UNL     1       3.945   6.723  17.597  0.00  0.00    +0.000 A 
ATOM      2  N   UNL     1       3.322   7.861  17.831  0.00  0.00    +0.000 NA
ATOM      3  C   UNL     1       2.159   7.496  18.454  0.00  0.00    +0.000 A 
ATOM      4  N   UNL     1       1.250   8.425  18.811  0.00  0.00    +0.000 N 
ATOM      5  N   UNL     1       2.027   6.179  18.632  0.00  0.00    +0.000 NA
ATOM      6  N   UNL     1       3.192   5.708  18.113  0.00  0.00    +0.000 N 
ATOM      7  H   UNL     1       0.352   8.079  19.117  0.00  0.00    +0.000 HD
ENDROOT
BRANCH   4   8
ATOM      8  C   UNL     1       1.398   9.823  18.871  0.00  0.00    +0.000 A 
ATOM      9  C   UNL     1       2.140  10.489  17.882  0.00  0.00    +0.000 A 
ATOM     10  C   UNL     1       2.413  11.855  17.995  0.00  0.00    +0.000 A 
ATOM     11  C   UNL     1       1.948  12.563  19.097  0.00  0.00    +0.000 A 
ATOM     12  F   UNL     1       2.232  13.865  19.219  0.00  0.00    +0.000 F 
ATOM     13  C   UNL     1       1.204  11.932  20.082  0.00  0.00    +0.000 A 
ATOM     14  C   UNL     1       0.938  10.572  19.964  0.00  0.00    +0.000 A 
ENDBRANCH   4   8
BRANCH   1  16
ATOM     15  N   UNL     1       5.170   6.679  15.579  0.00  0.00    +0.000 N 
ATOM     16  C   UNL     1       5.227   6.626  16.943  0.00  0.00    +0.000 C 
ATOM     17  O   UNL     1       6.306   6.524  17.517  0.00  0.00    +0.000 OA
ATOM     18  H   UNL     1       6.027   6.639  15.047  0.00  0.00    +0.000 HD
ATOM     19  H   UNL     1       4.280   6.790  15.109  0.00  0.00    +0.000 HD
ENDBRANCH   1  16
BRANCH   6  20
ATOM     20  C1* UNL     1       3.606   4.333  18.335  0.00  0.00    +0.000 C 
ATOM     21  O4* UNL     1       2.442   3.489  18.425  0.00  0.00    +0.000 OA
ATOM     22  C4* UNL     1       2.633   2.552  19.507  0.00  0.00    +0.000 C 
ATOM     23  C3* UNL     1       4.033   2.778  20.078  0.00  0.00    +0.000 C 
ATOM     24  C2* UNL     1       4.401   4.182  19.630  0.00  0.00    +0.000 C 
BRANCH  23  25
ATOM     25  O3* UNL     1       4.993   1.866  19.524  0.00  0.00    +0.000 OA
ATOM     26  H3* UNL     1       5.878   2.069  19.880  0.00  0.00    +0.000 HD
ENDBRANCH  23  25
BRANCH  24  27
ATOM     27  O2* UNL     1       5.811   4.320  19.425  0.00  0.00    +0.000 OA
ATOM     28  H2* UNL     1       5.944   5.199  19.010  0.00  0.00    +0.000 HD
ENDBRANCH  24  27
BRANCH  22  29
ATOM     29  C5* UNL     1       1.522   2.768  20.536  0.00  0.00    +0.000 C 
BRANCH  29  30
ATOM     30  O5* UNL     1       0.626   3.778  20.077  0.00  0.00    +0.000 OA
ATOM     31  H5* UNL     1       0.005   3.943  20.813  0.00  0.00    +0.000 HD
ENDBRANCH  29  30
ENDBRANCH  22  29
ENDBRANCH   6  20
TORSDOF 7
ENDMDL
