MODEL 1
REMARK VINA RESULT:      -8.0      0.000      0.000
REMARK  Name = 
REMARK  9 active torsions:
REMARK  status: ('A' for Active; 'I' for Inactive)
REMARK    1  A    between atoms: C_1  and  O_2
REMARK    2  A    between atoms: O_2  and  C_3
REMARK    3  A    between atoms: C_5  and  P_6
REMARK    4  A    between atoms: P_6  and  C_7
REMARK    5  A    between atoms: P_6  and  C_8
REMARK    6  A    between atoms: C_12  and  N_13
REMARK    7  A    between atoms: C_19  and  N_20
REMARK    8  A    between atoms: N_20  and  C_21
REMARK    9  A    between atoms: C_26  and  C_27
REMARK                            x       y       z     vdW  Elec       q    Type
REMARK                         _______ _______ _______ _____ _____    ______ ____
ROOT
ATOM      1  N   UNL     1       0.991   7.141  20.641  0.00  0.00    +0.000 N 
ATOM      2  C   UNL     1       1.819   6.062  20.356  0.00  0.00    +0.000 A 
ATOM      3  N   UNL     1       1.383   4.859  20.758  0.00  0.00    +0.000 NA
ATOM      4  C   UNL     1       2.220   3.813  20.559  0.00  0.00    +0.000 A 
ATOM      5  C   UNL     1       3.479   3.935  20.027  0.00  0.00    +0.000 A 
ATOM      6 CL   UNL     1       4.519   2.574  19.900  0.00  0.00    +0.000 Cl
ATOM      7  C   UNL     1       3.870   5.219  19.680  0.00  0.00    +0.000 A 
ATOM      8  N   UNL     1       3.031   6.264  19.816  0.00  0.00    +0.000 NA
ATOM      9  H   UNL     1       0.261   6.894  21.287  0.00  0.00    +0.000 HD
ENDROOT
BRANCH   1  15
ATOM     10  C   UNL     1       0.988   9.544  21.232  0.00  0.00    +0.000 A 
ATOM     11  C   UNL     1       1.111  10.876  20.818  0.00  0.00    +0.000 A 
ATOM     12  C   UNL     1       1.323  11.182  19.475  0.00  0.00    +0.000 A 
ATOM     13  C   UNL     1       1.489  10.140  18.557  0.00  0.00    +0.000 A 
ATOM     14  C   UNL     1       1.396   8.814  18.964  0.00  0.00    +0.000 A 
ATOM     15  C   UNL     1       1.147   8.492  20.304  0.00  0.00    +0.000 A 
BRANCH  12  16
ATOM     16  P   UNL     1       1.338  12.857  18.915  0.00  0.00    +0.000 P 
ATOM     17  C   UNL     1      -0.325  13.257  18.369  0.00  0.00    +0.000 C 
ATOM     18  C   UNL     1       1.641  13.884  20.364  0.00  0.00    +0.000 C 
ATOM     19  O   UNL     1       2.331  13.200  17.832  0.00  0.00    +0.000 OA
ENDBRANCH  12  16
BRANCH  10  21
ATOM     20  C   UNL     1      -0.359   9.742  23.150  0.00  0.00    +0.000 C 
ATOM     21  O   UNL     1       0.818   9.205  22.554  0.00  0.00    +0.000 OA
ENDBRANCH  10  21
ENDBRANCH   1  15
BRANCH   7  22
ATOM     22  N   UNL     1       5.146   5.476  19.113  0.00  0.00    +0.000 N 
ATOM     23  H   UNL     1       5.434   6.435  19.337  0.00  0.00    +0.000 HD
BRANCH  22  24
ATOM     24  C   UNL     1       5.497   5.211  17.758  0.00  0.00    +0.000 A 
ATOM     25  C   UNL     1       4.699   4.354  16.970  0.00  0.00    +0.000 A 
ATOM     26  C   UNL     1       4.942   4.171  15.608  0.00  0.00    +0.000 A 
ATOM     27  C   UNL     1       5.970   4.869  14.988  0.00  0.00    +0.000 A 
ATOM     28  C   UNL     1       6.769   5.730  15.739  0.00  0.00    +0.000 A 
ATOM     29  C   UNL     1       6.549   5.896  17.119  0.00  0.00    +0.000 A 
BRANCH  29  30
ATOM     30  C   UNL     1       7.511   6.783  17.833  0.00  0.00    +0.000 C 
ATOM     31  N   UNL     1       7.719   8.026  17.311  0.00  0.00    +0.000 N 
ATOM     32  O   UNL     1       8.054   6.438  18.875  0.00  0.00    +0.000 OA
ATOM     33  H   UNL     1       7.237   8.338  16.475  0.00  0.00    +0.000 HD
ATOM     34  H   UNL     1       8.301   8.673  17.824  0.00  0.00    +0.000 HD
ENDBRANCH  29  30
ENDBRANCH  22  24
ENDBRANCH   7  22
TORSDOF 6
ENDMDL
MODEL 2
REMARK VINA RESULT:      -7.7      1.556      1.987
REMARK  Name = 
REMARK  9 active torsions:
REMARK  status: ('A' for Active; 'I' for Inactive)
REMARK    1  A    between atoms: C_1  and  O_2
REMARK    2  A    between atoms: O_2  and  C_3
REMARK    3  A    between atoms: C_5  and  P_6
REMARK    4  A    between atoms: P_6  and  C_7
REMARK    5  A    between atoms: P_6  and  C_8
REMARK    6  A    between atoms: C_12  and  N_13
REMARK    7  A    between atoms: C_19  and  N_20
REMARK    8  A    between atoms: N_20  and  C_21
REMARK    9  A    between atoms: C_26  and  C_27
REMARK                            x       y       z     vdW  Elec       q    Type
REMARK                         _______ _______ _______ _____ _____    ______ ____
ROOT
ATOM      1  N   UNL     1       1.322   6.703  21.120  0.00  0.00    +0.000 N 
ATOM      2  C   UNL     1       1.939   5.563  20.619  0.00  0.00    +0.000 A 
ATOM      3  N   UNL     1       1.643   4.410  21.237  0.00  0.00    +0.000 NA
ATOM      4  C   UNL     1       2.303   3.307  20.811  0.00  0.00    +0.000 A 
ATOM      5  C   UNL     1       3.270   3.326  19.837  0.00  0.00    +0.000 A 
ATOM      6 CL   UNL     1       4.132   1.899  19.422  0.00  0.00    +0.000 Cl
ATOM      7  C   UNL     1       3.548   4.565  19.281  0.00  0.00    +0.000 A 
ATOM      8  N   UNL     1       2.862   5.664  19.651  0.00  0.00    +0.000 NA
ATOM      9  H   UNL     1       0.882   6.533  22.008  0.00  0.00    +0.000 HD
ENDROOT
BRANCH   1  15
ATOM     10  C   UNL     1       1.075   9.142  21.460  0.00  0.00    +0.000 A 
ATOM     11  C   UNL     1       1.117  10.434  20.921  0.00  0.00    +0.000 A 
ATOM     12  C   UNL     1       1.401  10.626  19.570  0.00  0.00    +0.000 A 
ATOM     13  C   UNL     1       1.721   9.520  18.776  0.00  0.00    +0.000 A 
ATOM     14  C   UNL     1       1.709   8.237  19.310  0.00  0.00    +0.000 A 
ATOM     15  C   UNL     1       1.389   8.024  20.657  0.00  0.00    +0.000 A 
BRANCH  12  16
ATOM     16  P   UNL     1       1.318  12.234  18.843  0.00  0.00    +0.000 P 
ATOM     17  C   UNL     1      -0.367  12.480  18.274  0.00  0.00    +0.000 C 
ATOM     18  C   UNL     1       1.565  13.419  20.178  0.00  0.00    +0.000 C 
ATOM     19  O   UNL     1       2.286  12.522  17.722  0.00  0.00    +0.000 OA
ENDBRANCH  12  16
BRANCH  10  21
ATOM     20  C   UNL     1      -0.268   9.645  23.324  0.00  0.00    +0.000 C 
ATOM     21  O   UNL     1       0.837   8.919  22.796  0.00  0.00    +0.000 OA
ENDBRANCH  10  21
ENDBRANCH   1  15
BRANCH   7  22
ATOM     22  N   UNL     1       4.522   4.715  18.260  0.00  0.00    +0.000 N 
ATOM     23  H   UNL     1       4.825   3.790  17.936  0.00  0.00    +0.000 HD
BRANCH  22  24
ATOM     24  C   UNL     1       5.671   5.553  18.354  0.00  0.00    +0.000 A 
ATOM     25  C   UNL     1       6.670   5.286  19.313  0.00  0.00    +0.000 A 
ATOM     26  C   UNL     1       7.864   6.008  19.351  0.00  0.00    +0.000 A 
ATOM     27  C   UNL     1       8.106   6.994  18.405  0.00  0.00    +0.000 A 
ATOM     28  C   UNL     1       7.141   7.275  17.438  0.00  0.00    +0.000 A 
ATOM     29  C   UNL     1       5.922   6.571  17.413  0.00  0.00    +0.000 A 
BRANCH  29  30
ATOM     30  C   UNL     1       4.936   7.006  16.383  0.00  0.00    +0.000 C 
ATOM     31  N   UNL     1       5.273   6.809  15.076  0.00  0.00    +0.000 N 
ATOM     32  O   UNL     1       3.846   7.471  16.691  0.00  0.00    +0.000 OA
ATOM     33  H   UNL     1       6.153   6.381  14.813  0.00  0.00    +0.000 HD
ATOM     34  H   UNL     1       4.586   7.018  14.365  0.00  0.00    +0.000 HD
ENDBRANCH  29  30
ENDBRANCH  22  24
ENDBRANCH   7  22
TORSDOF 6
ENDMDL
MODEL 3
REMARK VINA RESULT:      -7.5      1.527      2.103
REMARK  Name = 
REMARK  9 active torsions:
REMARK  status: ('A' for Active; 'I' for Inactive)
REMARK    1  A    between atoms: C_1  and  O_2
REMARK    2  A    between atoms: O_2  and  C_3
REMARK    3  A    between atoms: C_5  and  P_6
REMARK    4  A    between atoms: P_6  and  C_7
REMARK    5  A    between atoms: P_6  and  C_8
REMARK    6  A    between atoms: C_12  and  N_13
REMARK    7  A    between atoms: C_19  and  N_20
REMARK    8  A    between atoms: N_20  and  C_21
REMARK    9  A    between atoms: C_26  and  C_27
REMARK                            x       y       z     vdW  Elec       q    Type
REMARK                         _______ _______ _______ _____ _____    ______ ____
ROOT
ATOM      1  N   UNL     1       1.066   7.384  20.946  0.00  0.00    +0.000 N 
ATOM      2  C   UNL     1       1.623   6.244  20.380  0.00  0.00    +0.000 A 
ATOM      3  N   UNL     1       1.315   5.079  20.969  0.00  0.00    +0.000 NA
ATOM      4  C   UNL     1       1.919   3.972  20.477  0.00  0.00    +0.000 A 
ATOM      5  C   UNL     1       2.844   3.995  19.463  0.00  0.00    +0.000 A 
ATOM      6 CL   UNL     1       3.640   2.557  18.963  0.00  0.00    +0.000 Cl
ATOM      7  C   UNL     1       3.140   5.243  18.939  0.00  0.00    +0.000 A 
ATOM      8  N   UNL     1       2.507   6.350  19.376  0.00  0.00    +0.000 NA
ATOM      9  H   UNL     1       0.659   7.196  21.845  0.00  0.00    +0.000 HD
ENDROOT
BRANCH   1  15
ATOM     10  C   UNL     1       0.994   9.816  21.398  0.00  0.00    +0.000 A 
ATOM     11  C   UNL     1       1.050  11.126  20.905  0.00  0.00    +0.000 A 
ATOM     12  C   UNL     1       1.200  11.360  19.539  0.00  0.00    +0.000 A 
ATOM     13  C   UNL     1       1.372  10.273  18.675  0.00  0.00    +0.000 A 
ATOM     14  C   UNL     1       1.345   8.970  19.161  0.00  0.00    +0.000 A 
ATOM     15  C   UNL     1       1.158   8.718  20.526  0.00  0.00    +0.000 A 
BRANCH  12  16
ATOM     16  P   UNL     1       1.131  12.999  18.884  0.00  0.00    +0.000 P 
ATOM     17  C   UNL     1      -0.525  13.248  18.235  0.00  0.00    +0.000 C 
ATOM     18  C   UNL     1       1.286  14.122  20.283  0.00  0.00    +0.000 C 
ATOM     19  O   UNL     1       2.154  13.352  17.832  0.00  0.00    +0.000 OA
ENDBRANCH  12  16
BRANCH  10  21
ATOM     20  C   UNL     1      -0.413   9.771  23.282  0.00  0.00    +0.000 C 
ATOM     21  O   UNL     1       0.886   9.549  22.743  0.00  0.00    +0.000 OA
ENDBRANCH  10  21
ENDBRANCH   1  15
BRANCH   7  22
ATOM     22  N   UNL     1       4.074   5.400  17.882  0.00  0.00    +0.000 N 
ATOM     23  H   UNL     1       3.810   4.792  17.099  0.00  0.00    +0.000 HD
BRANCH  22  24
ATOM     24  C   UNL     1       5.489   5.339  18.037  0.00  0.00    +0.000 A 
ATOM     25  C   UNL     1       6.088   5.704  19.261  0.00  0.00    +0.000 A 
ATOM     26  C   UNL     1       7.456   5.539  19.488  0.00  0.00    +0.000 A 
ATOM     27  C   UNL     1       8.255   4.968  18.507  0.00  0.00    +0.000 A 
ATOM     28  C   UNL     1       7.691   4.589  17.291  0.00  0.00    +0.000 A 
ATOM     29  C   UNL     1       6.318   4.781  17.044  0.00  0.00    +0.000 A 
BRANCH  29  30
ATOM     30  C   UNL     1       5.839   4.407  15.683  0.00  0.00    +0.000 C 
ATOM     31  N   UNL     1       5.984   3.103  15.307  0.00  0.00    +0.000 N 
ATOM     32  O   UNL     1       5.290   5.218  14.948  0.00  0.00    +0.000 OA
ATOM     33  H   UNL     1       6.395   2.415  15.928  0.00  0.00    +0.000 HD
ATOM     34  H   UNL     1       5.591   2.810  14.424  0.00  0.00    +0.000 HD
ENDBRANCH  29  30
ENDBRANCH  22  24
ENDBRANCH   7  22
TORSDOF 6
ENDMDL
MODEL 4
REMARK VINA RESULT:      -7.5      2.557      4.974
REMARK  Name = 
REMARK  9 active torsions:
REMARK  status: ('A' for Active; 'I' for Inactive)
REMARK    1  A    between atoms: C_1  and  O_2
REMARK    2  A    between atoms: O_2  and  C_3
REMARK    3  A    between atoms: C_5  and  P_6
REMARK    4  A    between atoms: P_6  and  C_7
REMARK    5  A    between atoms: P_6  and  C_8
REMARK    6  A    between atoms: C_12  and  N_13
REMARK    7  A    between atoms: C_19  and  N_20
REMARK    8  A    between atoms: N_20  and  C_21
REMARK    9  A    between atoms: C_26  and  C_27
REMARK                            x       y       z     vdW  Elec       q    Type
REMARK                         _______ _______ _______ _____ _____    ______ ____
ROOT
ATOM      1  N   UNL     1       3.714   8.079  17.299  0.00  0.00    +0.000 N 
ATOM      2  C   UNL     1       4.223   6.854  16.885  0.00  0.00    +0.000 A 
ATOM      3  N   UNL     1       5.173   6.896  15.940  0.00  0.00    +0.000 NA
ATOM      4  C   UNL     1       5.616   5.705  15.471  0.00  0.00    +0.000 A 
ATOM      5  C   UNL     1       5.113   4.493  15.874  0.00  0.00    +0.000 A 
ATOM      6 CL   UNL     1       5.659   3.030  15.158  0.00  0.00    +0.000 Cl
ATOM      7  C   UNL     1       4.102   4.539  16.820  0.00  0.00    +0.000 A 
ATOM      8  N   UNL     1       3.688   5.711  17.341  0.00  0.00    +0.000 NA
ATOM      9  H   UNL     1       3.994   8.827  16.688  0.00  0.00    +0.000 HD
ENDROOT
BRANCH   1  15
ATOM     10  C   UNL     1       2.102   9.596  18.405  0.00  0.00    +0.000 A 
ATOM     11  C   UNL     1       1.202   9.824  19.453  0.00  0.00    +0.000 A 
ATOM     12  C   UNL     1       1.003   8.857  20.436  0.00  0.00    +0.000 A 
ATOM     13  C   UNL     1       1.654   7.624  20.322  0.00  0.00    +0.000 A 
ATOM     14  C   UNL     1       2.529   7.380  19.269  0.00  0.00    +0.000 A 
ATOM     15  C   UNL     1       2.767   8.356  18.294  0.00  0.00    +0.000 A 
BRANCH  12  16
ATOM     16  P   UNL     1      -0.020   9.182  21.840  0.00  0.00    +0.000 P 
ATOM     17  C   UNL     1       1.059   9.324  23.269  0.00  0.00    +0.000 C 
ATOM     18  C   UNL     1      -0.729  10.820  21.594  0.00  0.00    +0.000 C 
ATOM     19  O   UNL     1      -1.119   8.189  22.122  0.00  0.00    +0.000 OA
ENDBRANCH  12  16
BRANCH  10  21
ATOM     20  C   UNL     1       2.433  11.857  17.846  0.00  0.00    +0.000 C 
ATOM     21  O   UNL     1       2.293  10.513  17.397  0.00  0.00    +0.000 OA
ENDBRANCH  10  21
ENDBRANCH   1  15
BRANCH   7  22
ATOM     22  N   UNL     1       3.505   3.354  17.323  0.00  0.00    +0.000 N 
ATOM     23  H   UNL     1       2.978   2.891  16.575  0.00  0.00    +0.000 HD
BRANCH  22  24
ATOM     24  C   UNL     1       2.736   3.280  18.521  0.00  0.00    +0.000 A 
ATOM     25  C   UNL     1       1.335   3.443  18.479  0.00  0.00    +0.000 A 
ATOM     26  C   UNL     1       0.540   3.254  19.610  0.00  0.00    +0.000 A 
ATOM     27  C   UNL     1       1.122   2.860  20.807  0.00  0.00    +0.000 A 
ATOM     28  C   UNL     1       2.502   2.682  20.877  0.00  0.00    +0.000 A 
ATOM     29  C   UNL     1       3.314   2.900  19.748  0.00  0.00    +0.000 A 
BRANCH  29  30
ATOM     30  C   UNL     1       4.783   2.753  19.959  0.00  0.00    +0.000 C 
ATOM     31  N   UNL     1       5.224   1.562  20.457  0.00  0.00    +0.000 N 
ATOM     32  O   UNL     1       5.569   3.638  19.650  0.00  0.00    +0.000 OA
ATOM     33  H   UNL     1       4.583   0.806  20.671  0.00  0.00    +0.000 HD
ATOM     34  H   UNL     1       6.220   1.409  20.528  0.00  0.00    +0.000 HD
ENDBRANCH  29  30
ENDBRANCH  22  24
ENDBRANCH   7  22
TORSDOF 6
ENDMDL
MODEL 5
REMARK VINA RESULT:      -7.4      1.224      1.374
REMARK  Name = 
REMARK  9 active torsions:
REMARK  status: ('A' for Active; 'I' for Inactive)
REMARK    1  A    between atoms: C_1  and  O_2
REMARK    2  A    between atoms: O_2  and  C_3
REMARK    3  A    between atoms: C_5  and  P_6
REMARK    4  A    between atoms: P_6  and  C_7
REMARK    5  A    between atoms: P_6  and  C_8
REMARK    6  A    between atoms: C_12  and  N_13
REMARK    7  A    between atoms: C_19  and  N_20
REMARK    8  A    between atoms: N_20  and  C_21
REMARK    9  A    between atoms: C_26  and  C_27
REMARK                            x       y       z     vdW  Elec       q    Type
REMARK                         _______ _______ _______ _____ _____    ______ ____
ROOT
ATOM      1  N   UNL     1       0.999   7.392  20.744  0.00  0.00    +0.000 N 
ATOM      2  C   UNL     1       1.824   6.346  20.351  0.00  0.00    +0.000 A 
ATOM      3  N   UNL     1       1.452   5.119  20.743  0.00  0.00    +0.000 NA
ATOM      4  C   UNL     1       2.294   4.103  20.437  0.00  0.00    +0.000 A 
ATOM      5  C   UNL     1       3.500   4.276  19.805  0.00  0.00    +0.000 A 
ATOM      6 CL   UNL     1       4.556   2.948  19.541  0.00  0.00    +0.000 Cl
ATOM      7  C   UNL     1       3.830   5.581  19.474  0.00  0.00    +0.000 A 
ATOM      8  N   UNL     1       2.980   6.598  19.718  0.00  0.00    +0.000 NA
ATOM      9  H   UNL     1       0.332   7.104  21.439  0.00  0.00    +0.000 HD
ENDROOT
BRANCH   1  15
ATOM     10  C   UNL     1       1.031   9.771  21.426  0.00  0.00    +0.000 A 
ATOM     11  C   UNL     1       1.084  11.120  21.053  0.00  0.00    +0.000 A 
ATOM     12  C   UNL     1       1.130  11.480  19.708  0.00  0.00    +0.000 A 
ATOM     13  C   UNL     1       1.201  10.477  18.735  0.00  0.00    +0.000 A 
ATOM     14  C   UNL     1       1.176   9.134  19.098  0.00  0.00    +0.000 A 
ATOM     15  C   UNL     1       1.093   8.758  20.445  0.00  0.00    +0.000 A 
BRANCH  12  16
ATOM     16  P   UNL     1       1.054  13.175  19.216  0.00  0.00    +0.000 P 
ATOM     17  C   UNL     1       2.372  13.448  18.026  0.00  0.00    +0.000 C 
ATOM     18  C   UNL     1      -0.484  13.380  18.302  0.00  0.00    +0.000 C 
ATOM     19  O   UNL     1       1.133  14.204  20.317  0.00  0.00    +0.000 OA
ENDBRANCH  12  16
BRANCH  10  21
ATOM     20  C   UNL     1      -0.222   9.569  23.406  0.00  0.00    +0.000 C 
ATOM     21  O   UNL     1       1.025   9.380  22.744  0.00  0.00    +0.000 OA
ENDBRANCH  10  21
ENDBRANCH   1  15
BRANCH   7  22
ATOM     22  N   UNL     1       5.046   5.891  18.811  0.00  0.00    +0.000 N 
ATOM     23  H   UNL     1       5.172   6.909  18.784  0.00  0.00    +0.000 HD
BRANCH  22  24
ATOM     24  C   UNL     1       5.437   5.360  17.547  0.00  0.00    +0.000 A 
ATOM     25  C   UNL     1       4.539   5.377  16.459  0.00  0.00    +0.000 A 
ATOM     26  C   UNL     1       4.929   4.982  15.179  0.00  0.00    +0.000 A 
ATOM     27  C   UNL     1       6.241   4.593  14.945  0.00  0.00    +0.000 A 
ATOM     28  C   UNL     1       7.153   4.574  15.999  0.00  0.00    +0.000 A 
ATOM     29  C   UNL     1       6.759   4.943  17.298  0.00  0.00    +0.000 A 
BRANCH  29  30
ATOM     30  C   UNL     1       7.798   4.813  18.360  0.00  0.00    +0.000 C 
ATOM     31  N   UNL     1       8.840   3.968  18.111  0.00  0.00    +0.000 N 
ATOM     32  O   UNL     1       7.753   5.474  19.389  0.00  0.00    +0.000 OA
ATOM     33  H   UNL     1       8.910   3.454  17.240  0.00  0.00    +0.000 HD
ATOM     34  H   UNL     1       9.598   3.929  18.778  0.00  0.00    +0.000 HD
ENDBRANCH  29  30
ENDBRANCH  22  24
ENDBRANCH   7  22
TORSDOF 6
ENDMDL
MODEL 6
REMARK VINA RESULT:      -7.4      1.105      1.162
REMARK  Name = 
REMARK  9 active torsions:
REMARK  status: ('A' for Active; 'I' for Inactive)
REMARK    1  A    between atoms: C_1  and  O_2
REMARK    2  A    between atoms: O_2  and  C_3
REMARK    3  A    between atoms: C_5  and  P_6
REMARK    4  A    between atoms: P_6  and  C_7
REMARK    5  A    between atoms: P_6  and  C_8
REMARK    6  A    between atoms: C_12  and  N_13
REMARK    7  A    between atoms: C_19  and  N_20
REMARK    8  A    between atoms: N_20  and  C_21
REMARK    9  A    between atoms: C_26  and  C_27
REMARK                            x       y       z     vdW  Elec       q    Type
REMARK                         _______ _______ _______ _____ _____    ______ ____
ROOT
ATOM      1  N   UNL     1       0.942   7.667  20.780  0.00  0.00    +0.000 N 
ATOM      2  C   UNL     1       1.794   6.656  20.352  0.00  0.00    +0.000 A 
ATOM      3  N   UNL     1       1.521   5.422  20.801  0.00  0.00    +0.000 NA
ATOM      4  C   UNL     1       2.394   4.445  20.458  0.00  0.00    +0.000 A 
ATOM      5  C   UNL     1       3.538   4.665  19.734  0.00  0.00    +0.000 A 
ATOM      6 CL   UNL     1       4.646   3.389  19.425  0.00  0.00    +0.000 Cl
ATOM      7  C   UNL     1       3.770   5.976  19.347  0.00  0.00    +0.000 A 
ATOM      8  N   UNL     1       2.885   6.952  19.629  0.00  0.00    +0.000 NA
ATOM      9  H   UNL     1       0.345   7.362  21.530  0.00  0.00    +0.000 HD
ENDROOT
BRANCH   1  15
ATOM     10  C   UNL     1       0.822  10.061  21.395  0.00  0.00    +0.000 A 
ATOM     11  C   UNL     1       0.776  11.399  20.984  0.00  0.00    +0.000 A 
ATOM     12  C   UNL     1       0.775  11.722  19.629  0.00  0.00    +0.000 A 
ATOM     13  C   UNL     1       0.899  10.698  18.683  0.00  0.00    +0.000 A 
ATOM     14  C   UNL     1       0.972   9.369  19.084  0.00  0.00    +0.000 A 
ATOM     15  C   UNL     1       0.938   9.026  20.441  0.00  0.00    +0.000 A 
BRANCH  12  16
ATOM     16  P   UNL     1       0.575  13.393  19.091  0.00  0.00    +0.000 P 
ATOM     17  C   UNL     1       0.335  14.403  20.557  0.00  0.00    +0.000 C 
ATOM     18  C   UNL     1       2.156  13.905  18.395  0.00  0.00    +0.000 C 
ATOM     19  O   UNL     1      -0.528  13.658  18.097  0.00  0.00    +0.000 OA
ENDBRANCH  12  16
BRANCH  10  21
ATOM     20  C   UNL     1      -0.396   9.766  23.386  0.00  0.00    +0.000 C 
ATOM     21  O   UNL     1       0.864   9.708  22.724  0.00  0.00    +0.000 OA
ENDBRANCH  10  21
ENDBRANCH   1  15
BRANCH   7  22
ATOM     22  N   UNL     1       4.914   6.333  18.588  0.00  0.00    +0.000 N 
ATOM     23  H   UNL     1       4.796   7.281  18.214  0.00  0.00    +0.000 HD
BRANCH  22  24
ATOM     24  C   UNL     1       5.496   5.521  17.571  0.00  0.00    +0.000 A 
ATOM     25  C   UNL     1       4.703   5.025  16.515  0.00  0.00    +0.000 A 
ATOM     26  C   UNL     1       5.261   4.334  15.439  0.00  0.00    +0.000 A 
ATOM     27  C   UNL     1       6.636   4.152  15.372  0.00  0.00    +0.000 A 
ATOM     28  C   UNL     1       7.447   4.639  16.396  0.00  0.00    +0.000 A 
ATOM     29  C   UNL     1       6.887   5.311  17.499  0.00  0.00    +0.000 A 
BRANCH  29  30
ATOM     30  C   UNL     1       7.841   5.721  18.568  0.00  0.00    +0.000 C 
ATOM     31  N   UNL     1       8.181   7.042  18.626  0.00  0.00    +0.000 N 
ATOM     32  O   UNL     1       8.264   4.925  19.395  0.00  0.00    +0.000 OA
ATOM     33  H   UNL     1       7.798   7.718  17.974  0.00  0.00    +0.000 HD
ATOM     34  H   UNL     1       8.758   7.357  19.393  0.00  0.00    +0.000 HD
ENDBRANCH  29  30
ENDBRANCH  22  24
ENDBRANCH   7  22
TORSDOF 6
ENDMDL
MODEL 7
REMARK VINA RESULT:      -7.3      1.561      2.094
REMARK  Name = 
REMARK  9 active torsions:
REMARK  status: ('A' for Active; 'I' for Inactive)
REMARK    1  A    between atoms: C_1  and  O_2
REMARK    2  A    between atoms: O_2  and  C_3
REMARK    3  A    between atoms: C_5  and  P_6
REMARK    4  A    between atoms: P_6  and  C_7
REMARK    5  A    between atoms: P_6  and  C_8
REMARK    6  A    between atoms: C_12  and  N_13
REMARK    7  A    between atoms: C_19  and  N_20
REMARK    8  A    between atoms: N_20  and  C_21
REMARK    9  A    between atoms: C_26  and  C_27
REMARK                            x       y       z     vdW  Elec       q    Type
REMARK                         _______ _______ _______ _____ _____    ______ ____
ROOT
ATOM      1  N   UNL     1       1.052   6.948  20.981  0.00  0.00    +0.000 N 
ATOM      2  C   UNL     1       1.626   5.823  20.401  0.00  0.00    +0.000 A 
ATOM      3  N   UNL     1       1.321   4.645  20.963  0.00  0.00    +0.000 NA
ATOM      4  C   UNL     1       1.941   3.552  20.458  0.00  0.00    +0.000 A 
ATOM      5  C   UNL     1       2.880   3.603  19.458  0.00  0.00    +0.000 A 
ATOM      6 CL   UNL     1       3.695   2.182  18.941  0.00  0.00    +0.000 Cl
ATOM      7  C   UNL     1       3.173   4.864  18.963  0.00  0.00    +0.000 A 
ATOM      8  N   UNL     1       2.524   5.957  19.412  0.00  0.00    +0.000 NA
ATOM      9  H   UNL     1       0.633   6.739  21.871  0.00  0.00    +0.000 HD
ENDROOT
BRANCH   1  15
ATOM     10  C   UNL     1       0.821   9.367  21.445  0.00  0.00    +0.000 A 
ATOM     11  C   UNL     1       0.883  10.685  20.975  0.00  0.00    +0.000 A 
ATOM     12  C   UNL     1       1.189  10.946  19.641  0.00  0.00    +0.000 A 
ATOM     13  C   UNL     1       1.512   9.880  18.794  0.00  0.00    +0.000 A 
ATOM     14  C   UNL     1       1.480   8.570  19.260  0.00  0.00    +0.000 A 
ATOM     15  C   UNL     1       1.138   8.290  20.589  0.00  0.00    +0.000 A 
BRANCH  12  16
ATOM     16  P   UNL     1       1.132  12.590  18.998  0.00  0.00    +0.000 P 
ATOM     17  C   UNL     1       1.251  13.716  20.392  0.00  0.00    +0.000 C 
ATOM     18  C   UNL     1       2.643  12.825  18.045  0.00  0.00    +0.000 C 
ATOM     19  O   UNL     1      -0.065  12.945  18.150  0.00  0.00    +0.000 OA
ENDBRANCH  12  16
BRANCH  10  21
ATOM     20  C   UNL     1      -0.480   9.858  23.342  0.00  0.00    +0.000 C 
ATOM     21  O   UNL     1       0.560   9.076  22.764  0.00  0.00    +0.000 OA
ENDBRANCH  10  21
ENDBRANCH   1  15
BRANCH   7  22
ATOM     22  N   UNL     1       4.120   5.049  17.923  0.00  0.00    +0.000 N 
ATOM     23  H   UNL     1       4.177   4.196  17.356  0.00  0.00    +0.000 HD
BRANCH  22  24
ATOM     24  C   UNL     1       5.441   5.549  18.111  0.00  0.00    +0.000 A 
ATOM     25  C   UNL     1       6.070   5.444  19.369  0.00  0.00    +0.000 A 
ATOM     26  C   UNL     1       7.404   5.809  19.557  0.00  0.00    +0.000 A 
ATOM     27  C   UNL     1       8.157   6.255  18.479  0.00  0.00    +0.000 A 
ATOM     28  C   UNL     1       7.566   6.360  17.221  0.00  0.00    +0.000 A 
ATOM     29  C   UNL     1       6.213   6.023  17.032  0.00  0.00    +0.000 A 
BRANCH  29  30
ATOM     30  C   UNL     1       5.668   6.246  15.662  0.00  0.00    +0.000 C 
ATOM     31  N   UNL     1       6.152   5.453  14.662  0.00  0.00    +0.000 N 
ATOM     32  O   UNL     1       4.785   7.066  15.446  0.00  0.00    +0.000 OA
ATOM     33  H   UNL     1       6.849   4.739  14.842  0.00  0.00    +0.000 HD
ATOM     34  H   UNL     1       5.737   5.529  13.744  0.00  0.00    +0.000 HD
ENDBRANCH  29  30
ENDBRANCH  22  24
ENDBRANCH   7  22
TORSDOF 6
ENDMDL
MODEL 8
REMARK VINA RESULT:      -7.2      4.609      9.054
REMARK  Name = 
REMARK  9 active torsions:
REMARK  status: ('A' for Active; 'I' for Inactive)
REMARK    1  A    between atoms: C_1  and  O_2
REMARK    2  A    between atoms: O_2  and  C_3
REMARK    3  A    between atoms: C_5  and  P_6
REMARK    4  A    between atoms: P_6  and  C_7
REMARK    5  A    between atoms: P_6  and  C_8
REMARK    6  A    between atoms: C_12  and  N_13
REMARK    7  A    between atoms: C_19  and  N_20
REMARK    8  A    between atoms: N_20  and  C_21
REMARK    9  A    between atoms: C_26  and  C_27
REMARK                            x       y       z     vdW  Elec       q    Type
REMARK                         _______ _______ _______ _____ _____    ______ ____
ROOT
ATOM      1  N   UNL     1       2.685   8.800  18.495  0.00  0.00    +0.000 N 
ATOM      2  C   UNL     1       1.887   9.934  18.404  0.00  0.00    +0.000 A 
ATOM      3  N   UNL     1       2.507  11.068  18.050  0.00  0.00    +0.000 NA
ATOM      4  C   UNL     1       1.755  12.194  18.041  0.00  0.00    +0.000 A 
ATOM      5  C   UNL     1       0.435  12.232  18.416  0.00  0.00    +0.000 A 
ATOM      6 CL   UNL     1      -0.423  13.719  18.473  0.00  0.00    +0.000 Cl
ATOM      7  C   UNL     1      -0.118  11.025  18.813  0.00  0.00    +0.000 A 
ATOM      8  N   UNL     1       0.597   9.884  18.773  0.00  0.00    +0.000 NA
ATOM      9  H   UNL     1       3.664   9.027  18.468  0.00  0.00    +0.000 HD
ENDROOT
BRANCH   1  15
ATOM     10  C   UNL     1       1.983   7.035  20.081  0.00  0.00    +0.000 A 
ATOM     11  C   UNL     1       1.674   5.688  20.310  0.00  0.00    +0.000 A 
ATOM     12  C   UNL     1       1.760   4.758  19.276  0.00  0.00    +0.000 A 
ATOM     13  C   UNL     1       2.084   5.198  17.988  0.00  0.00    +0.000 A 
ATOM     14  C   UNL     1       2.366   6.538  17.746  0.00  0.00    +0.000 A 
ATOM     15  C   UNL     1       2.319   7.478  18.784  0.00  0.00    +0.000 A 
BRANCH  12  16
ATOM     16  P   UNL     1       1.511   3.035  19.578  0.00  0.00    +0.000 P 
ATOM     17  C   UNL     1       2.996   2.177  19.045  0.00  0.00    +0.000 C 
ATOM     18  C   UNL     1       1.438   2.829  21.366  0.00  0.00    +0.000 C 
ATOM     19  O   UNL     1       0.296   2.405  18.943  0.00  0.00    +0.000 OA
ENDBRANCH  12  16
BRANCH  10  21
ATOM     20  C   UNL     1       0.550   8.156  21.571  0.00  0.00    +0.000 C 
ATOM     21  O   UNL     1       1.872   7.985  21.069  0.00  0.00    +0.000 OA
ENDBRANCH  10  21
ENDBRANCH   1  15
BRANCH   7  22
ATOM     22  N   UNL     1      -1.475  10.931  19.217  0.00  0.00    +0.000 N 
ATOM     23  H   UNL     1      -1.630  10.036  19.695  0.00  0.00    +0.000 HD
BRANCH  22  24
ATOM     24  C   UNL     1      -2.592  11.181  18.367  0.00  0.00    +0.000 A 
ATOM     25  C   UNL     1      -2.633  10.637  17.066  0.00  0.00    +0.000 A 
ATOM     26  C   UNL     1      -3.762  10.757  16.255  0.00  0.00    +0.000 A 
ATOM     27  C   UNL     1      -4.896  11.393  16.738  0.00  0.00    +0.000 A 
ATOM     28  C   UNL     1      -4.890  11.932  18.024  0.00  0.00    +0.000 A 
ATOM     29  C   UNL     1      -3.745  11.842  18.836  0.00  0.00    +0.000 A 
BRANCH  29  30
ATOM     30  C   UNL     1      -3.826  12.519  20.162  0.00  0.00    +0.000 C 
ATOM     31  N   UNL     1      -5.065  12.646  20.721  0.00  0.00    +0.000 N 
ATOM     32  O   UNL     1      -2.825  12.898  20.754  0.00  0.00    +0.000 OA
ATOM     33  H   UNL     1      -5.895  12.292  20.259  0.00  0.00    +0.000 HD
ATOM     34  H   UNL     1      -5.135  13.025  21.655  0.00  0.00    +0.000 HD
ENDBRANCH  29  30
ENDBRANCH  22  24
ENDBRANCH   7  22
TORSDOF 6
ENDMDL
MODEL 9
REMARK VINA RESULT:      -7.1      3.873      8.146
REMARK  Name = 
REMARK  9 active torsions:
REMARK  status: ('A' for Active; 'I' for Inactive)
REMARK    1  A    between atoms: C_1  and  O_2
REMARK    2  A    between atoms: O_2  and  C_3
REMARK    3  A    between atoms: C_5  and  P_6
REMARK    4  A    between atoms: P_6  and  C_7
REMARK    5  A    between atoms: P_6  and  C_8
REMARK    6  A    between atoms: C_12  and  N_13
REMARK    7  A    between atoms: C_19  and  N_20
REMARK    8  A    between atoms: N_20  and  C_21
REMARK    9  A    between atoms: C_26  and  C_27
REMARK                            x       y       z     vdW  Elec       q    Type
REMARK                         _______ _______ _______ _____ _____    ______ ____
ROOT
ATOM      1  N   UNL     1       1.860   7.004  20.932  0.00  0.00    +0.000 N 
ATOM      2  C   UNL     1       1.130   8.154  21.205  0.00  0.00    +0.000 A 
ATOM      3  N   UNL     1       0.563   8.221  22.419  0.00  0.00    +0.000 NA
ATOM      4  C   UNL     1      -0.219   9.299  22.664  0.00  0.00    +0.000 A 
ATOM      5  C   UNL     1      -0.490  10.272  21.734  0.00  0.00    +0.000 A 
ATOM      6 CL   UNL     1      -1.574  11.556  22.092  0.00  0.00    +0.000 Cl
ATOM      7  C   UNL     1       0.098  10.103  20.491  0.00  0.00    +0.000 A 
ATOM      8  N   UNL     1       0.926   9.069  20.245  0.00  0.00    +0.000 NA
ATOM      9  H   UNL     1       1.703   6.287  21.619  0.00  0.00    +0.000 HD
ENDROOT
BRANCH   1  15
ATOM     10  C   UNL     1       3.237   5.426  19.614  0.00  0.00    +0.000 A 
ATOM     11  C   UNL     1       4.004   5.179  18.468  0.00  0.00    +0.000 A 
ATOM     12  C   UNL     1       4.205   6.182  17.522  0.00  0.00    +0.000 A 
ATOM     13  C   UNL     1       3.568   7.416  17.691  0.00  0.00    +0.000 A 
ATOM     14  C   UNL     1       2.783   7.661  18.812  0.00  0.00    +0.000 A 
ATOM     15  C   UNL     1       2.602   6.674  19.790  0.00  0.00    +0.000 A 
BRANCH  12  16
ATOM     16  P   UNL     1       5.283   5.932  16.145  0.00  0.00    +0.000 P 
ATOM     17  C   UNL     1       6.968   6.046  16.755  0.00  0.00    +0.000 C 
ATOM     18  C   UNL     1       5.064   4.223  15.621  0.00  0.00    +0.000 C 
ATOM     19  O   UNL     1       5.100   6.854  14.965  0.00  0.00    +0.000 OA
ENDBRANCH  12  16
BRANCH  10  21
ATOM     20  C   UNL     1       3.368   3.137  20.140  0.00  0.00    +0.000 C 
ATOM     21  O   UNL     1       2.987   4.448  20.547  0.00  0.00    +0.000 OA
ENDBRANCH  10  21
ENDBRANCH   1  15
BRANCH   7  22
ATOM     22  N   UNL     1      -0.098  11.044  19.446  0.00  0.00    +0.000 N 
ATOM     23  H   UNL     1      -0.079  11.995  19.833  0.00  0.00    +0.000 HD
BRANCH  22  24
ATOM     24  C   UNL     1      -1.146  10.977  18.482  0.00  0.00    +0.000 A 
ATOM     25  C   UNL     1      -1.193   9.914  17.556  0.00  0.00    +0.000 A 
ATOM     26  C   UNL     1      -2.269   9.749  16.682  0.00  0.00    +0.000 A 
ATOM     27  C   UNL     1      -3.345  10.624  16.736  0.00  0.00    +0.000 A 
ATOM     28  C   UNL     1      -3.330  11.679  17.647  0.00  0.00    +0.000 A 
ATOM     29  C   UNL     1      -2.236  11.869  18.510  0.00  0.00    +0.000 A 
BRANCH  29  30
ATOM     30  C   UNL     1      -2.295  13.072  19.389  0.00  0.00    +0.000 C 
ATOM     31  N   UNL     1      -3.505  13.383  19.938  0.00  0.00    +0.000 N 
ATOM     32  O   UNL     1      -1.295  13.726  19.654  0.00  0.00    +0.000 OA
ATOM     33  H   UNL     1      -4.329  12.818  19.763  0.00  0.00    +0.000 HD
ATOM     34  H   UNL     1      -3.551  14.142  20.603  0.00  0.00    +0.000 HD
ENDBRANCH  29  30
ENDBRANCH  22  24
ENDBRANCH   7  22
TORSDOF 6
ENDMDL
