MODEL 1
REMARK VINA RESULT:      -7.8      0.000      0.000
REMARK  Name = 
REMARK  5 active torsions:
REMARK  status: ('A' for Active; 'I' for Inactive)
REMARK    1  A    between atoms: C_1  and  C_2
REMARK    2  A    between atoms: C_4  and  C_5
REMARK    3  A    between atoms: C_11  and  O_12
REMARK    4  A    between atoms: O_12  and  C_13
REMARK    5  A    between atoms: C_13  and  C_14
REMARK                            x       y       z     vdW  Elec       q    Type
REMARK                         _______ _______ _______ _____ _____    ______ ____
ROOT
ATOM      1  C   UNL     1       6.344   4.256  13.518  0.00  0.00    +0.000 A 
ATOM      2  N   UNL     1       7.418   4.987  13.284  0.00  0.00    +0.000 NA
ATOM      3  N   UNL     1       7.831   5.532  14.476  0.00  0.00    +0.000 NA
ATOM      4  C   UNL     1       7.009   5.113  15.414  0.00  0.00    +0.000 A 
ATOM      5  C   UNL     1       6.988   5.345  16.819  0.00  0.00    +0.000 A 
ATOM      6  C   UNL     1       6.062   4.687  17.554  0.00  0.00    +0.000 A 
ATOM      7  C   UNL     1       5.065   3.877  16.796  0.00  0.00    +0.000 A 
ATOM      8  N   UNL     1       5.039   3.659  15.525  0.00  0.00    +0.000 NA
ATOM      9  N   UNL     1       6.049   4.289  14.863  0.00  0.00    +0.000 N 
ATOM     10  C   UNL     1       5.986   4.760  19.056  0.00  0.00    +0.000 C 
ATOM     11  C   UNL     1       7.197   5.453  19.690  0.00  0.00    +0.000 C 
ATOM     12  C   UNL     1       7.589   6.691  18.897  0.00  0.00    +0.000 C 
ATOM     13  C   UNL     1       7.969   6.302  17.469  0.00  0.00    +0.000 C 
ENDROOT
BRANCH   1  17
ATOM     14  C   UNL     1       3.004   2.780   9.983  0.00  0.00    +0.000 C 
ATOM     15  C   UNL     1       4.087   2.980  10.959  0.00  0.00    +0.000 A 
ATOM     16  C   UNL     1       4.389   3.958  11.871  0.00  0.00    +0.000 A 
ATOM     17  C   UNL     1       5.597   3.520  12.465  0.00  0.00    +0.000 A 
ATOM     18  N   UNL     1       5.992   2.353  11.947  0.00  0.00    +0.000 NA
ATOM     19  O   UNL     1       5.038   2.011  11.009  0.00  0.00    +0.000 OA
ENDBRANCH   1  17
BRANCH   7  20
ATOM     20  O   UNL     1       4.111   3.380  17.617  0.00  0.00    +0.000 OA
BRANCH  20  21
ATOM     21  C   UNL     1       2.764   3.836  17.364  0.00  0.00    +0.000 C 
BRANCH  21  22
ATOM     22  C   UNL     1       2.338   4.733  18.503  0.00  0.00    +0.000 A 
ATOM     23  C   UNL     1       1.692   4.200  19.616  0.00  0.00    +0.000 A 
ATOM     24  C   UNL     1       1.391   5.038  20.687  0.00  0.00    +0.000 A 
ATOM     25  C   UNL     1       1.732   6.384  20.617  0.00  0.00    +0.000 A 
ATOM     26  C   UNL     1       2.351   6.841  19.467  0.00  0.00    +0.000 A 
ATOM     27  N   UNL     1       2.664   6.050  18.417  0.00  0.00    +0.000 NA
ENDBRANCH  21  22
ENDBRANCH  20  21
ENDBRANCH   7  20
TORSDOF 4
ENDMDL
MODEL 2
REMARK VINA RESULT:      -7.8      4.195      6.111
REMARK  Name = 
REMARK  5 active torsions:
REMARK  status: ('A' for Active; 'I' for Inactive)
REMARK    1  A    between atoms: C_1  and  C_2
REMARK    2  A    between atoms: C_4  and  C_5
REMARK    3  A    between atoms: C_11  and  O_12
REMARK    4  A    between atoms: O_12  and  C_13
REMARK    5  A    between atoms: C_13  and  C_14
REMARK                            x       y       z     vdW  Elec       q    Type
REMARK                         _______ _______ _______ _____ _____    ______ ____
ROOT
ATOM      1  C   UNL     1       6.827   6.083  18.167  0.00  0.00    +0.000 A 
ATOM      2  N   UNL     1       7.494   4.954  18.320  0.00  0.00    +0.000 NA
ATOM      3  N   UNL     1       6.582   3.937  18.465  0.00  0.00    +0.000 NA
ATOM      4  C   UNL     1       5.378   4.463  18.383  0.00  0.00    +0.000 A 
ATOM      5  C   UNL     1       4.086   3.867  18.437  0.00  0.00    +0.000 A 
ATOM      6  C   UNL     1       3.015   4.665  18.219  0.00  0.00    +0.000 A 
ATOM      7  C   UNL     1       3.290   6.124  18.072  0.00  0.00    +0.000 A 
ATOM      8  N   UNL     1       4.443   6.702  18.039  0.00  0.00    +0.000 NA
ATOM      9  N   UNL     1       5.475   5.825  18.184  0.00  0.00    +0.000 N 
ATOM     10  C   UNL     1       1.600   4.156  18.149  0.00  0.00    +0.000 C 
ATOM     11  C   UNL     1       1.507   2.627  18.106  0.00  0.00    +0.000 C 
ATOM     12  C   UNL     1       2.483   1.998  19.090  0.00  0.00    +0.000 C 
ATOM     13  C   UNL     1       3.916   2.390  18.731  0.00  0.00    +0.000 C 
ENDROOT
BRANCH   1  17
ATOM     14  C   UNL     1       9.614  10.297  18.719  0.00  0.00    +0.000 C 
ATOM     15  C   UNL     1       8.719   9.192  18.343  0.00  0.00    +0.000 A 
ATOM     16  C   UNL     1       8.378   7.995  18.919  0.00  0.00    +0.000 A 
ATOM     17  C   UNL     1       7.474   7.411  17.999  0.00  0.00    +0.000 A 
ATOM     18  N   UNL     1       7.280   8.208  16.944  0.00  0.00    +0.000 NA
ATOM     19  O   UNL     1       8.054   9.329  17.166  0.00  0.00    +0.000 OA
ENDBRANCH   1  17
BRANCH   7  20
ATOM     20  O   UNL     1       2.141   6.835  18.000  0.00  0.00    +0.000 OA
BRANCH  20  21
ATOM     21  C   UNL     1       2.281   8.268  18.104  0.00  0.00    +0.000 C 
BRANCH  21  22
ATOM     22  C   UNL     1       1.478   8.744  19.293  0.00  0.00    +0.000 A 
ATOM     23  C   UNL     1       1.589   8.097  20.522  0.00  0.00    +0.000 A 
ATOM     24  C   UNL     1       0.903   8.612  21.620  0.00  0.00    +0.000 A 
ATOM     25  C   UNL     1       0.119   9.749  21.462  0.00  0.00    +0.000 A 
ATOM     26  C   UNL     1       0.041  10.318  20.203  0.00  0.00    +0.000 A 
ATOM     27  N   UNL     1       0.702   9.847  19.123  0.00  0.00    +0.000 NA
ENDBRANCH  21  22
ENDBRANCH  20  21
ENDBRANCH   7  20
TORSDOF 4
ENDMDL
MODEL 3
REMARK VINA RESULT:      -7.7      1.147      1.380
REMARK  Name = 
REMARK  5 active torsions:
REMARK  status: ('A' for Active; 'I' for Inactive)
REMARK    1  A    between atoms: C_1  and  C_2
REMARK    2  A    between atoms: C_4  and  C_5
REMARK    3  A    between atoms: C_11  and  O_12
REMARK    4  A    between atoms: O_12  and  C_13
REMARK    5  A    between atoms: C_13  and  C_14
REMARK                            x       y       z     vdW  Elec       q    Type
REMARK                         _______ _______ _______ _____ _____    ______ ____
ROOT
ATOM      1  C   UNL     1       6.425   4.305  13.495  0.00  0.00    +0.000 A 
ATOM      2  N   UNL     1       7.409   5.139  13.213  0.00  0.00    +0.000 NA
ATOM      3  N   UNL     1       7.826   5.719  14.386  0.00  0.00    +0.000 NA
ATOM      4  C   UNL     1       7.098   5.217  15.362  0.00  0.00    +0.000 A 
ATOM      5  C   UNL     1       7.126   5.443  16.768  0.00  0.00    +0.000 A 
ATOM      6  C   UNL     1       6.308   4.694  17.542  0.00  0.00    +0.000 A 
ATOM      7  C   UNL     1       5.358   3.791  16.829  0.00  0.00    +0.000 A 
ATOM      8  N   UNL     1       5.289   3.576  15.560  0.00  0.00    +0.000 NA
ATOM      9  N   UNL     1       6.197   4.305  14.853  0.00  0.00    +0.000 N 
ATOM     10  C   UNL     1       6.301   4.755  19.047  0.00  0.00    +0.000 C 
ATOM     11  C   UNL     1       7.469   5.562  19.625  0.00  0.00    +0.000 C 
ATOM     12  C   UNL     1       7.697   6.835  18.823  0.00  0.00    +0.000 C 
ATOM     13  C   UNL     1       8.040   6.489  17.375  0.00  0.00    +0.000 C 
ENDROOT
BRANCH   1  17
ATOM     14  C   UNL     1       3.106   2.553  10.068  0.00  0.00    +0.000 C 
ATOM     15  C   UNL     1       4.196   2.839  11.014  0.00  0.00    +0.000 A 
ATOM     16  C   UNL     1       4.457   3.854  11.898  0.00  0.00    +0.000 A 
ATOM     17  C   UNL     1       5.701   3.501  12.475  0.00  0.00    +0.000 A 
ATOM     18  N   UNL     1       6.154   2.348  11.973  0.00  0.00    +0.000 NA
ATOM     19  O   UNL     1       5.203   1.929  11.064  0.00  0.00    +0.000 OA
ENDBRANCH   1  17
BRANCH   7  20
ATOM     20  O   UNL     1       4.500   3.201  17.693  0.00  0.00    +0.000 OA
BRANCH  20  21
ATOM     21  C   UNL     1       3.145   3.698  17.672  0.00  0.00    +0.000 C 
BRANCH  21  22
ATOM     22  C   UNL     1       2.549   3.527  19.051  0.00  0.00    +0.000 A 
ATOM     23  C   UNL     1       1.265   3.992  19.326  0.00  0.00    +0.000 A 
ATOM     24  C   UNL     1       0.711   3.742  20.579  0.00  0.00    +0.000 A 
ATOM     25  C   UNL     1       1.453   3.045  21.526  0.00  0.00    +0.000 A 
ATOM     26  C   UNL     1       2.729   2.638  21.184  0.00  0.00    +0.000 A 
ATOM     27  N   UNL     1       3.289   2.857  19.974  0.00  0.00    +0.000 NA
ENDBRANCH  21  22
ENDBRANCH  20  21
ENDBRANCH   7  20
TORSDOF 4
ENDMDL
MODEL 4
REMARK VINA RESULT:      -7.6      2.819      4.786
REMARK  Name = 
REMARK  5 active torsions:
REMARK  status: ('A' for Active; 'I' for Inactive)
REMARK    1  A    between atoms: C_1  and  C_2
REMARK    2  A    between atoms: C_4  and  C_5
REMARK    3  A    between atoms: C_11  and  O_12
REMARK    4  A    between atoms: O_12  and  C_13
REMARK    5  A    between atoms: C_13  and  C_14
REMARK                            x       y       z     vdW  Elec       q    Type
REMARK                         _______ _______ _______ _____ _____    ______ ____
ROOT
ATOM      1  C   UNL     1       5.331   3.713  16.371  0.00  0.00    +0.000 A 
ATOM      2  N   UNL     1       5.157   2.405  16.418  0.00  0.00    +0.000 NA
ATOM      3  N   UNL     1       4.241   2.133  17.405  0.00  0.00    +0.000 NA
ATOM      4  C   UNL     1       3.865   3.280  17.931  0.00  0.00    +0.000 A 
ATOM      5  C   UNL     1       2.925   3.581  18.958  0.00  0.00    +0.000 A 
ATOM      6  C   UNL     1       2.673   4.884  19.219  0.00  0.00    +0.000 A 
ATOM      7  C   UNL     1       3.507   5.883  18.489  0.00  0.00    +0.000 A 
ATOM      8  N   UNL     1       4.380   5.649  17.569  0.00  0.00    +0.000 NA
ATOM      9  N   UNL     1       4.521   4.320  17.304  0.00  0.00    +0.000 N 
ATOM     10  C   UNL     1       1.636   5.349  20.207  0.00  0.00    +0.000 C 
ATOM     11  C   UNL     1       0.729   4.220  20.708  0.00  0.00    +0.000 C 
ATOM     12  C   UNL     1       1.539   2.965  21.005  0.00  0.00    +0.000 C 
ATOM     13  C   UNL     1       2.234   2.477  19.734  0.00  0.00    +0.000 C 
ENDROOT
BRANCH   1  17
ATOM     14  C   UNL     1       7.834   5.387  12.276  0.00  0.00    +0.000 C 
ATOM     15  C   UNL     1       7.280   5.045  13.596  0.00  0.00    +0.000 A 
ATOM     16  C   UNL     1       6.274   4.221  14.031  0.00  0.00    +0.000 A 
ATOM     17  C   UNL     1       6.267   4.391  15.436  0.00  0.00    +0.000 A 
ATOM     18  N   UNL     1       7.211   5.256  15.821  0.00  0.00    +0.000 NA
ATOM     19  O   UNL     1       7.852   5.658  14.665  0.00  0.00    +0.000 OA
ENDBRANCH   1  17
BRANCH   7  20
ATOM     20  O   UNL     1       3.266   7.139  18.930  0.00  0.00    +0.000 OA
BRANCH  20  21
ATOM     21  C   UNL     1       2.704   8.049  17.960  0.00  0.00    +0.000 C 
BRANCH  21  22
ATOM     22  C   UNL     1       1.620   8.859  18.633  0.00  0.00    +0.000 A 
ATOM     23  C   UNL     1       0.746   9.634  17.873  0.00  0.00    +0.000 A 
ATOM     24  C   UNL     1      -0.297  10.299  18.513  0.00  0.00    +0.000 A 
ATOM     25  C   UNL     1      -0.435  10.183  19.891  0.00  0.00    +0.000 A 
ATOM     26  C   UNL     1       0.487   9.413  20.577  0.00  0.00    +0.000 A 
ATOM     27  N   UNL     1       1.503   8.750  19.982  0.00  0.00    +0.000 NA
ENDBRANCH  21  22
ENDBRANCH  20  21
ENDBRANCH   7  20
TORSDOF 4
ENDMDL
MODEL 5
REMARK VINA RESULT:      -7.6      4.227      6.248
REMARK  Name = 
REMARK  5 active torsions:
REMARK  status: ('A' for Active; 'I' for Inactive)
REMARK    1  A    between atoms: C_1  and  C_2
REMARK    2  A    between atoms: C_4  and  C_5
REMARK    3  A    between atoms: C_11  and  O_12
REMARK    4  A    between atoms: O_12  and  C_13
REMARK    5  A    between atoms: C_13  and  C_14
REMARK                            x       y       z     vdW  Elec       q    Type
REMARK                         _______ _______ _______ _____ _____    ______ ____
ROOT
ATOM      1  C   UNL     1       6.932   6.174  18.195  0.00  0.00    +0.000 A 
ATOM      2  N   UNL     1       7.616   5.051  18.313  0.00  0.00    +0.000 NA
ATOM      3  N   UNL     1       6.720   4.016  18.427  0.00  0.00    +0.000 NA
ATOM      4  C   UNL     1       5.508   4.527  18.363  0.00  0.00    +0.000 A 
ATOM      5  C   UNL     1       4.225   3.910  18.400  0.00  0.00    +0.000 A 
ATOM      6  C   UNL     1       3.142   4.698  18.209  0.00  0.00    +0.000 A 
ATOM      7  C   UNL     1       3.395   6.165  18.107  0.00  0.00    +0.000 A 
ATOM      8  N   UNL     1       4.538   6.761  18.090  0.00  0.00    +0.000 NA
ATOM      9  N   UNL     1       5.584   5.896  18.206  0.00  0.00    +0.000 N 
ATOM     10  C   UNL     1       1.734   4.170  18.126  0.00  0.00    +0.000 C 
ATOM     11  C   UNL     1       1.665   2.642  18.035  0.00  0.00    +0.000 C 
ATOM     12  C   UNL     1       2.652   1.997  18.997  0.00  0.00    +0.000 C 
ATOM     13  C   UNL     1       4.078   2.422  18.649  0.00  0.00    +0.000 C 
ENDROOT
BRANCH   1  17
ATOM     14  C   UNL     1       9.679  10.399  18.857  0.00  0.00    +0.000 C 
ATOM     15  C   UNL     1       8.789   9.298  18.457  0.00  0.00    +0.000 A 
ATOM     16  C   UNL     1       8.476   8.074  18.990  0.00  0.00    +0.000 A 
ATOM     17  C   UNL     1       7.558   7.517  18.068  0.00  0.00    +0.000 A 
ATOM     18  N   UNL     1       7.330   8.353  17.051  0.00  0.00    +0.000 NA
ATOM     19  O   UNL     1       8.095   9.475  17.302  0.00  0.00    +0.000 OA
ENDBRANCH   1  17
BRANCH   7  20
ATOM     20  O   UNL     1       2.235   6.860  18.059  0.00  0.00    +0.000 OA
BRANCH  20  21
ATOM     21  C   UNL     1       2.361   8.277  17.811  0.00  0.00    +0.000 C 
BRANCH  21  22
ATOM     22  C   UNL     1       1.423   9.012  18.740  0.00  0.00    +0.000 A 
ATOM     23  C   UNL     1       0.553   9.981  18.241  0.00  0.00    +0.000 A 
ATOM     24  C   UNL     1      -0.360  10.578  19.107  0.00  0.00    +0.000 A 
ATOM     25  C   UNL     1      -0.375  10.203  20.446  0.00  0.00    +0.000 A 
ATOM     26  C   UNL     1       0.536   9.252  20.868  0.00  0.00    +0.000 A 
ATOM     27  N   UNL     1       1.426   8.649  20.049  0.00  0.00    +0.000 NA
ENDBRANCH  21  22
ENDBRANCH  20  21
ENDBRANCH   7  20
TORSDOF 4
ENDMDL
MODEL 6
REMARK VINA RESULT:      -7.6      1.451      1.597
REMARK  Name = 
REMARK  5 active torsions:
REMARK  status: ('A' for Active; 'I' for Inactive)
REMARK    1  A    between atoms: C_1  and  C_2
REMARK    2  A    between atoms: C_4  and  C_5
REMARK    3  A    between atoms: C_11  and  O_12
REMARK    4  A    between atoms: O_12  and  C_13
REMARK    5  A    between atoms: C_13  and  C_14
REMARK                            x       y       z     vdW  Elec       q    Type
REMARK                         _______ _______ _______ _____ _____    ______ ____
ROOT
ATOM      1  C   UNL     1       6.258   4.173  13.431  0.00  0.00    +0.000 A 
ATOM      2  N   UNL     1       7.454   4.698  13.239  0.00  0.00    +0.000 NA
ATOM      3  N   UNL     1       7.875   5.246  14.426  0.00  0.00    +0.000 NA
ATOM      4  C   UNL     1       6.934   5.033  15.321  0.00  0.00    +0.000 A 
ATOM      5  C   UNL     1       6.862   5.360  16.706  0.00  0.00    +0.000 A 
ATOM      6  C   UNL     1       5.791   4.916  17.403  0.00  0.00    +0.000 A 
ATOM      7  C   UNL     1       4.721   4.234  16.618  0.00  0.00    +0.000 A 
ATOM      8  N   UNL     1       4.741   3.938  15.363  0.00  0.00    +0.000 NA
ATOM      9  N   UNL     1       5.885   4.346  14.745  0.00  0.00    +0.000 N 
ATOM     10  C   UNL     1       5.630   5.102  18.889  0.00  0.00    +0.000 C 
ATOM     11  C   UNL     1       6.897   5.624  19.574  0.00  0.00    +0.000 C 
ATOM     12  C   UNL     1       7.546   6.724  18.745  0.00  0.00    +0.000 C 
ATOM     13  C   UNL     1       7.946   6.181  17.374  0.00  0.00    +0.000 C 
ENDROOT
BRANCH   1  17
ATOM     14  C   UNL     1       2.858   2.985   9.845  0.00  0.00    +0.000 C 
ATOM     15  C   UNL     1       3.939   3.092  10.837  0.00  0.00    +0.000 A 
ATOM     16  C   UNL     1       4.310   4.042  11.754  0.00  0.00    +0.000 A 
ATOM     17  C   UNL     1       5.466   3.502  12.366  0.00  0.00    +0.000 A 
ATOM     18  N   UNL     1       5.767   2.305  11.855  0.00  0.00    +0.000 NA
ATOM     19  O   UNL     1       4.802   2.045  10.902  0.00  0.00    +0.000 OA
ENDBRANCH   1  17
BRANCH   7  20
ATOM     20  O   UNL     1       3.645   3.959  17.390  0.00  0.00    +0.000 OA
BRANCH  20  21
ATOM     21  C   UNL     1       3.564   2.611  17.901  0.00  0.00    +0.000 C 
BRANCH  21  22
ATOM     22  C   UNL     1       2.772   2.632  19.189  0.00  0.00    +0.000 A 
ATOM     23  C   UNL     1       3.418   2.487  20.415  0.00  0.00    +0.000 A 
ATOM     24  C   UNL     1       2.673   2.598  21.587  0.00  0.00    +0.000 A 
ATOM     25  C   UNL     1       1.307   2.840  21.506  0.00  0.00    +0.000 A 
ATOM     26  C   UNL     1       0.736   2.949  20.250  0.00  0.00    +0.000 A 
ATOM     27  N   UNL     1       1.435   2.855  19.097  0.00  0.00    +0.000 NA
ENDBRANCH  21  22
ENDBRANCH  20  21
ENDBRANCH   7  20
TORSDOF 4
ENDMDL
MODEL 7
REMARK VINA RESULT:      -7.3      3.760      7.644
REMARK  Name = 
REMARK  5 active torsions:
REMARK  status: ('A' for Active; 'I' for Inactive)
REMARK    1  A    between atoms: C_1  and  C_2
REMARK    2  A    between atoms: C_4  and  C_5
REMARK    3  A    between atoms: C_11  and  O_12
REMARK    4  A    between atoms: O_12  and  C_13
REMARK    5  A    between atoms: C_13  and  C_14
REMARK                            x       y       z     vdW  Elec       q    Type
REMARK                         _______ _______ _______ _____ _____    ______ ____
ROOT
ATOM      1  C   UNL     1       1.668   8.483  19.704  0.00  0.00    +0.000 A 
ATOM      2  N   UNL     1       1.044   8.320  20.857  0.00  0.00    +0.000 NA
ATOM      3  N   UNL     1       1.171   7.003  21.227  0.00  0.00    +0.000 NA
ATOM      4  C   UNL     1       1.881   6.393  20.302  0.00  0.00    +0.000 A 
ATOM      5  C   UNL     1       2.330   5.046  20.198  0.00  0.00    +0.000 A 
ATOM      6  C   UNL     1       3.142   4.730  19.162  0.00  0.00    +0.000 A 
ATOM      7  C   UNL     1       3.381   5.803  18.153  0.00  0.00    +0.000 A 
ATOM      8  N   UNL     1       2.975   7.026  18.202  0.00  0.00    +0.000 NA
ATOM      9  N   UNL     1       2.232   7.289  19.313  0.00  0.00    +0.000 N 
ATOM     10  C   UNL     1       3.770   3.374  18.980  0.00  0.00    +0.000 C 
ATOM     11  C   UNL     1       3.601   2.461  20.199  0.00  0.00    +0.000 C 
ATOM     12  C   UNL     1       2.191   2.566  20.764  0.00  0.00    +0.000 C 
ATOM     13  C   UNL     1       1.911   4.000  21.212  0.00  0.00    +0.000 C 
ENDROOT
BRANCH   1  17
ATOM     14  C   UNL     1       1.406  13.367  18.323  0.00  0.00    +0.000 C 
ATOM     15  C   UNL     1       1.571  11.914  18.482  0.00  0.00    +0.000 A 
ATOM     16  C   UNL     1       1.303  11.022  19.489  0.00  0.00    +0.000 A 
ATOM     17  C   UNL     1       1.734   9.776  18.973  0.00  0.00    +0.000 A 
ATOM     18  N   UNL     1       2.222   9.909  17.736  0.00  0.00    +0.000 NA
ATOM     19  O   UNL     1       2.110  11.250  17.426  0.00  0.00    +0.000 OA
ENDBRANCH   1  17
BRANCH   7  20
ATOM     20  O   UNL     1       4.087   5.335  17.098  0.00  0.00    +0.000 OA
BRANCH  20  21
ATOM     21  C   UNL     1       4.893   6.309  16.399  0.00  0.00    +0.000 C 
BRANCH  21  22
ATOM     22  C   UNL     1       6.096   6.637  17.253  0.00  0.00    +0.000 A 
ATOM     23  C   UNL     1       6.590   5.704  18.163  0.00  0.00    +0.000 A 
ATOM     24  C   UNL     1       7.751   6.003  18.872  0.00  0.00    +0.000 A 
ATOM     25  C   UNL     1       8.383   7.224  18.663  0.00  0.00    +0.000 A 
ATOM     26  C   UNL     1       7.816   8.106  17.760  0.00  0.00    +0.000 A 
ATOM     27  N   UNL     1       6.697   7.840  17.052  0.00  0.00    +0.000 NA
ENDBRANCH  21  22
ENDBRANCH  20  21
ENDBRANCH   7  20
TORSDOF 4
ENDMDL
MODEL 8
REMARK VINA RESULT:      -7.3      7.545     11.540
REMARK  Name = 
REMARK  5 active torsions:
REMARK  status: ('A' for Active; 'I' for Inactive)
REMARK    1  A    between atoms: C_1  and  C_2
REMARK    2  A    between atoms: C_4  and  C_5
REMARK    3  A    between atoms: C_11  and  O_12
REMARK    4  A    between atoms: O_12  and  C_13
REMARK    5  A    between atoms: C_13  and  C_14
REMARK                            x       y       z     vdW  Elec       q    Type
REMARK                         _______ _______ _______ _____ _____    ______ ____
ROOT
ATOM      1  C   UNL     1      -0.519  10.870  22.729  0.00  0.00    +0.000 A 
ATOM      2  N   UNL     1      -0.012   9.984  23.567  0.00  0.00    +0.000 NA
ATOM      3  N   UNL     1       0.695   9.062  22.835  0.00  0.00    +0.000 NA
ATOM      4  C   UNL     1       0.618   9.411  21.568  0.00  0.00    +0.000 A 
ATOM      5  C   UNL     1       1.184   8.831  20.397  0.00  0.00    +0.000 A 
ATOM      6  C   UNL     1       1.008   9.481  19.224  0.00  0.00    +0.000 A 
ATOM      7  C   UNL     1       0.122  10.682  19.255  0.00  0.00    +0.000 A 
ATOM      8  N   UNL     1      -0.423  11.224  20.290  0.00  0.00    +0.000 NA
ATOM      9  N   UNL     1      -0.135  10.560  21.444  0.00  0.00    +0.000 N 
ATOM     10  C   UNL     1       1.629   9.038  17.926  0.00  0.00    +0.000 C 
ATOM     11  C   UNL     1       2.670   7.927  18.101  0.00  0.00    +0.000 C 
ATOM     12  C   UNL     1       2.185   6.882  19.096  0.00  0.00    +0.000 C 
ATOM     13  C   UNL     1       1.953   7.526  20.463  0.00  0.00    +0.000 C 
ENDROOT
BRANCH   1  17
ATOM     14  C   UNL     1      -4.371  13.906  24.061  0.00  0.00    +0.000 C 
ATOM     15  C   UNL     1      -3.109  13.240  23.705  0.00  0.00    +0.000 A 
ATOM     16  C   UNL     1      -2.774  11.976  23.290  0.00  0.00    +0.000 A 
ATOM     17  C   UNL     1      -1.366  12.017  23.149  0.00  0.00    +0.000 A 
ATOM     18  N   UNL     1      -0.887  13.227  23.453  0.00  0.00    +0.000 NA
ATOM     19  O   UNL     1      -1.983  13.996  23.792  0.00  0.00    +0.000 OA
ENDBRANCH   1  17
BRANCH   7  20
ATOM     20  O   UNL     1      -0.091  11.165  18.009  0.00  0.00    +0.000 OA
BRANCH  20  21
ATOM     21  C   UNL     1      -0.973  12.306  17.920  0.00  0.00    +0.000 C 
BRANCH  21  22
ATOM     22  C   UNL     1      -2.365  11.812  17.600  0.00  0.00    +0.000 A 
ATOM     23  C   UNL     1      -2.628  11.185  16.383  0.00  0.00    +0.000 A 
ATOM     24  C   UNL     1      -3.899  10.664  16.154  0.00  0.00    +0.000 A 
ATOM     25  C   UNL     1      -4.875  10.789  17.135  0.00  0.00    +0.000 A 
ATOM     26  C   UNL     1      -4.542  11.446  18.306  0.00  0.00    +0.000 A 
ATOM     27  N   UNL     1      -3.316  11.953  18.561  0.00  0.00    +0.000 NA
ENDBRANCH  21  22
ENDBRANCH  20  21
ENDBRANCH   7  20
TORSDOF 4
ENDMDL
MODEL 9
REMARK VINA RESULT:      -7.3      7.589     11.636
REMARK  Name = 
REMARK  5 active torsions:
REMARK  status: ('A' for Active; 'I' for Inactive)
REMARK    1  A    between atoms: C_1  and  C_2
REMARK    2  A    between atoms: C_4  and  C_5
REMARK    3  A    between atoms: C_11  and  O_12
REMARK    4  A    between atoms: O_12  and  C_13
REMARK    5  A    between atoms: C_13  and  C_14
REMARK                            x       y       z     vdW  Elec       q    Type
REMARK                         _______ _______ _______ _____ _____    ______ ____
ROOT
ATOM      1  C   UNL     1      -0.694  10.792  22.751  0.00  0.00    +0.000 A 
ATOM      2  N   UNL     1      -0.097   9.955  23.579  0.00  0.00    +0.000 NA
ATOM      3  N   UNL     1       0.667   9.090  22.833  0.00  0.00    +0.000 NA
ATOM      4  C   UNL     1       0.531   9.425  21.567  0.00  0.00    +0.000 A 
ATOM      5  C   UNL     1       1.114   8.887  20.385  0.00  0.00    +0.000 A 
ATOM      6  C   UNL     1       0.858   9.516  19.214  0.00  0.00    +0.000 A 
ATOM      7  C   UNL     1      -0.122  10.639  19.262  0.00  0.00    +0.000 A 
ATOM      8  N   UNL     1      -0.686  11.140  20.308  0.00  0.00    +0.000 NA
ATOM      9  N   UNL     1      -0.317  10.508  21.457  0.00  0.00    +0.000 N 
ATOM     10  C   UNL     1       1.483   9.119  17.903  0.00  0.00    +0.000 C 
ATOM     11  C   UNL     1       2.615   8.098  18.056  0.00  0.00    +0.000 C 
ATOM     12  C   UNL     1       2.241   7.022  19.066  0.00  0.00    +0.000 C 
ATOM     13  C   UNL     1       1.990   7.651  20.435  0.00  0.00    +0.000 C 
ENDROOT
BRANCH   1  17
ATOM     14  C   UNL     1      -2.845  15.232  23.970  0.00  0.00    +0.000 C 
ATOM     15  C   UNL     1      -2.449  13.843  23.691  0.00  0.00    +0.000 A 
ATOM     16  C   UNL     1      -1.293  13.242  23.263  0.00  0.00    +0.000 A 
ATOM     17  C   UNL     1      -1.623  11.867  23.187  0.00  0.00    +0.000 A 
ATOM     18  N   UNL     1      -2.892  11.656  23.550  0.00  0.00    +0.000 NA
ATOM     19  O   UNL     1      -3.406  12.896  23.875  0.00  0.00    +0.000 OA
ENDBRANCH   1  17
BRANCH   7  20
ATOM     20  O   UNL     1      -0.405  11.097  18.021  0.00  0.00    +0.000 OA
BRANCH  20  21
ATOM     21  C   UNL     1      -1.245  12.270  17.959  0.00  0.00    +0.000 C 
BRANCH  21  22
ATOM     22  C   UNL     1      -2.680  11.825  17.801  0.00  0.00    +0.000 A 
ATOM     23  C   UNL     1      -3.590  11.997  18.843  0.00  0.00    +0.000 A 
ATOM     24  C   UNL     1      -4.925  11.657  18.636  0.00  0.00    +0.000 A 
ATOM     25  C   UNL     1      -5.315  11.147  17.403  0.00  0.00    +0.000 A 
ATOM     26  C   UNL     1      -4.347  10.984  16.428  0.00  0.00    +0.000 A 
ATOM     27  N   UNL     1      -3.048  11.313  16.597  0.00  0.00    +0.000 NA
ENDBRANCH  21  22
ENDBRANCH  20  21
ENDBRANCH   7  20
TORSDOF 4
ENDMDL
