MODEL 1
REMARK VINA RESULT:      -8.7      0.000      0.000
REMARK  Name = 
REMARK  7 active torsions:
REMARK  status: ('A' for Active; 'I' for Inactive)
REMARK    1  A    between atoms: C_1  and  C_2
REMARK    2  A    between atoms: C_2  and  N_3
REMARK    3  A    between atoms: C_6  and  O_7
REMARK    4  A    between atoms: O_7  and  C_8
REMARK    5  A    between atoms: C_11  and  C_12
REMARK    6  A    between atoms: C_22  and  C_23
REMARK    7  A    between atoms: N_29  and  C_30
REMARK                            x       y       z     vdW  Elec       q    Type
REMARK                         _______ _______ _______ _____ _____    ______ ____
ROOT
ATOM      1  N   UNL     1       2.898  13.830  18.908  0.00  0.00    +0.000 N 
ATOM      2  C   UNL     1       2.462  12.623  18.437  0.00  0.00    +0.000 A 
ATOM      3  C   UNL     1       1.432  12.270  19.268  0.00  0.00    +0.000 A 
ATOM      4  C   UNL     1       0.655  11.110  19.199  0.00  0.00    +0.000 A 
ATOM      5  C   UNL     1      -0.277  11.061  20.265  0.00  0.00    +0.000 A 
ATOM      6  C   UNL     1      -0.463  12.127  21.213  0.00  0.00    +0.000 A 
ATOM      7  C   UNL     1       0.327  13.298  21.239  0.00  0.00    +0.000 A 
ATOM      8  C   UNL     1       1.302  13.335  20.232  0.00  0.00    +0.000 A 
ATOM      9  N   UNL     1       2.220  14.281  19.983  0.00  0.00    +0.000 NA
ENDROOT
BRANCH   6  10
ATOM     10  C   UNL     1      -1.540  11.986  22.233  0.00  0.00    +0.000 C 
ATOM     11  O   UNL     1      -1.406  11.160  23.127  0.00  0.00    +0.000 OA
ATOM     12  N   UNL     1      -2.657  12.763  21.996  0.00  0.00    +0.000 N 
ATOM     13  C   UNL     1      -3.762  12.731  22.811  0.00  0.00    +0.000 A 
ATOM     14  C   UNL     1      -3.817  12.673  24.221  0.00  0.00    +0.000 A 
ATOM     15  C   UNL     1      -5.157  12.611  24.524  0.00  0.00    +0.000 A 
ATOM     16  N   UNL     1      -5.799  12.566  23.322  0.00  0.00    +0.000 N 
ATOM     17  C   UNL     1      -7.178  12.213  23.093  0.00  0.00    +0.000 C 
ATOM     18  N   UNL     1      -4.982  12.791  22.273  0.00  0.00    +0.000 NA
ATOM     19  H   UNL     1      -2.865  13.056  21.053  0.00  0.00    +0.000 HD
ENDBRANCH   6  10
BRANCH   1  21
ATOM     20  C   UNL     1       3.447  16.019  17.910  0.00  0.00    +0.000 C 
ATOM     21  C   UNL     1       3.951  14.651  18.352  0.00  0.00    +0.000 C 
ENDBRANCH   1  21
BRANCH   4  22
ATOM     22  O   UNL     1       0.850  10.151  18.236  0.00  0.00    +0.000 OA
BRANCH  22  23
ATOM     23  C   UNL     1       1.469   8.974  18.573  0.00  0.00    +0.000 A 
ATOM     24  C   UNL     1       1.344   8.536  19.886  0.00  0.00    +0.000 A 
ATOM     25  N   UNL     1       1.867   7.374  20.356  0.00  0.00    +0.000 NA
ATOM     26  C   UNL     1       2.561   6.603  19.467  0.00  0.00    +0.000 A 
ATOM     27  C   UNL     1       2.783   7.005  18.153  0.00  0.00    +0.000 A 
ATOM     28  F   UNL     1       3.483   6.271  17.277  0.00  0.00    +0.000 F 
ATOM     29  C   UNL     1       2.255   8.215  17.712  0.00  0.00    +0.000 A 
BRANCH  26  30
ATOM     30  C   UNL     1       3.150   5.314  19.962  0.00  0.00    +0.000 C 
ATOM     31  O   UNL     1       4.346   5.069  19.801  0.00  0.00    +0.000 OA
ATOM     32  N   UNL     1       2.325   4.441  20.634  0.00  0.00    +0.000 N 
ATOM     33  C   UNL     1       2.694   3.135  21.163  0.00  0.00    +0.000 C 
ATOM     34  C   UNL     1       1.384   2.606  20.583  0.00  0.00    +0.000 C 
ATOM     35  C   UNL     1       0.954   4.052  20.327  0.00  0.00    +0.000 C 
ENDBRANCH  26  30
ENDBRANCH  22  23
ENDBRANCH   4  22
TORSDOF 5
ENDMDL
MODEL 2
REMARK VINA RESULT:      -8.5      1.302      1.463
REMARK  Name = 
REMARK  7 active torsions:
REMARK  status: ('A' for Active; 'I' for Inactive)
REMARK    1  A    between atoms: C_1  and  C_2
REMARK    2  A    between atoms: C_2  and  N_3
REMARK    3  A    between atoms: C_6  and  O_7
REMARK    4  A    between atoms: O_7  and  C_8
REMARK    5  A    between atoms: C_11  and  C_12
REMARK    6  A    between atoms: C_22  and  C_23
REMARK    7  A    between atoms: N_29  and  C_30
REMARK                            x       y       z     vdW  Elec       q    Type
REMARK                         _______ _______ _______ _____ _____    ______ ____
ROOT
ATOM      1  N   UNL     1       2.952  13.652  18.738  0.00  0.00    +0.000 N 
ATOM      2  C   UNL     1       2.528  12.431  18.294  0.00  0.00    +0.000 A 
ATOM      3  C   UNL     1       1.509  12.081  19.140  0.00  0.00    +0.000 A 
ATOM      4  C   UNL     1       0.747  10.909  19.101  0.00  0.00    +0.000 A 
ATOM      5  C   UNL     1      -0.175  10.869  20.175  0.00  0.00    +0.000 A 
ATOM      6  C   UNL     1      -0.367  11.951  21.104  0.00  0.00    +0.000 A 
ATOM      7  C   UNL     1       0.407  13.133  21.100  0.00  0.00    +0.000 A 
ATOM      8  C   UNL     1       1.373  13.163  20.084  0.00  0.00    +0.000 A 
ATOM      9  N   UNL     1       2.277  14.115  19.809  0.00  0.00    +0.000 NA
ENDROOT
BRANCH   6  10
ATOM     10  C   UNL     1      -1.433  11.817  22.135  0.00  0.00    +0.000 C 
ATOM     11  O   UNL     1      -1.345  10.923  22.967  0.00  0.00    +0.000 OA
ATOM     12  N   UNL     1      -2.495  12.687  21.978  0.00  0.00    +0.000 N 
ATOM     13  C   UNL     1      -3.585  12.677  22.813  0.00  0.00    +0.000 A 
ATOM     14  C   UNL     1      -3.620  12.524  24.216  0.00  0.00    +0.000 A 
ATOM     15  C   UNL     1      -4.955  12.538  24.544  0.00  0.00    +0.000 A 
ATOM     16  N   UNL     1      -5.619  12.623  23.356  0.00  0.00    +0.000 N 
ATOM     17  C   UNL     1      -7.025  12.387  23.135  0.00  0.00    +0.000 C 
ATOM     18  N   UNL     1      -4.807  12.862  22.308  0.00  0.00    +0.000 NA
ATOM     19  H   UNL     1      -2.697  13.059  21.061  0.00  0.00    +0.000 HD
ENDBRANCH   6  10
BRANCH   1  21
ATOM     20  C   UNL     1       3.712  15.964  18.328  0.00  0.00    +0.000 C 
ATOM     21  C   UNL     1       3.989  14.475  18.157  0.00  0.00    +0.000 C 
ENDBRANCH   1  21
BRANCH   4  22
ATOM     22  O   UNL     1       0.947   9.934  18.156  0.00  0.00    +0.000 OA
BRANCH  22  23
ATOM     23  C   UNL     1       1.628   8.794  18.498  0.00  0.00    +0.000 A 
ATOM     24  C   UNL     1       2.609   8.344  17.622  0.00  0.00    +0.000 A 
ATOM     25  N   UNL     1       3.390   7.255  17.844  0.00  0.00    +0.000 NA
ATOM     26  C   UNL     1       3.180   6.570  19.007  0.00  0.00    +0.000 A 
ATOM     27  C   UNL     1       2.175   6.922  19.903  0.00  0.00    +0.000 A 
ATOM     28  F   UNL     1       1.941   6.243  21.035  0.00  0.00    +0.000 F 
ATOM     29  C   UNL     1       1.375   8.027  19.631  0.00  0.00    +0.000 A 
BRANCH  26  30
ATOM     30  C   UNL     1       4.030   5.362  19.276  0.00  0.00    +0.000 C 
ATOM     31  O   UNL     1       5.187   5.487  19.678  0.00  0.00    +0.000 OA
ATOM     32  N   UNL     1       3.464   4.121  19.100  0.00  0.00    +0.000 N 
ATOM     33  C   UNL     1       4.125   2.834  19.278  0.00  0.00    +0.000 C 
ATOM     34  C   UNL     1       3.465   2.392  17.974  0.00  0.00    +0.000 C 
ATOM     35  C   UNL     1       2.595   3.650  18.028  0.00  0.00    +0.000 C 
ENDBRANCH  26  30
ENDBRANCH  22  23
ENDBRANCH   4  22
TORSDOF 5
ENDMDL
MODEL 3
REMARK VINA RESULT:      -8.4      2.251      6.551
REMARK  Name = 
REMARK  7 active torsions:
REMARK  status: ('A' for Active; 'I' for Inactive)
REMARK    1  A    between atoms: C_1  and  C_2
REMARK    2  A    between atoms: C_2  and  N_3
REMARK    3  A    between atoms: C_6  and  O_7
REMARK    4  A    between atoms: O_7  and  C_8
REMARK    5  A    between atoms: C_11  and  C_12
REMARK    6  A    between atoms: C_22  and  C_23
REMARK    7  A    between atoms: N_29  and  C_30
REMARK                            x       y       z     vdW  Elec       q    Type
REMARK                         _______ _______ _______ _____ _____    ______ ____
ROOT
ATOM      1  N   UNL     1      -0.938  11.822  22.164  0.00  0.00    +0.000 N 
ATOM      2  C   UNL     1      -0.662  11.040  21.078  0.00  0.00    +0.000 A 
ATOM      3  C   UNL     1       0.351  11.690  20.422  0.00  0.00    +0.000 A 
ATOM      4  C   UNL     1       0.985  11.286  19.244  0.00  0.00    +0.000 A 
ATOM      5  C   UNL     1       1.944  12.244  18.832  0.00  0.00    +0.000 A 
ATOM      6  C   UNL     1       2.287  13.412  19.599  0.00  0.00    +0.000 A 
ATOM      7  C   UNL     1       1.639  13.778  20.800  0.00  0.00    +0.000 A 
ATOM      8  C   UNL     1       0.638  12.876  21.190  0.00  0.00    +0.000 A 
ATOM      9  N   UNL     1      -0.173  12.929  22.257  0.00  0.00    +0.000 NA
ENDROOT
BRANCH   6  10
ATOM     10  C   UNL     1       3.377  14.293  19.096  0.00  0.00    +0.000 C 
ATOM     11  O   UNL     1       3.534  14.412  17.888  0.00  0.00    +0.000 OA
ATOM     12  N   UNL     1       4.184  14.826  20.083  0.00  0.00    +0.000 N 
ATOM     13  C   UNL     1       5.262  15.628  19.799  0.00  0.00    +0.000 A 
ATOM     14  C   UNL     1       5.367  16.657  18.837  0.00  0.00    +0.000 A 
ATOM     15  C   UNL     1       6.664  17.103  18.932  0.00  0.00    +0.000 A 
ATOM     16  N   UNL     1       7.258  16.299  19.859  0.00  0.00    +0.000 N 
ATOM     17  C   UNL     1       8.672  16.170  20.112  0.00  0.00    +0.000 C 
ATOM     18  N   UNL     1       6.386  15.500  20.507  0.00  0.00    +0.000 NA
ATOM     19  H   UNL     1       4.265  14.346  20.967  0.00  0.00    +0.000 HD
ENDBRANCH   6  10
BRANCH   1  21
ATOM     20  C   UNL     1      -3.132  12.460  23.098  0.00  0.00    +0.000 C 
ATOM     21  C   UNL     1      -1.909  11.556  23.202  0.00  0.00    +0.000 C 
ENDBRANCH   1  21
BRANCH   4  22
ATOM     22  O   UNL     1       0.645  10.131  18.584  0.00  0.00    +0.000 OA
BRANCH  22  23
ATOM     23  C   UNL     1       1.471   9.040  18.667  0.00  0.00    +0.000 A 
ATOM     24  C   UNL     1       1.413   8.277  19.828  0.00  0.00    +0.000 A 
ATOM     25  N   UNL     1       2.140   7.149  20.038  0.00  0.00    +0.000 NA
ATOM     26  C   UNL     1       2.979   6.758  19.033  0.00  0.00    +0.000 A 
ATOM     27  C   UNL     1       3.139   7.503  17.869  0.00  0.00    +0.000 A 
ATOM     28  F   UNL     1       3.978   7.146  16.887  0.00  0.00    +0.000 F 
ATOM     29  C   UNL     1       2.398   8.670  17.699  0.00  0.00    +0.000 A 
BRANCH  26  30
ATOM     30  C   UNL     1       3.795   5.515  19.241  0.00  0.00    +0.000 C 
ATOM     31  O   UNL     1       4.946   5.586  19.673  0.00  0.00    +0.000 OA
ATOM     32  N   UNL     1       3.204   4.301  18.976  0.00  0.00    +0.000 N 
ATOM     33  C   UNL     1       3.831   2.991  19.084  0.00  0.00    +0.000 C 
ATOM     34  C   UNL     1       3.188   2.648  17.742  0.00  0.00    +0.000 C 
ATOM     35  C   UNL     1       2.347   3.921  17.859  0.00  0.00    +0.000 C 
ENDBRANCH  26  30
ENDBRANCH  22  23
ENDBRANCH   4  22
TORSDOF 5
ENDMDL
MODEL 4
REMARK VINA RESULT:      -8.3      2.950      9.273
REMARK  Name = 
REMARK  7 active torsions:
REMARK  status: ('A' for Active; 'I' for Inactive)
REMARK    1  A    between atoms: C_1  and  C_2
REMARK    2  A    between atoms: C_2  and  N_3
REMARK    3  A    between atoms: C_6  and  O_7
REMARK    4  A    between atoms: O_7  and  C_8
REMARK    5  A    between atoms: C_11  and  C_12
REMARK    6  A    between atoms: C_22  and  C_23
REMARK    7  A    between atoms: N_29  and  C_30
REMARK                            x       y       z     vdW  Elec       q    Type
REMARK                         _______ _______ _______ _____ _____    ______ ____
ROOT
ATOM      1  N   UNL     1      -1.250  11.058  22.361  0.00  0.00    +0.000 N 
ATOM      2  C   UNL     1      -1.020  11.659  21.155  0.00  0.00    +0.000 A 
ATOM      3  C   UNL     1      -0.188  10.801  20.486  0.00  0.00    +0.000 A 
ATOM      4  C   UNL     1       0.338  10.970  19.201  0.00  0.00    +0.000 A 
ATOM      5  C   UNL     1       1.209   9.905  18.867  0.00  0.00    +0.000 A 
ATOM      6  C   UNL     1       1.421   8.753  19.703  0.00  0.00    +0.000 A 
ATOM      7  C   UNL     1       0.855   8.606  20.989  0.00  0.00    +0.000 A 
ATOM      8  C   UNL     1       0.041   9.683  21.368  0.00  0.00    +0.000 A 
ATOM      9  N   UNL     1      -0.627   9.872  22.515  0.00  0.00    +0.000 NA
ENDROOT
BRANCH   6  10
ATOM     10  C   UNL     1       2.295   7.660  19.194  0.00  0.00    +0.000 C 
ATOM     11  O   UNL     1       2.675   7.698  18.031  0.00  0.00    +0.000 OA
ATOM     12  N   UNL     1       2.511   6.634  20.094  0.00  0.00    +0.000 N 
ATOM     13  C   UNL     1       3.259   5.526  19.781  0.00  0.00    +0.000 A 
ATOM     14  C   UNL     1       4.469   5.454  19.055  0.00  0.00    +0.000 A 
ATOM     15  C   UNL     1       4.765   4.113  18.987  0.00  0.00    +0.000 A 
ATOM     16  N   UNL     1       3.719   3.479  19.590  0.00  0.00    +0.000 N 
ATOM     17  C   UNL     1       3.411   2.072  19.528  0.00  0.00    +0.000 C 
ATOM     18  N   UNL     1       2.872   4.324  20.212  0.00  0.00    +0.000 NA
ATOM     19  H   UNL     1       1.835   6.467  20.824  0.00  0.00    +0.000 HD
ENDBRANCH   6  10
BRANCH   1  21
ATOM     20  C   UNL     1      -3.068  12.620  22.948  0.00  0.00    +0.000 C 
ATOM     21  C   UNL     1      -2.102  11.542  23.424  0.00  0.00    +0.000 C 
ENDBRANCH   1  21
BRANCH   4  22
ATOM     22  O   UNL     1       0.056  12.071  18.431  0.00  0.00    +0.000 OA
BRANCH  22  23
ATOM     23  C   UNL     1       0.832  13.195  18.554  0.00  0.00    +0.000 A 
ATOM     24  C   UNL     1       2.189  13.073  18.276  0.00  0.00    +0.000 A 
ATOM     25  N   UNL     1       3.072  14.104  18.316  0.00  0.00    +0.000 NA
ATOM     26  C   UNL     1       2.577  15.331  18.657  0.00  0.00    +0.000 A 
ATOM     27  C   UNL     1       1.244  15.519  19.010  0.00  0.00    +0.000 A 
ATOM     28  F   UNL     1       0.750  16.712  19.373  0.00  0.00    +0.000 F 
ATOM     29  C   UNL     1       0.371  14.435  18.985  0.00  0.00    +0.000 A 
BRANCH  26  30
ATOM     30  C   UNL     1       3.533  16.487  18.710  0.00  0.00    +0.000 C 
ATOM     31  O   UNL     1       3.598  17.288  17.778  0.00  0.00    +0.000 OA
ATOM     32  N   UNL     1       4.297  16.643  19.843  0.00  0.00    +0.000 N 
ATOM     33  C   UNL     1       5.298  17.675  20.077  0.00  0.00    +0.000 C 
ATOM     34  C   UNL     1       6.200  16.577  20.637  0.00  0.00    +0.000 C 
ATOM     35  C   UNL     1       4.996  15.632  20.627  0.00  0.00    +0.000 C 
ENDBRANCH  26  30
ENDBRANCH  22  23
ENDBRANCH   4  22
TORSDOF 5
ENDMDL
MODEL 5
REMARK VINA RESULT:      -8.3      2.478      6.760
REMARK  Name = 
REMARK  7 active torsions:
REMARK  status: ('A' for Active; 'I' for Inactive)
REMARK    1  A    between atoms: C_1  and  C_2
REMARK    2  A    between atoms: C_2  and  N_3
REMARK    3  A    between atoms: C_6  and  O_7
REMARK    4  A    between atoms: O_7  and  C_8
REMARK    5  A    between atoms: C_11  and  C_12
REMARK    6  A    between atoms: C_22  and  C_23
REMARK    7  A    between atoms: N_29  and  C_30
REMARK                            x       y       z     vdW  Elec       q    Type
REMARK                         _______ _______ _______ _____ _____    ______ ____
ROOT
ATOM      1  N   UNL     1      -0.656  11.757  22.024  0.00  0.00    +0.000 N 
ATOM      2  C   UNL     1      -0.395  11.034  20.895  0.00  0.00    +0.000 A 
ATOM      3  C   UNL     1       0.586  11.736  20.244  0.00  0.00    +0.000 A 
ATOM      4  C   UNL     1       1.195  11.403  19.031  0.00  0.00    +0.000 A 
ATOM      5  C   UNL     1       2.121  12.401  18.639  0.00  0.00    +0.000 A 
ATOM      6  C   UNL     1       2.461  13.539  19.452  0.00  0.00    +0.000 A 
ATOM      7  C   UNL     1       1.839  13.833  20.686  0.00  0.00    +0.000 A 
ATOM      8  C   UNL     1       0.869  12.891  21.060  0.00  0.00    +0.000 A 
ATOM      9  N   UNL     1       0.087  12.876  22.149  0.00  0.00    +0.000 NA
ENDROOT
BRANCH   6  10
ATOM     10  C   UNL     1       3.517  14.467  18.962  0.00  0.00    +0.000 C 
ATOM     11  O   UNL     1       3.465  14.870  17.807  0.00  0.00    +0.000 OA
ATOM     12  N   UNL     1       4.533  14.707  19.867  0.00  0.00    +0.000 N 
ATOM     13  C   UNL     1       5.610  15.506  19.571  0.00  0.00    +0.000 A 
ATOM     14  C   UNL     1       5.632  16.733  18.871  0.00  0.00    +0.000 A 
ATOM     15  C   UNL     1       6.960  17.085  18.810  0.00  0.00    +0.000 A 
ATOM     16  N   UNL     1       7.636  16.054  19.392  0.00  0.00    +0.000 N 
ATOM     17  C   UNL     1       9.055  15.806  19.326  0.00  0.00    +0.000 C 
ATOM     18  N   UNL     1       6.827  15.161  19.996  0.00  0.00    +0.000 NA
ATOM     19  H   UNL     1       4.728  14.023  20.583  0.00  0.00    +0.000 HD
ENDBRANCH   6  10
BRANCH   1  21
ATOM     20  C   UNL     1      -2.845  12.286  23.034  0.00  0.00    +0.000 C 
ATOM     21  C   UNL     1      -1.592  11.420  23.074  0.00  0.00    +0.000 C 
ENDBRANCH   1  21
BRANCH   4  22
ATOM     22  O   UNL     1       0.862  10.273  18.326  0.00  0.00    +0.000 OA
BRANCH  22  23
ATOM     23  C   UNL     1       1.503   9.093  18.603  0.00  0.00    +0.000 A 
ATOM     24  C   UNL     1       2.403   8.614  17.658  0.00  0.00    +0.000 A 
ATOM     25  N   UNL     1       3.140   7.483  17.809  0.00  0.00    +0.000 NA
ATOM     26  C   UNL     1       2.968   6.783  18.970  0.00  0.00    +0.000 A 
ATOM     27  C   UNL     1       2.040   7.164  19.934  0.00  0.00    +0.000 A 
ATOM     28  F   UNL     1       1.842   6.472  21.065  0.00  0.00    +0.000 F 
ATOM     29  C   UNL     1       1.281   8.314  19.734  0.00  0.00    +0.000 A 
BRANCH  26  30
ATOM     30  C   UNL     1       3.770   5.528  19.160  0.00  0.00    +0.000 C 
ATOM     31  O   UNL     1       4.950   5.586  19.507  0.00  0.00    +0.000 OA
ATOM     32  N   UNL     1       3.136   4.321  18.979  0.00  0.00    +0.000 N 
ATOM     33  C   UNL     1       3.741   3.000  19.086  0.00  0.00    +0.000 C 
ATOM     34  C   UNL     1       2.997   2.630  17.805  0.00  0.00    +0.000 C 
ATOM     35  C   UNL     1       2.193   3.926  17.939  0.00  0.00    +0.000 C 
ENDBRANCH  26  30
ENDBRANCH  22  23
ENDBRANCH   4  22
TORSDOF 5
ENDMDL
MODEL 6
REMARK VINA RESULT:      -8.2      3.255      9.563
REMARK  Name = 
REMARK  7 active torsions:
REMARK  status: ('A' for Active; 'I' for Inactive)
REMARK    1  A    between atoms: C_1  and  C_2
REMARK    2  A    between atoms: C_2  and  N_3
REMARK    3  A    between atoms: C_6  and  O_7
REMARK    4  A    between atoms: O_7  and  C_8
REMARK    5  A    between atoms: C_11  and  C_12
REMARK    6  A    between atoms: C_22  and  C_23
REMARK    7  A    between atoms: N_29  and  C_30
REMARK                            x       y       z     vdW  Elec       q    Type
REMARK                         _______ _______ _______ _____ _____    ______ ____
ROOT
ATOM      1  N   UNL     1      -0.475  10.241  22.240  0.00  0.00    +0.000 N 
ATOM      2  C   UNL     1      -0.327  10.745  20.979  0.00  0.00    +0.000 A 
ATOM      3  C   UNL     1       0.455   9.831  20.323  0.00  0.00    +0.000 A 
ATOM      4  C   UNL     1       0.892   9.896  18.996  0.00  0.00    +0.000 A 
ATOM      5  C   UNL     1       1.735   8.801  18.687  0.00  0.00    +0.000 A 
ATOM      6  C   UNL     1       2.001   7.716  19.594  0.00  0.00    +0.000 A 
ATOM      7  C   UNL     1       1.524   7.673  20.924  0.00  0.00    +0.000 A 
ATOM      8  C   UNL     1       0.741   8.783  21.271  0.00  0.00    +0.000 A 
ATOM      9  N   UNL     1       0.154   9.066  22.443  0.00  0.00    +0.000 NA
ENDROOT
BRANCH   6  10
ATOM     10  C   UNL     1       2.835   6.580  19.113  0.00  0.00    +0.000 C 
ATOM     11  O   UNL     1       3.158   5.704  19.906  0.00  0.00    +0.000 OA
ATOM     12  N   UNL     1       3.251   6.690  17.801  0.00  0.00    +0.000 N 
ATOM     13  C   UNL     1       4.060   5.755  17.203  0.00  0.00    +0.000 A 
ATOM     14  C   UNL     1       4.009   4.347  17.310  0.00  0.00    +0.000 A 
ATOM     15  C   UNL     1       5.066   3.894  16.557  0.00  0.00    +0.000 A 
ATOM     16  N   UNL     1       5.706   5.015  16.118  0.00  0.00    +0.000 N 
ATOM     17  C   UNL     1       7.023   5.084  15.534  0.00  0.00    +0.000 C 
ATOM     18  N   UNL     1       5.025   6.150  16.371  0.00  0.00    +0.000 NA
ATOM     19  H   UNL     1       3.319   7.605  17.379  0.00  0.00    +0.000 HD
ENDBRANCH   6  10
BRANCH   1  21
ATOM     20  C   UNL     1      -2.096  11.996  22.860  0.00  0.00    +0.000 C 
ATOM     21  C   UNL     1      -1.251  10.813  23.318  0.00  0.00    +0.000 C 
ENDBRANCH   1  21
BRANCH   4  22
ATOM     22  O   UNL     1       0.561  10.936  18.163  0.00  0.00    +0.000 OA
BRANCH  22  23
ATOM     23  C   UNL     1       1.130  12.168  18.365  0.00  0.00    +0.000 A 
ATOM     24  C   UNL     1       2.508  12.271  18.219  0.00  0.00    +0.000 A 
ATOM     25  N   UNL     1       3.205  13.429  18.348  0.00  0.00    +0.000 NA
ATOM     26  C   UNL     1       2.487  14.553  18.646  0.00  0.00    +0.000 A 
ATOM     27  C   UNL     1       1.115  14.518  18.871  0.00  0.00    +0.000 A 
ATOM     28  F   UNL     1       0.402  15.608  19.189  0.00  0.00    +0.000 F 
ATOM     29  C   UNL     1       0.436  13.308  18.756  0.00  0.00    +0.000 A 
BRANCH  26  30
ATOM     30  C   UNL     1       3.235  15.847  18.796  0.00  0.00    +0.000 C 
ATOM     31  O   UNL     1       3.477  16.547  17.813  0.00  0.00    +0.000 OA
ATOM     32  N   UNL     1       3.599  16.240  20.063  0.00  0.00    +0.000 N 
ATOM     33  C   UNL     1       4.351  17.437  20.415  0.00  0.00    +0.000 C 
ATOM     34  C   UNL     1       5.171  16.562  21.360  0.00  0.00    +0.000 C 
ATOM     35  C   UNL     1       4.151  15.440  21.151  0.00  0.00    +0.000 C 
ENDBRANCH  26  30
ENDBRANCH  22  23
ENDBRANCH   4  22
TORSDOF 5
ENDMDL
MODEL 7
REMARK VINA RESULT:      -8.2      3.174      9.330
REMARK  Name = 
REMARK  7 active torsions:
REMARK  status: ('A' for Active; 'I' for Inactive)
REMARK    1  A    between atoms: C_1  and  C_2
REMARK    2  A    between atoms: C_2  and  N_3
REMARK    3  A    between atoms: C_6  and  O_7
REMARK    4  A    between atoms: O_7  and  C_8
REMARK    5  A    between atoms: C_11  and  C_12
REMARK    6  A    between atoms: C_22  and  C_23
REMARK    7  A    between atoms: N_29  and  C_30
REMARK                            x       y       z     vdW  Elec       q    Type
REMARK                         _______ _______ _______ _____ _____    ______ ____
ROOT
ATOM      1  N   UNL     1      -1.336  11.333  22.478  0.00  0.00    +0.000 N 
ATOM      2  C   UNL     1      -1.056  11.830  21.236  0.00  0.00    +0.000 A 
ATOM      3  C   UNL     1      -0.267  10.879  20.644  0.00  0.00    +0.000 A 
ATOM      4  C   UNL     1       0.283  10.922  19.359  0.00  0.00    +0.000 A 
ATOM      5  C   UNL     1       1.095   9.787  19.118  0.00  0.00    +0.000 A 
ATOM      6  C   UNL     1       1.230   8.691  20.040  0.00  0.00    +0.000 A 
ATOM      7  C   UNL     1       0.640   8.670  21.324  0.00  0.00    +0.000 A 
ATOM      8  C   UNL     1      -0.114   9.818  21.609  0.00  0.00    +0.000 A 
ATOM      9  N   UNL     1      -0.784  10.128  22.728  0.00  0.00    +0.000 NA
ENDROOT
BRANCH   6  10
ATOM     10  C   UNL     1       2.045   7.515  19.626  0.00  0.00    +0.000 C 
ATOM     11  O   UNL     1       2.181   6.582  20.408  0.00  0.00    +0.000 OA
ATOM     12  N   UNL     1       2.663   7.650  18.398  0.00  0.00    +0.000 N 
ATOM     13  C   UNL     1       3.485   6.681  17.876  0.00  0.00    +0.000 A 
ATOM     14  C   UNL     1       3.319   5.279  17.897  0.00  0.00    +0.000 A 
ATOM     15  C   UNL     1       4.444   4.778  17.285  0.00  0.00    +0.000 A 
ATOM     16  N   UNL     1       5.221   5.863  17.008  0.00  0.00    +0.000 N 
ATOM     17  C   UNL     1       6.613   5.855  16.631  0.00  0.00    +0.000 C 
ATOM     18  N   UNL     1       4.591   7.036  17.219  0.00  0.00    +0.000 NA
ATOM     19  H   UNL     1       2.859   8.574  18.042  0.00  0.00    +0.000 HD
ENDBRANCH   6  10
BRANCH   1  21
ATOM     20  C   UNL     1      -3.439  12.552  22.903  0.00  0.00    +0.000 C 
ATOM     21  C   UNL     1      -2.171  11.942  23.489  0.00  0.00    +0.000 C 
ENDBRANCH   1  21
BRANCH   4  22
ATOM     22  O   UNL     1       0.076  11.978  18.506  0.00  0.00    +0.000 OA
BRANCH  22  23
ATOM     23  C   UNL     1       0.875  13.088  18.602  0.00  0.00    +0.000 A 
ATOM     24  C   UNL     1       2.208  12.954  18.230  0.00  0.00    +0.000 A 
ATOM     25  N   UNL     1       3.107  13.972  18.233  0.00  0.00    +0.000 NA
ATOM     26  C   UNL     1       2.655  15.197  18.635  0.00  0.00    +0.000 A 
ATOM     27  C   UNL     1       1.352  15.395  19.082  0.00  0.00    +0.000 A 
ATOM     28  F   UNL     1       0.902  16.585  19.503  0.00  0.00    +0.000 F 
ATOM     29  C   UNL     1       0.463  14.323  19.091  0.00  0.00    +0.000 A 
BRANCH  26  30
ATOM     30  C   UNL     1       3.630  16.338  18.649  0.00  0.00    +0.000 C 
ATOM     31  O   UNL     1       3.674  17.135  17.711  0.00  0.00    +0.000 OA
ATOM     32  N   UNL     1       4.435  16.487  19.754  0.00  0.00    +0.000 N 
ATOM     33  C   UNL     1       5.460  17.504  19.947  0.00  0.00    +0.000 C 
ATOM     34  C   UNL     1       6.364  16.395  20.481  0.00  0.00    +0.000 C 
ATOM     35  C   UNL     1       5.147  15.468  20.517  0.00  0.00    +0.000 C 
ENDBRANCH  26  30
ENDBRANCH  22  23
ENDBRANCH   4  22
TORSDOF 5
ENDMDL
MODEL 8
REMARK VINA RESULT:      -8.1      3.362      5.492
REMARK  Name = 
REMARK  7 active torsions:
REMARK  status: ('A' for Active; 'I' for Inactive)
REMARK    1  A    between atoms: C_1  and  C_2
REMARK    2  A    between atoms: C_2  and  N_3
REMARK    3  A    between atoms: C_6  and  O_7
REMARK    4  A    between atoms: O_7  and  C_8
REMARK    5  A    between atoms: C_11  and  C_12
REMARK    6  A    between atoms: C_22  and  C_23
REMARK    7  A    between atoms: N_29  and  C_30
REMARK                            x       y       z     vdW  Elec       q    Type
REMARK                         _______ _______ _______ _____ _____    ______ ____
ROOT
ATOM      1  N   UNL     1      -2.286  10.886  17.532  0.00  0.00    +0.000 N 
ATOM      2  C   UNL     1      -1.607  10.150  18.462  0.00  0.00    +0.000 A 
ATOM      3  C   UNL     1      -0.682  11.013  18.988  0.00  0.00    +0.000 A 
ATOM      4  C   UNL     1       0.259  10.733  19.984  0.00  0.00    +0.000 A 
ATOM      5  C   UNL     1       1.088  11.857  20.226  0.00  0.00    +0.000 A 
ATOM      6  C   UNL     1       0.895  13.140  19.606  0.00  0.00    +0.000 A 
ATOM      7  C   UNL     1      -0.083  13.394  18.619  0.00  0.00    +0.000 A 
ATOM      8  C   UNL     1      -0.871  12.274  18.314  0.00  0.00    +0.000 A 
ATOM      9  N   UNL     1      -1.866  12.162  17.423  0.00  0.00    +0.000 NA
ENDROOT
BRANCH   6  10
ATOM     10  C   UNL     1       1.782  14.264  20.016  0.00  0.00    +0.000 C 
ATOM     11  O   UNL     1       2.271  14.980  19.152  0.00  0.00    +0.000 OA
ATOM     12  N   UNL     1       2.045  14.321  21.371  0.00  0.00    +0.000 N 
ATOM     13  C   UNL     1       2.875  15.267  21.921  0.00  0.00    +0.000 A 
ATOM     14  C   UNL     1       2.975  16.641  21.610  0.00  0.00    +0.000 A 
ATOM     15  C   UNL     1       3.987  17.115  22.411  0.00  0.00    +0.000 A 
ATOM     16  N   UNL     1       4.464  16.026  23.078  0.00  0.00    +0.000 N 
ATOM     17  C   UNL     1       5.698  15.938  23.817  0.00  0.00    +0.000 C 
ATOM     18  N   UNL     1       3.704  14.925  22.910  0.00  0.00    +0.000 NA
ATOM     19  H   UNL     1       1.978  13.478  21.923  0.00  0.00    +0.000 HD
ENDBRANCH   6  10
BRANCH   1  21
ATOM     20  C   UNL     1      -2.974  10.101  15.295  0.00  0.00    +0.000 C 
ATOM     21  C   UNL     1      -3.397  10.444  16.718  0.00  0.00    +0.000 C 
ENDBRANCH   1  21
BRANCH   4  22
ATOM     22  O   UNL     1       0.360   9.498  20.574  0.00  0.00    +0.000 OA
BRANCH  22  23
ATOM     23  C   UNL     1       1.202   8.560  20.033  0.00  0.00    +0.000 A 
ATOM     24  C   UNL     1       1.475   7.428  20.793  0.00  0.00    +0.000 A 
ATOM     25  N   UNL     1       2.256   6.398  20.376  0.00  0.00    +0.000 NA
ATOM     26  C   UNL     1       2.803   6.503  19.128  0.00  0.00    +0.000 A 
ATOM     27  C   UNL     1       2.627   7.632  18.334  0.00  0.00    +0.000 A 
ATOM     28  F   UNL     1       3.179   7.759  17.119  0.00  0.00    +0.000 F 
ATOM     29  C   UNL     1       1.842   8.681  18.805  0.00  0.00    +0.000 A 
BRANCH  26  30
ATOM     30  C   UNL     1       3.672   5.378  18.644  0.00  0.00    +0.000 C 
ATOM     31  O   UNL     1       4.837   5.588  18.305  0.00  0.00    +0.000 OA
ATOM     32  N   UNL     1       3.140   4.109  18.632  0.00  0.00    +0.000 N 
ATOM     33  C   UNL     1       3.805   2.897  18.174  0.00  0.00    +0.000 C 
ATOM     34  C   UNL     1       2.507   2.539  17.453  0.00  0.00    +0.000 C 
ATOM     35  C   UNL     1       1.814   3.672  18.213  0.00  0.00    +0.000 C 
ENDBRANCH  26  30
ENDBRANCH  22  23
ENDBRANCH   4  22
TORSDOF 5
ENDMDL
MODEL 9
REMARK VINA RESULT:      -8.1      2.523      8.671
REMARK  Name = 
REMARK  7 active torsions:
REMARK  status: ('A' for Active; 'I' for Inactive)
REMARK    1  A    between atoms: C_1  and  C_2
REMARK    2  A    between atoms: C_2  and  N_3
REMARK    3  A    between atoms: C_6  and  O_7
REMARK    4  A    between atoms: O_7  and  C_8
REMARK    5  A    between atoms: C_11  and  C_12
REMARK    6  A    between atoms: C_22  and  C_23
REMARK    7  A    between atoms: N_29  and  C_30
REMARK                            x       y       z     vdW  Elec       q    Type
REMARK                         _______ _______ _______ _____ _____    ______ ____
ROOT
ATOM      1  N   UNL     1       1.532  14.482  18.980  0.00  0.00    +0.000 N 
ATOM      2  C   UNL     1       0.964  13.983  20.119  0.00  0.00    +0.000 A 
ATOM      3  C   UNL     1       1.065  12.622  19.997  0.00  0.00    +0.000 A 
ATOM      4  C   UNL     1       0.625  11.660  20.911  0.00  0.00    +0.000 A 
ATOM      5  C   UNL     1       0.846  10.352  20.415  0.00  0.00    +0.000 A 
ATOM      6  C   UNL     1       1.537  10.070  19.185  0.00  0.00    +0.000 A 
ATOM      7  C   UNL     1       1.989  11.069  18.294  0.00  0.00    +0.000 A 
ATOM      8  C   UNL     1       1.720  12.373  18.736  0.00  0.00    +0.000 A 
ATOM      9  N   UNL     1       1.993  13.539  18.133  0.00  0.00    +0.000 NA
ENDROOT
BRANCH   6  10
ATOM     10  C   UNL     1       1.782   8.646  18.821  0.00  0.00    +0.000 C 
ATOM     11  O   UNL     1       1.689   8.310  17.648  0.00  0.00    +0.000 OA
ATOM     12  N   UNL     1       1.999   7.809  19.898  0.00  0.00    +0.000 N 
ATOM     13  C   UNL     1       2.202   6.459  19.752  0.00  0.00    +0.000 A 
ATOM     14  C   UNL     1       2.967   5.782  18.777  0.00  0.00    +0.000 A 
ATOM     15  C   UNL     1       2.795   4.446  19.053  0.00  0.00    +0.000 A 
ATOM     16  N   UNL     1       1.914   4.400  20.093  0.00  0.00    +0.000 N 
ATOM     17  C   UNL     1       1.196   3.242  20.565  0.00  0.00    +0.000 C 
ATOM     18  N   UNL     1       1.661   5.610  20.630  0.00  0.00    +0.000 NA
ATOM     19  H   UNL     1       1.630   8.062  20.803  0.00  0.00    +0.000 HD
ENDBRANCH   6  10
BRANCH   1  21
ATOM     20  C   UNL     1       2.328  16.677  19.777  0.00  0.00    +0.000 C 
ATOM     21  C   UNL     1       1.710  15.875  18.638  0.00  0.00    +0.000 C 
ENDBRANCH   1  21
BRANCH   4  22
ATOM     22  O   UNL     1       0.016  11.995  22.094  0.00  0.00    +0.000 OA
BRANCH  22  23
ATOM     23  C   UNL     1      -1.340  12.200  22.119  0.00  0.00    +0.000 A 
ATOM     24  C   UNL     1      -2.013  11.910  23.301  0.00  0.00    +0.000 A 
ATOM     25  N   UNL     1      -3.344  12.099  23.488  0.00  0.00    +0.000 NA
ATOM     26  C   UNL     1      -4.052  12.603  22.433  0.00  0.00    +0.000 A 
ATOM     27  C   UNL     1      -3.462  12.858  21.199  0.00  0.00    +0.000 A 
ATOM     28  F   UNL     1      -4.149  13.328  20.149  0.00  0.00    +0.000 F 
ATOM     29  C   UNL     1      -2.099  12.628  21.034  0.00  0.00    +0.000 A 
BRANCH  26  30
ATOM     30  C   UNL     1      -5.526  12.820  22.614  0.00  0.00    +0.000 C 
ATOM     31  O   UNL     1      -6.341  12.117  22.015  0.00  0.00    +0.000 OA
ATOM     32  N   UNL     1      -5.934  13.793  23.497  0.00  0.00    +0.000 N 
ATOM     33  C   UNL     1      -7.309  14.176  23.790  0.00  0.00    +0.000 C 
ATOM     34  C   UNL     1      -6.850  15.630  23.703  0.00  0.00    +0.000 C 
ATOM     35  C   UNL     1      -5.401  15.136  23.694  0.00  0.00    +0.000 C 
ENDBRANCH  26  30
ENDBRANCH  22  23
ENDBRANCH   4  22
TORSDOF 5
ENDMDL
