MODEL 1
REMARK VINA RESULT:      -4.7      0.000      0.000
REMARK  Name = 
REMARK  0 active torsions:
REMARK  status: ('A' for Active; 'I' for Inactive)
REMARK                            x       y       z     vdW  Elec       q    Type
REMARK                         _______ _______ _______ _____ _____    ______ ____
ROOT
ATOM      1  C   UNL     1       2.057  13.812  19.112  0.00  0.00    +0.000 C 
ATOM      2  C   UNL     1       0.946  13.721  20.136  0.00  0.00    +0.000 C 
ATOM      3  S   UNL     1       1.007  12.042  20.823  0.00  0.00    +0.000 S 
ATOM      4  C   UNL     1       1.369  11.217  19.321  0.00  0.00    +0.000 C 
ATOM      5  N   UNL     1       1.232   9.930  19.152  0.00  0.00    +0.000 N 
ATOM      6  C   UNL     1       0.698   8.990  20.208  0.00  0.00    +0.000 C 
ATOM      7  C   UNL     1       1.812   8.014  20.583  0.00  0.00    +0.000 C 
ATOM      8  N   UNL     1       2.242   7.250  19.340  0.00  0.00    +0.000 N 
ATOM      9  C   UNL     1       2.210   5.952  19.246  0.00  0.00    +0.000 C 
ATOM     10  S   UNL     1       2.833   5.050  17.881  0.00  0.00    +0.000 S 
ATOM     11  C   UNL     1       1.790   3.585  18.110  0.00  0.00    +0.000 C 
ATOM     12  C   UNL     1       1.687   3.319  19.597  0.00  0.00    +0.000 C 
ATOM     13  S   UNL     1       1.483   4.909  20.453  0.00  0.00    +0.000 S 
ATOM     14  C   UNL     1       2.719   8.173  18.225  0.00  0.00    +0.000 C 
ATOM     15  C   UNL     1       1.614   9.184  17.889  0.00  0.00    +0.000 C 
ATOM     16  S   UNL     1       1.985  12.307  18.092  0.00  0.00    +0.000 S 
ENDROOT
TORSDOF 0
ENDMDL
MODEL 2
REMARK VINA RESULT:      -4.6      2.141      6.682
REMARK  Name = 
REMARK  0 active torsions:
REMARK  status: ('A' for Active; 'I' for Inactive)
REMARK                            x       y       z     vdW  Elec       q    Type
REMARK                         _______ _______ _______ _____ _____    ______ ____
ROOT
ATOM      1  C   UNL     1       2.911   5.000  17.926  0.00  0.00    +0.000 C 
ATOM      2  C   UNL     1       3.297   4.592  19.331  0.00  0.00    +0.000 C 
ATOM      3  S   UNL     1       2.193   5.491  20.457  0.00  0.00    +0.000 S 
ATOM      4  C   UNL     1       2.181   7.002  19.572  0.00  0.00    +0.000 C 
ATOM      5  N   UNL     1       1.777   8.134  20.080  0.00  0.00    +0.000 N 
ATOM      6  C   UNL     1       1.314   8.302  21.509  0.00  0.00    +0.000 C 
ATOM      7  C   UNL     1      -0.160   8.704  21.487  0.00  0.00    +0.000 C 
ATOM      8  N   UNL     1      -0.309  10.004  20.709  0.00  0.00    +0.000 N 
ATOM      9  C   UNL     1      -0.832  11.085  21.208  0.00  0.00    +0.000 C 
ATOM     10  S   UNL     1      -1.142  12.542  20.288  0.00  0.00    +0.000 S 
ATOM     11  C   UNL     1      -1.091  13.687  21.693  0.00  0.00    +0.000 C 
ATOM     12  C   UNL     1      -1.769  13.010  22.865  0.00  0.00    +0.000 C 
ATOM     13  S   UNL     1      -1.256  11.268  22.900  0.00  0.00    +0.000 S 
ATOM     14  C   UNL     1       0.217   9.891  19.283  0.00  0.00    +0.000 C 
ATOM     15  C   UNL     1       1.682   9.437  19.310  0.00  0.00    +0.000 C 
ATOM     16  S   UNL     1       2.722   6.810  17.914  0.00  0.00    +0.000 S 
ENDROOT
TORSDOF 0
ENDMDL
MODEL 3
REMARK VINA RESULT:      -4.6      1.360      1.478
REMARK  Name = 
REMARK  0 active torsions:
REMARK  status: ('A' for Active; 'I' for Inactive)
REMARK                            x       y       z     vdW  Elec       q    Type
REMARK                         _______ _______ _______ _____ _____    ______ ____
ROOT
ATOM      1  C   UNL     1      -0.121  14.030  20.424  0.00  0.00    +0.000 C 
ATOM      2  C   UNL     1      -1.029  13.517  21.520  0.00  0.00    +0.000 C 
ATOM      3  S   UNL     1      -0.414  11.871  21.978  0.00  0.00    +0.000 S 
ATOM      4  C   UNL     1      -0.017  11.340  20.357  0.00  0.00    +0.000 C 
ATOM      5  N   UNL     1       0.195  10.094  20.037  0.00  0.00    +0.000 N 
ATOM      6  C   UNL     1       0.081   8.940  21.007  0.00  0.00    +0.000 C 
ATOM      7  C   UNL     1       1.462   8.304  21.155  0.00  0.00    +0.000 C 
ATOM      8  N   UNL     1       1.938   7.825  19.791  0.00  0.00    +0.000 N 
ATOM      9  C   UNL     1       2.263   6.591  19.535  0.00  0.00    +0.000 C 
ATOM     10  S   UNL     1       2.946   6.050  18.017  0.00  0.00    +0.000 S 
ATOM     11  C   UNL     1       2.396   4.327  18.146  0.00  0.00    +0.000 C 
ATOM     12  C   UNL     1       2.552   3.900  19.590  0.00  0.00    +0.000 C 
ATOM     13  S   UNL     1       2.011   5.267  20.657  0.00  0.00    +0.000 S 
ATOM     14  C   UNL     1       1.996   8.952  18.767  0.00  0.00    +0.000 C 
ATOM     15  C   UNL     1       0.619   9.620  18.660  0.00  0.00    +0.000 C 
ATOM     16  S   UNL     1       0.113  12.678  19.229  0.00  0.00    +0.000 S 
ENDROOT
TORSDOF 0
ENDMDL
MODEL 4
REMARK VINA RESULT:      -4.5      1.950      7.219
REMARK  Name = 
REMARK  0 active torsions:
REMARK  status: ('A' for Active; 'I' for Inactive)
REMARK                            x       y       z     vdW  Elec       q    Type
REMARK                         _______ _______ _______ _____ _____    ______ ____
ROOT
ATOM      1  C   UNL     1       4.294   1.776  20.109  0.00  0.00    +0.000 C 
ATOM      2  C   UNL     1       4.142   1.704  18.605  0.00  0.00    +0.000 C 
ATOM      3  S   UNL     1       3.932   3.410  18.020  0.00  0.00    +0.000 S 
ATOM      4  C   UNL     1       2.914   3.956  19.336  0.00  0.00    +0.000 C 
ATOM      5  N   UNL     1       2.199   5.046  19.292  0.00  0.00    +0.000 N 
ATOM      6  C   UNL     1       2.114   5.954  18.088  0.00  0.00    +0.000 C 
ATOM      7  C   UNL     1       2.704   7.310  18.472  0.00  0.00    +0.000 C 
ATOM      8  N   UNL     1       1.917   7.882  19.642  0.00  0.00    +0.000 N 
ATOM      9  C   UNL     1       1.314   9.035  19.609  0.00  0.00    +0.000 C 
ATOM     10  S   UNL     1       0.526   9.771  20.988  0.00  0.00    +0.000 S 
ATOM     11  C   UNL     1      -0.625  10.802  20.040  0.00  0.00    +0.000 C 
ATOM     12  C   UNL     1       0.119  11.337  18.835  0.00  0.00    +0.000 C 
ATOM     13  S   UNL     1       1.152  10.004  18.157  0.00  0.00    +0.000 S 
ATOM     14  C   UNL     1       1.920   6.956  20.852  0.00  0.00    +0.000 C 
ATOM     15  C   UNL     1       1.374   5.580  20.448  0.00  0.00    +0.000 C 
ATOM     16  S   UNL     1       3.008   2.900  20.735  0.00  0.00    +0.000 S 
ENDROOT
TORSDOF 0
ENDMDL
MODEL 5
REMARK VINA RESULT:      -4.5      1.413      6.692
REMARK  Name = 
REMARK  0 active torsions:
REMARK  status: ('A' for Active; 'I' for Inactive)
REMARK                            x       y       z     vdW  Elec       q    Type
REMARK                         _______ _______ _______ _____ _____    ______ ____
ROOT
ATOM      1  C   UNL     1       2.794   4.256  18.413  0.00  0.00    +0.000 C 
ATOM      2  C   UNL     1       3.019   4.131  19.904  0.00  0.00    +0.000 C 
ATOM      3  S   UNL     1       1.972   5.385  20.696  0.00  0.00    +0.000 S 
ATOM      4  C   UNL     1       2.232   6.649  19.511  0.00  0.00    +0.000 C 
ATOM      5  N   UNL     1       1.953   7.906  19.722  0.00  0.00    +0.000 N 
ATOM      6  C   UNL     1       1.416   8.445  21.028  0.00  0.00    +0.000 C 
ATOM      7  C   UNL     1       0.018   9.004  20.773  0.00  0.00    +0.000 C 
ATOM      8  N   UNL     1       0.105  10.103  19.724  0.00  0.00    +0.000 N 
ATOM      9  C   UNL     1      -0.298  11.324  19.926  0.00  0.00    +0.000 C 
ATOM     10  S   UNL     1      -0.337  12.562  18.689  0.00  0.00    +0.000 S 
ATOM     11  C   UNL     1      -0.229  13.980  19.814  0.00  0.00    +0.000 C 
ATOM     12  C   UNL     1      -1.076  13.670  21.030  0.00  0.00    +0.000 C 
ATOM     13  S   UNL     1      -0.813  11.932  21.488  0.00  0.00    +0.000 S 
ATOM     14  C   UNL     1       0.711   9.610  18.415  0.00  0.00    +0.000 C 
ATOM     15  C   UNL     1       2.093   9.004  18.686  0.00  0.00    +0.000 C 
ATOM     16  S   UNL     1       2.858   6.025  17.995  0.00  0.00    +0.000 S 
ENDROOT
TORSDOF 0
ENDMDL
MODEL 6
REMARK VINA RESULT:      -4.5      0.470      6.731
REMARK  Name = 
REMARK  0 active torsions:
REMARK  status: ('A' for Active; 'I' for Inactive)
REMARK                            x       y       z     vdW  Elec       q    Type
REMARK                         _______ _______ _______ _____ _____    ______ ____
ROOT
ATOM      1  C   UNL     1       1.955   3.087  18.276  0.00  0.00    +0.000 C 
ATOM      2  C   UNL     1       2.010   2.947  19.781  0.00  0.00    +0.000 C 
ATOM      3  S   UNL     1       1.374   4.499  20.474  0.00  0.00    +0.000 S 
ATOM      4  C   UNL     1       2.124   5.569  19.307  0.00  0.00    +0.000 C 
ATOM      5  N   UNL     1       2.257   6.854  19.486  0.00  0.00    +0.000 N 
ATOM      6  C   UNL     1       1.826   7.583  20.739  0.00  0.00    +0.000 C 
ATOM      7  C   UNL     1       0.712   8.558  20.363  0.00  0.00    +0.000 C 
ATOM      8  N   UNL     1       1.236   9.533  19.318  0.00  0.00    +0.000 N 
ATOM      9  C   UNL     1       1.241  10.824  19.477  0.00  0.00    +0.000 C 
ATOM     10  S   UNL     1       1.706  11.966  18.233  0.00  0.00    +0.000 S 
ATOM     11  C   UNL     1       2.184  13.308  19.355  0.00  0.00    +0.000 C 
ATOM     12  C   UNL     1       1.190  13.332  20.497  0.00  0.00    +0.000 C 
ATOM     13  S   UNL     1       0.834  11.619  20.987  0.00  0.00    +0.000 S 
ATOM     14  C   UNL     1       1.747   8.826  18.068  0.00  0.00    +0.000 C 
ATOM     15  C   UNL     1       2.829   7.811  18.458  0.00  0.00    +0.000 C 
ATOM     16  S   UNL     1       2.628   4.725  17.854  0.00  0.00    +0.000 S 
ENDROOT
TORSDOF 0
ENDMDL
MODEL 7
REMARK VINA RESULT:      -4.4      1.910      3.193
REMARK  Name = 
REMARK  0 active torsions:
REMARK  status: ('A' for Active; 'I' for Inactive)
REMARK                            x       y       z     vdW  Elec       q    Type
REMARK                         _______ _______ _______ _____ _____    ______ ____
ROOT
ATOM      1  C   UNL     1      -0.662  11.103  19.973  0.00  0.00    +0.000 C 
ATOM      2  C   UNL     1       0.319  11.551  18.912  0.00  0.00    +0.000 C 
ATOM      3  S   UNL     1       0.992  10.045  18.153  0.00  0.00    +0.000 S 
ATOM      4  C   UNL     1       1.115   9.109  19.628  0.00  0.00    +0.000 C 
ATOM      5  N   UNL     1       1.827   8.021  19.737  0.00  0.00    +0.000 N 
ATOM      6  C   UNL     1       2.677   7.453  18.624  0.00  0.00    +0.000 C 
ATOM      7  C   UNL     1       2.109   6.087  18.242  0.00  0.00    +0.000 C 
ATOM      8  N   UNL     1       2.131   5.179  19.463  0.00  0.00    +0.000 N 
ATOM      9  C   UNL     1       2.752   4.036  19.498  0.00  0.00    +0.000 C 
ATOM     10  S   UNL     1       2.671   2.916  20.842  0.00  0.00    +0.000 S 
ATOM     11  C   UNL     1       4.252   2.090  20.515  0.00  0.00    +0.000 C 
ATOM     12  C   UNL     1       4.392   1.937  19.015  0.00  0.00    +0.000 C 
ATOM     13  S   UNL     1       3.813   3.467  18.224  0.00  0.00    +0.000 S 
ATOM     14  C   UNL     1       1.343   5.758  20.632  0.00  0.00    +0.000 C 
ATOM     15  C   UNL     1       1.885   7.151  20.977  0.00  0.00    +0.000 C 
ATOM     16  S   UNL     1       0.132   9.769  20.923  0.00  0.00    +0.000 S 
ENDROOT
TORSDOF 0
ENDMDL
MODEL 8
REMARK VINA RESULT:      -4.3      2.318      3.383
REMARK  Name = 
REMARK  0 active torsions:
REMARK  status: ('A' for Active; 'I' for Inactive)
REMARK                            x       y       z     vdW  Elec       q    Type
REMARK                         _______ _______ _______ _____ _____    ______ ____
ROOT
ATOM      1  C   UNL     1      -2.414  12.301  22.538  0.00  0.00    +0.000 C 
ATOM      2  C   UNL     1      -1.804  13.352  21.636  0.00  0.00    +0.000 C 
ATOM      3  S   UNL     1      -0.939  12.463  20.311  0.00  0.00    +0.000 S 
ATOM      4  C   UNL     1      -0.299  11.175  21.310  0.00  0.00    +0.000 C 
ATOM      5  N   UNL     1       0.669  10.384  20.937  0.00  0.00    +0.000 N 
ATOM      6  C   UNL     1       1.399  10.504  19.618  0.00  0.00    +0.000 C 
ATOM      7  C   UNL     1       1.126   9.238  18.807  0.00  0.00    +0.000 C 
ATOM      8  N   UNL     1       1.614   8.029  19.593  0.00  0.00    +0.000 N 
ATOM      9  C   UNL     1       2.495   7.185  19.140  0.00  0.00    +0.000 C 
ATOM     10  S   UNL     1       2.962   5.714  19.968  0.00  0.00    +0.000 S 
ATOM     11  C   UNL     1       4.603   5.566  19.211  0.00  0.00    +0.000 C 
ATOM     12  C   UNL     1       4.479   5.969  17.757  0.00  0.00    +0.000 C 
ATOM     13  S   UNL     1       3.393   7.422  17.653  0.00  0.00    +0.000 S 
ATOM     14  C   UNL     1       0.951   7.919  20.961  0.00  0.00    +0.000 C 
ATOM     15  C   UNL     1       1.185   9.213  21.751  0.00  0.00    +0.000 C 
ATOM     16  S   UNL     1      -1.142  11.036  22.843  0.00  0.00    +0.000 S 
ENDROOT
TORSDOF 0
ENDMDL
MODEL 9
REMARK VINA RESULT:      -4.3      2.690      3.542
REMARK  Name = 
REMARK  0 active torsions:
REMARK  status: ('A' for Active; 'I' for Inactive)
REMARK                            x       y       z     vdW  Elec       q    Type
REMARK                         _______ _______ _______ _____ _____    ______ ____
ROOT
ATOM      1  C   UNL     1       0.456  10.873  21.215  0.00  0.00    +0.000 C 
ATOM      2  C   UNL     1      -0.105   9.671  21.942  0.00  0.00    +0.000 C 
ATOM      3  S   UNL     1       1.023   8.288  21.612  0.00  0.00    +0.000 S 
ATOM      4  C   UNL     1       1.340   8.676  19.934  0.00  0.00    +0.000 C 
ATOM      5  N   UNL     1       1.867   7.836  19.086  0.00  0.00    +0.000 N 
ATOM      6  C   UNL     1       2.228   6.408  19.422  0.00  0.00    +0.000 C 
ATOM      7  C   UNL     1       3.742   6.256  19.289  0.00  0.00    +0.000 C 
ATOM      8  N   UNL     1       4.153   6.600  17.864  0.00  0.00    +0.000 N 
ATOM      9  C   UNL     1       4.791   5.780  17.081  0.00  0.00    +0.000 C 
ATOM     10  S   UNL     1       5.395   6.208  15.494  0.00  0.00    +0.000 S 
ATOM     11  C   UNL     1       5.400   4.526  14.817  0.00  0.00    +0.000 C 
ATOM     12  C   UNL     1       5.866   3.588  15.911  0.00  0.00    +0.000 C 
ATOM     13  S   UNL     1       5.092   4.098  17.474  0.00  0.00    +0.000 S 
ATOM     14  C   UNL     1       3.739   8.012  17.466  0.00  0.00    +0.000 C 
ATOM     15  C   UNL     1       2.225   8.174  17.651  0.00  0.00    +0.000 C 
ATOM     16  S   UNL     1       0.919  10.333  19.540  0.00  0.00    +0.000 S 
ENDROOT
TORSDOF 0
ENDMDL
