MODEL 1
REMARK VINA RESULT:      -7.4      0.000      0.000
REMARK  Name = 
REMARK  5 active torsions:
REMARK  status: ('A' for Active; 'I' for Inactive)
REMARK    1  A    between atoms: C_1  and  N_2
REMARK    2  A    between atoms: C_3  and  S_4
REMARK    3  A    between atoms: S_4  and  C_7
REMARK    4  A    between atoms: C_19  and  C_20
REMARK    5  A    between atoms: C_20  and  N_21
REMARK                            x       y       z     vdW  Elec       q    Type
REMARK                         _______ _______ _______ _____ _____    ______ ____
ROOT
ATOM      1  S   UNL     1       3.120   5.936  18.588  0.00  0.00    +0.000 S 
ATOM      2  O   UNL     1       2.085   4.861  18.229  0.00  0.00    +0.000 OA
ATOM      3  O   UNL     1       3.637   5.336  19.905  0.00  0.00    +0.000 OA
ENDROOT
BRANCH   1   4
ATOM      4  C   UNL     1       2.235   7.431  18.998  0.00  0.00    +0.000 A 
ATOM      5  C   UNL     1       2.034   8.421  18.030  0.00  0.00    +0.000 A 
ATOM      6  C   UNL     1       1.381   9.610  18.366  0.00  0.00    +0.000 A 
ATOM      7  C   UNL     1       0.925   9.816  19.675  0.00  0.00    +0.000 A 
ATOM      8  C   UNL     1       0.298  11.019  20.036  0.00  0.00    +0.000 A 
ATOM      9  C   UNL     1      -0.142  11.216  21.348  0.00  0.00    +0.000 A 
ATOM     10  C   UNL     1       0.033  10.214  22.307  0.00  0.00    +0.000 A 
ATOM     11  C   UNL     1       0.653   9.013  21.963  0.00  0.00    +0.000 A 
ATOM     12  C   UNL     1       1.112   8.808  20.651  0.00  0.00    +0.000 A 
ATOM     13  C   UNL     1       1.762   7.618  20.302  0.00  0.00    +0.000 A 
ENDBRANCH   1   4
BRANCH   1  16
ATOM     14  C   UNL     1       4.600   3.449  16.794  0.00  0.00    +0.000 C 
ATOM     15  N   UNL     1       5.024   4.852  16.767  0.00  0.00    +0.000 N 
ATOM     16  C   UNL     1       4.499   5.913  17.424  0.00  0.00    +0.000 A 
ATOM     17  C   UNL     1       5.210   7.036  17.078  0.00  0.00    +0.000 A 
ATOM     18  N   UNL     1       6.181   6.697  16.208  0.00  0.00    +0.000 NA
ATOM     19  C   UNL     1       6.051   5.365  16.043  0.00  0.00    +0.000 A 
BRANCH  19  20
ATOM     20  C   UNL     1       6.947   4.584  15.119  0.00  0.00    +0.000 C 
BRANCH  20  21
ATOM     21  N   UNL     1       7.706   5.491  14.263  0.00  0.00    +0.000 NA
ATOM     22  H   UNL     1       7.599   5.193  13.266  0.00  0.00    +0.000 HD
ATOM     23  H   UNL     1       8.719   5.405  14.509  0.00  0.00    +0.000 HD
ENDBRANCH  20  21
ENDBRANCH  19  20
ENDBRANCH   1  16
TORSDOF 4
ENDMDL
MODEL 2
REMARK VINA RESULT:      -7.2      2.995      7.832
REMARK  Name = 
REMARK  5 active torsions:
REMARK  status: ('A' for Active; 'I' for Inactive)
REMARK    1  A    between atoms: C_1  and  N_2
REMARK    2  A    between atoms: C_3  and  S_4
REMARK    3  A    between atoms: S_4  and  C_7
REMARK    4  A    between atoms: C_19  and  C_20
REMARK    5  A    between atoms: C_20  and  N_21
REMARK                            x       y       z     vdW  Elec       q    Type
REMARK                         _______ _______ _______ _____ _____    ______ ____
ROOT
ATOM      1  S   UNL     1       4.418   4.335  18.206  0.00  0.00    +0.000 S 
ATOM      2  O   UNL     1       5.281   3.737  19.325  0.00  0.00    +0.000 OA
ATOM      3  O   UNL     1       3.481   3.141  17.966  0.00  0.00    +0.000 OA
ENDROOT
BRANCH   1   4
ATOM      4  C   UNL     1       5.444   4.505  16.756  0.00  0.00    +0.000 A 
ATOM      5  C   UNL     1       6.612   5.273  16.802  0.00  0.00    +0.000 A 
ATOM      6  C   UNL     1       7.389   5.441  15.653  0.00  0.00    +0.000 A 
ATOM      7  C   UNL     1       7.001   4.841  14.447  0.00  0.00    +0.000 A 
ATOM      8  C   UNL     1       7.754   5.029  13.277  0.00  0.00    +0.000 A 
ATOM      9  C   UNL     1       7.348   4.433  12.079  0.00  0.00    +0.000 A 
ATOM     10  C   UNL     1       6.197   3.641  12.041  0.00  0.00    +0.000 A 
ATOM     11  C   UNL     1       5.441   3.444  13.196  0.00  0.00    +0.000 A 
ATOM     12  C   UNL     1       5.829   4.048  14.403  0.00  0.00    +0.000 A 
ATOM     13  C   UNL     1       5.062   3.882  15.562  0.00  0.00    +0.000 A 
ENDBRANCH   1   4
BRANCH   1  16
ATOM     14  C   UNL     1       2.404   4.643  20.934  0.00  0.00    +0.000 C 
ATOM     15  N   UNL     1       2.612   5.697  19.938  0.00  0.00    +0.000 N 
ATOM     16  C   UNL     1       3.397   5.684  18.835  0.00  0.00    +0.000 A 
ATOM     17  C   UNL     1       3.292   6.903  18.210  0.00  0.00    +0.000 A 
ATOM     18  N   UNL     1       2.450   7.689  18.906  0.00  0.00    +0.000 NA
ATOM     19  C   UNL     1       2.045   6.931  19.946  0.00  0.00    +0.000 A 
BRANCH  19  20
ATOM     20  C   UNL     1       1.096   7.451  20.992  0.00  0.00    +0.000 C 
BRANCH  20  21
ATOM     21  N   UNL     1       1.762   8.440  21.833  0.00  0.00    +0.000 NA
ATOM     22  H   UNL     1       2.731   8.110  22.050  0.00  0.00    +0.000 HD
ATOM     23  H   UNL     1       1.243   8.505  22.739  0.00  0.00    +0.000 HD
ENDBRANCH  20  21
ENDBRANCH  19  20
ENDBRANCH   1  16
TORSDOF 4
ENDMDL
MODEL 3
REMARK VINA RESULT:      -7.1      3.883      7.978
REMARK  Name = 
REMARK  5 active torsions:
REMARK  status: ('A' for Active; 'I' for Inactive)
REMARK    1  A    between atoms: C_1  and  N_2
REMARK    2  A    between atoms: C_3  and  S_4
REMARK    3  A    between atoms: S_4  and  C_7
REMARK    4  A    between atoms: C_19  and  C_20
REMARK    5  A    between atoms: C_20  and  N_21
REMARK                            x       y       z     vdW  Elec       q    Type
REMARK                         _______ _______ _______ _____ _____    ______ ____
ROOT
ATOM      1  S   UNL     1       4.875   5.409  18.075  0.00  0.00    +0.000 S 
ATOM      2  O   UNL     1       4.173   6.770  17.978  0.00  0.00    +0.000 OA
ATOM      3  O   UNL     1       5.948   5.770  19.114  0.00  0.00    +0.000 OA
ENDROOT
BRANCH   1   4
ATOM      4  C   UNL     1       5.714   5.116  16.527  0.00  0.00    +0.000 A 
ATOM      5  C   UNL     1       7.002   5.618  16.315  0.00  0.00    +0.000 A 
ATOM      6  C   UNL     1       7.638   5.426  15.085  0.00  0.00    +0.000 A 
ATOM      7  C   UNL     1       6.987   4.729  14.058  0.00  0.00    +0.000 A 
ATOM      8  C   UNL     1       7.600   4.558  12.806  0.00  0.00    +0.000 A 
ATOM      9  C   UNL     1       6.933   3.871  11.787  0.00  0.00    +0.000 A 
ATOM     10  C   UNL     1       5.658   3.344  12.010  0.00  0.00    +0.000 A 
ATOM     11  C   UNL     1       5.038   3.505  13.248  0.00  0.00    +0.000 A 
ATOM     12  C   UNL     1       5.690   4.205  14.277  0.00  0.00    +0.000 A 
ATOM     13  C   UNL     1       5.065   4.398  15.515  0.00  0.00    +0.000 A 
ENDBRANCH   1   4
BRANCH   1  16
ATOM     14  C   UNL     1       2.240   5.653  20.216  0.00  0.00    +0.000 C 
ATOM     15  N   UNL     1       2.771   4.388  19.701  0.00  0.00    +0.000 N 
ATOM     16  C   UNL     1       3.796   4.182  18.841  0.00  0.00    +0.000 A 
ATOM     17  C   UNL     1       3.924   2.831  18.629  0.00  0.00    +0.000 A 
ATOM     18  N   UNL     1       2.989   2.178  19.346  0.00  0.00    +0.000 NA
ATOM     19  C   UNL     1       2.308   3.145  19.994  0.00  0.00    +0.000 A 
BRANCH  19  20
ATOM     20  C   UNL     1       1.149   2.835  20.902  0.00  0.00    +0.000 C 
BRANCH  20  21
ATOM     21  N   UNL     1       1.630   2.482  22.235  0.00  0.00    +0.000 NA
ATOM     22  H   UNL     1       2.531   1.957  22.147  0.00  0.00    +0.000 HD
ATOM     23  H   UNL     1       0.934   1.838  22.676  0.00  0.00    +0.000 HD
ENDBRANCH  20  21
ENDBRANCH  19  20
ENDBRANCH   1  16
TORSDOF 4
ENDMDL
MODEL 4
REMARK VINA RESULT:      -7.1      1.675      2.770
REMARK  Name = 
REMARK  5 active torsions:
REMARK  status: ('A' for Active; 'I' for Inactive)
REMARK    1  A    between atoms: C_1  and  N_2
REMARK    2  A    between atoms: C_3  and  S_4
REMARK    3  A    between atoms: S_4  and  C_7
REMARK    4  A    between atoms: C_19  and  C_20
REMARK    5  A    between atoms: C_20  and  N_21
REMARK                            x       y       z     vdW  Elec       q    Type
REMARK                         _______ _______ _______ _____ _____    ______ ____
ROOT
ATOM      1  S   UNL     1       4.531   4.134  18.241  0.00  0.00    +0.000 S 
ATOM      2  O   UNL     1       3.583   3.008  17.806  0.00  0.00    +0.000 OA
ATOM      3  O   UNL     1       5.182   3.442  19.449  0.00  0.00    +0.000 OA
ENDROOT
BRANCH   1   4
ATOM      4  C   UNL     1       3.534   5.474  18.871  0.00  0.00    +0.000 A 
ATOM      5  C   UNL     1       2.926   5.373  20.126  0.00  0.00    +0.000 A 
ATOM      6  C   UNL     1       2.109   6.404  20.597  0.00  0.00    +0.000 A 
ATOM      7  C   UNL     1       1.895   7.546  19.812  0.00  0.00    +0.000 A 
ATOM      8  C   UNL     1       1.049   8.575  20.256  0.00  0.00    +0.000 A 
ATOM      9  C   UNL     1       0.835   9.702  19.457  0.00  0.00    +0.000 A 
ATOM     10  C   UNL     1       1.467   9.815  18.216  0.00  0.00    +0.000 A 
ATOM     11  C   UNL     1       2.310   8.802  17.762  0.00  0.00    +0.000 A 
ATOM     12  C   UNL     1       2.523   7.657  18.548  0.00  0.00    +0.000 A 
ATOM     13  C   UNL     1       3.344   6.620  18.090  0.00  0.00    +0.000 A 
ENDBRANCH   1   4
BRANCH   1  16
ATOM     14  C   UNL     1       4.513   4.330  14.842  0.00  0.00    +0.000 C 
ATOM     15  N   UNL     1       5.718   4.434  15.669  0.00  0.00    +0.000 N 
ATOM     16  C   UNL     1       5.833   4.386  17.017  0.00  0.00    +0.000 A 
ATOM     17  C   UNL     1       7.157   4.546  17.349  0.00  0.00    +0.000 A 
ATOM     18  N   UNL     1       7.882   4.696  16.224  0.00  0.00    +0.000 NA
ATOM     19  C   UNL     1       6.987   4.616  15.219  0.00  0.00    +0.000 A 
BRANCH  19  20
ATOM     20  C   UNL     1       7.391   4.755  13.776  0.00  0.00    +0.000 C 
BRANCH  20  21
ATOM     21  N   UNL     1       8.475   5.724  13.645  0.00  0.00    +0.000 NA
ATOM     22  H   UNL     1       8.075   6.691  13.664  0.00  0.00    +0.000 HD
ATOM     23  H   UNL     1       8.925   5.590  12.710  0.00  0.00    +0.000 HD
ENDBRANCH  20  21
ENDBRANCH  19  20
ENDBRANCH   1  16
TORSDOF 4
ENDMDL
MODEL 5
REMARK VINA RESULT:      -7.1      1.070      1.151
REMARK  Name = 
REMARK  5 active torsions:
REMARK  status: ('A' for Active; 'I' for Inactive)
REMARK    1  A    between atoms: C_1  and  N_2
REMARK    2  A    between atoms: C_3  and  S_4
REMARK    3  A    between atoms: S_4  and  C_7
REMARK    4  A    between atoms: C_19  and  C_20
REMARK    5  A    between atoms: C_20  and  N_21
REMARK                            x       y       z     vdW  Elec       q    Type
REMARK                         _______ _______ _______ _____ _____    ______ ____
ROOT
ATOM      1  S   UNL     1       4.280   5.594  18.493  0.00  0.00    +0.000 S 
ATOM      2  O   UNL     1       3.496   4.274  18.471  0.00  0.00    +0.000 OA
ATOM      3  O   UNL     1       5.011   5.412  19.832  0.00  0.00    +0.000 OA
ENDROOT
BRANCH   1   4
ATOM      4  C   UNL     1       3.106   6.922  18.706  0.00  0.00    +0.000 A 
ATOM      5  C   UNL     1       2.912   7.863  17.689  0.00  0.00    +0.000 A 
ATOM      6  C   UNL     1       2.026   8.927  17.877  0.00  0.00    +0.000 A 
ATOM      7  C   UNL     1       1.329   9.058  19.086  0.00  0.00    +0.000 A 
ATOM      8  C   UNL     1       0.462  10.141  19.301  0.00  0.00    +0.000 A 
ATOM      9  C   UNL     1      -0.218  10.264  20.517  0.00  0.00    +0.000 A 
ATOM     10  C   UNL     1      -0.045   9.308  21.521  0.00  0.00    +0.000 A 
ATOM     11  C   UNL     1       0.812   8.226  21.320  0.00  0.00    +0.000 A 
ATOM     12  C   UNL     1       1.512   8.097  20.109  0.00  0.00    +0.000 A 
ATOM     13  C   UNL     1       2.397   7.031  19.908  0.00  0.00    +0.000 A 
ENDBRANCH   1   4
BRANCH   1  16
ATOM     14  C   UNL     1       4.693   3.807  15.625  0.00  0.00    +0.000 C 
ATOM     15  N   UNL     1       5.621   4.839  16.096  0.00  0.00    +0.000 N 
ATOM     16  C   UNL     1       5.543   5.612  17.204  0.00  0.00    +0.000 A 
ATOM     17  C   UNL     1       6.629   6.453  17.228  0.00  0.00    +0.000 A 
ATOM     18  N   UNL     1       7.394   6.221  16.144  0.00  0.00    +0.000 NA
ATOM     19  C   UNL     1       6.765   5.231  15.478  0.00  0.00    +0.000 A 
BRANCH  19  20
ATOM     20  C   UNL     1       7.292   4.681  14.181  0.00  0.00    +0.000 C 
BRANCH  20  21
ATOM     21  N   UNL     1       8.186   5.645  13.547  0.00  0.00    +0.000 NA
ATOM     22  H   UNL     1       7.664   6.536  13.375  0.00  0.00    +0.000 HD
ATOM     23  H   UNL     1       8.473   5.265  12.616  0.00  0.00    +0.000 HD
ENDBRANCH  20  21
ENDBRANCH  19  20
ENDBRANCH   1  16
TORSDOF 4
ENDMDL
MODEL 6
REMARK VINA RESULT:      -7.0      2.777      7.734
REMARK  Name = 
REMARK  5 active torsions:
REMARK  status: ('A' for Active; 'I' for Inactive)
REMARK    1  A    between atoms: C_1  and  N_2
REMARK    2  A    between atoms: C_3  and  S_4
REMARK    3  A    between atoms: S_4  and  C_7
REMARK    4  A    between atoms: C_19  and  C_20
REMARK    5  A    between atoms: C_20  and  N_21
REMARK                            x       y       z     vdW  Elec       q    Type
REMARK                         _______ _______ _______ _____ _____    ______ ____
ROOT
ATOM      1  S   UNL     1       4.371   3.734  18.483  0.00  0.00    +0.000 S 
ATOM      2  O   UNL     1       5.233   2.976  19.502  0.00  0.00    +0.000 OA
ATOM      3  O   UNL     1       3.472   2.574  18.025  0.00  0.00    +0.000 OA
ENDROOT
BRANCH   1   4
ATOM      4  C   UNL     1       5.415   4.172  17.103  0.00  0.00    +0.000 A 
ATOM      5  C   UNL     1       6.490   5.049  17.281  0.00  0.00    +0.000 A 
ATOM      6  C   UNL     1       7.278   5.426  16.190  0.00  0.00    +0.000 A 
ATOM      7  C   UNL     1       6.995   4.926  14.911  0.00  0.00    +0.000 A 
ATOM      8  C   UNL     1       7.756   5.322  13.801  0.00  0.00    +0.000 A 
ATOM      9  C   UNL     1       7.454   4.825  12.530  0.00  0.00    +0.000 A 
ATOM     10  C   UNL     1       6.399   3.925  12.358  0.00  0.00    +0.000 A 
ATOM     11  C   UNL     1       5.635   3.521  13.452  0.00  0.00    +0.000 A 
ATOM     12  C   UNL     1       5.918   4.024  14.733  0.00  0.00    +0.000 A 
ATOM     13  C   UNL     1       5.139   3.649  15.834  0.00  0.00    +0.000 A 
ENDBRANCH   1   4
BRANCH   1  16
ATOM     14  C   UNL     1       3.622   6.995  17.856  0.00  0.00    +0.000 C 
ATOM     15  N   UNL     1       3.084   6.226  18.981  0.00  0.00    +0.000 N 
ATOM     16  C   UNL     1       3.303   4.931  19.309  0.00  0.00    +0.000 A 
ATOM     17  C   UNL     1       2.571   4.635  20.434  0.00  0.00    +0.000 A 
ATOM     18  N   UNL     1       1.891   5.731  20.822  0.00  0.00    +0.000 NA
ATOM     19  C   UNL     1       2.225   6.684  19.928  0.00  0.00    +0.000 A 
BRANCH  19  20
ATOM     20  C   UNL     1       1.657   8.076  19.994  0.00  0.00    +0.000 C 
BRANCH  20  21
ATOM     21  N   UNL     1       1.534   8.507  21.383  0.00  0.00    +0.000 NA
ATOM     22  H   UNL     1       2.370   9.081  21.640  0.00  0.00    +0.000 HD
ATOM     23  H   UNL     1       1.536   7.658  21.994  0.00  0.00    +0.000 HD
ENDBRANCH  20  21
ENDBRANCH  19  20
ENDBRANCH   1  16
TORSDOF 4
ENDMDL
MODEL 7
REMARK VINA RESULT:      -7.0      1.367      2.367
REMARK  Name = 
REMARK  5 active torsions:
REMARK  status: ('A' for Active; 'I' for Inactive)
REMARK    1  A    between atoms: C_1  and  N_2
REMARK    2  A    between atoms: C_3  and  S_4
REMARK    3  A    between atoms: S_4  and  C_7
REMARK    4  A    between atoms: C_19  and  C_20
REMARK    5  A    between atoms: C_20  and  N_21
REMARK                            x       y       z     vdW  Elec       q    Type
REMARK                         _______ _______ _______ _____ _____    ______ ____
ROOT
ATOM      1  S   UNL     1       2.758   4.790  19.064  0.00  0.00    +0.000 S 
ATOM      2  O   UNL     1       1.526   3.960  18.678  0.00  0.00    +0.000 OA
ATOM      3  O   UNL     1       3.142   4.056  20.358  0.00  0.00    +0.000 OA
ENDROOT
BRANCH   1   4
ATOM      4  C   UNL     1       2.195   6.420  19.526  0.00  0.00    +0.000 A 
ATOM      5  C   UNL     1       1.610   6.637  20.778  0.00  0.00    +0.000 A 
ATOM      6  C   UNL     1       1.129   7.904  21.119  0.00  0.00    +0.000 A 
ATOM      7  C   UNL     1       1.229   8.963  20.206  0.00  0.00    +0.000 A 
ATOM      8  C   UNL     1       0.719  10.233  20.521  0.00  0.00    +0.000 A 
ATOM      9  C   UNL     1       0.816  11.277  19.597  0.00  0.00    +0.000 A 
ATOM     10  C   UNL     1       1.427  11.066  18.358  0.00  0.00    +0.000 A 
ATOM     11  C   UNL     1       1.939   9.811  18.032  0.00  0.00    +0.000 A 
ATOM     12  C   UNL     1       1.836   8.749  18.946  0.00  0.00    +0.000 A 
ATOM     13  C   UNL     1       2.321   7.477  18.617  0.00  0.00    +0.000 A 
ENDBRANCH   1   4
BRANCH   1  16
ATOM     14  C   UNL     1       6.093   5.469  19.168  0.00  0.00    +0.000 C 
ATOM     15  N   UNL     1       5.411   4.849  18.029  0.00  0.00    +0.000 N 
ATOM     16  C   UNL     1       4.104   4.525  17.892  0.00  0.00    +0.000 A 
ATOM     17  C   UNL     1       3.924   3.947  16.658  0.00  0.00    +0.000 A 
ATOM     18  N   UNL     1       5.105   3.902  16.012  0.00  0.00    +0.000 NA
ATOM     19  C   UNL     1       5.989   4.463  16.862  0.00  0.00    +0.000 A 
BRANCH  19  20
ATOM     20  C   UNL     1       7.450   4.591  16.525  0.00  0.00    +0.000 C 
BRANCH  20  21
ATOM     21  N   UNL     1       7.617   5.281  15.249  0.00  0.00    +0.000 NA
ATOM     22  H   UNL     1       7.141   4.731  14.496  0.00  0.00    +0.000 HD
ATOM     23  H   UNL     1       8.637   5.308  15.020  0.00  0.00    +0.000 HD
ENDBRANCH  20  21
ENDBRANCH  19  20
ENDBRANCH   1  16
TORSDOF 4
ENDMDL
MODEL 8
REMARK VINA RESULT:      -7.0      1.149      1.573
REMARK  Name = 
REMARK  5 active torsions:
REMARK  status: ('A' for Active; 'I' for Inactive)
REMARK    1  A    between atoms: C_1  and  N_2
REMARK    2  A    between atoms: C_3  and  S_4
REMARK    3  A    between atoms: S_4  and  C_7
REMARK    4  A    between atoms: C_19  and  C_20
REMARK    5  A    between atoms: C_20  and  N_21
REMARK                            x       y       z     vdW  Elec       q    Type
REMARK                         _______ _______ _______ _____ _____    ______ ____
ROOT
ATOM      1  S   UNL     1       2.749   5.037  19.136  0.00  0.00    +0.000 S 
ATOM      2  O   UNL     1       1.536   4.116  18.944  0.00  0.00    +0.000 OA
ATOM      3  O   UNL     1       3.191   4.560  20.528  0.00  0.00    +0.000 OA
ENDROOT
BRANCH   1   4
ATOM      4  C   UNL     1       2.143   6.706  19.315  0.00  0.00    +0.000 A 
ATOM      5  C   UNL     1       2.219   7.605  18.246  0.00  0.00    +0.000 A 
ATOM      6  C   UNL     1       1.786   8.924  18.404  0.00  0.00    +0.000 A 
ATOM      7  C   UNL     1       1.272   9.353  19.635  0.00  0.00    +0.000 A 
ATOM      8  C   UNL     1       0.865  10.684  19.819  0.00  0.00    +0.000 A 
ATOM      9  C   UNL     1       0.366  11.101  21.056  0.00  0.00    +0.000 A 
ATOM     10  C   UNL     1       0.262  10.195  22.115  0.00  0.00    +0.000 A 
ATOM     11  C   UNL     1       0.661   8.870  21.947  0.00  0.00    +0.000 A 
ATOM     12  C   UNL     1       1.178   8.441  20.713  0.00  0.00    +0.000 A 
ATOM     13  C   UNL     1       1.610   7.120  20.542  0.00  0.00    +0.000 A 
ENDBRANCH   1   4
BRANCH   1  16
ATOM     14  C   UNL     1       6.080   5.738  19.066  0.00  0.00    +0.000 C 
ATOM     15  N   UNL     1       5.380   4.951  18.047  0.00  0.00    +0.000 N 
ATOM     16  C   UNL     1       4.072   4.604  17.989  0.00  0.00    +0.000 A 
ATOM     17  C   UNL     1       3.872   3.846  16.860  0.00  0.00    +0.000 A 
ATOM     18  N   UNL     1       5.039   3.709  16.204  0.00  0.00    +0.000 NA
ATOM     19  C   UNL     1       5.936   4.395  16.940  0.00  0.00    +0.000 A 
BRANCH  19  20
ATOM     20  C   UNL     1       7.389   4.478  16.556  0.00  0.00    +0.000 C 
BRANCH  20  21
ATOM     21  N   UNL     1       7.576   5.456  15.489  0.00  0.00    +0.000 NA
ATOM     22  H   UNL     1       7.025   5.159  14.650  0.00  0.00    +0.000 HD
ATOM     23  H   UNL     1       8.586   5.457  15.216  0.00  0.00    +0.000 HD
ENDBRANCH  20  21
ENDBRANCH  19  20
ENDBRANCH   1  16
TORSDOF 4
ENDMDL
MODEL 9
REMARK VINA RESULT:      -6.9      4.388      7.887
REMARK  Name = 
REMARK  5 active torsions:
REMARK  status: ('A' for Active; 'I' for Inactive)
REMARK    1  A    between atoms: C_1  and  N_2
REMARK    2  A    between atoms: C_3  and  S_4
REMARK    3  A    between atoms: S_4  and  C_7
REMARK    4  A    between atoms: C_19  and  C_20
REMARK    5  A    between atoms: C_20  and  N_21
REMARK                            x       y       z     vdW  Elec       q    Type
REMARK                         _______ _______ _______ _____ _____    ______ ____
ROOT
ATOM      1  S   UNL     1       5.409   4.983  18.329  0.00  0.00    +0.000 S 
ATOM      2  O   UNL     1       5.069   6.458  18.582  0.00  0.00    +0.000 OA
ATOM      3  O   UNL     1       6.591   4.843  19.301  0.00  0.00    +0.000 OA
ENDROOT
BRANCH   1   4
ATOM      4  C   UNL     1       6.065   4.852  16.674  0.00  0.00    +0.000 A 
ATOM      5  C   UNL     1       7.270   5.480  16.339  0.00  0.00    +0.000 A 
ATOM      6  C   UNL     1       7.758   5.413  15.031  0.00  0.00    +0.000 A 
ATOM      7  C   UNL     1       7.041   4.716  14.048  0.00  0.00    +0.000 A 
ATOM      8  C   UNL     1       7.502   4.669  12.723  0.00  0.00    +0.000 A 
ATOM      9  C   UNL     1       6.771   3.981  11.750  0.00  0.00    +0.000 A 
ATOM     10  C   UNL     1       5.583   3.329  12.092  0.00  0.00    +0.000 A 
ATOM     11  C   UNL     1       5.114   3.365  13.405  0.00  0.00    +0.000 A 
ATOM     12  C   UNL     1       5.832   4.065  14.389  0.00  0.00    +0.000 A 
ATOM     13  C   UNL     1       5.355   4.134  15.704  0.00  0.00    +0.000 A 
ENDBRANCH   1   4
BRANCH   1  16
ATOM     14  C   UNL     1       2.027   5.001  17.944  0.00  0.00    +0.000 C 
ATOM     15  N   UNL     1       2.762   4.013  18.737  0.00  0.00    +0.000 N 
ATOM     16  C   UNL     1       4.097   3.907  18.940  0.00  0.00    +0.000 A 
ATOM     17  C   UNL     1       4.332   2.813  19.738  0.00  0.00    +0.000 A 
ATOM     18  N   UNL     1       3.159   2.225  20.042  0.00  0.00    +0.000 NA
ATOM     19  C   UNL     1       2.222   2.976  19.429  0.00  0.00    +0.000 A 
BRANCH  19  20
ATOM     20  C   UNL     1       0.757   2.644  19.503  0.00  0.00    +0.000 C 
BRANCH  20  21
ATOM     21  N   UNL     1       0.366   1.819  18.363  0.00  0.00    +0.000 NA
ATOM     22  H   UNL     1       0.354   0.814  18.655  0.00  0.00    +0.000 HD
ATOM     23  H   UNL     1       1.093   1.920  17.619  0.00  0.00    +0.000 HD
ENDBRANCH  20  21
ENDBRANCH  19  20
ENDBRANCH   1  16
TORSDOF 4
ENDMDL
