MODEL 1
REMARK VINA RESULT:      -9.0      0.000      0.000
REMARK  Name = 
REMARK  5 active torsions:
REMARK  status: ('A' for Active; 'I' for Inactive)
REMARK    1  A    between atoms: C_5  and  C_6
REMARK    2  A    between atoms: C_9  and  C_10
REMARK    3  A    between atoms: C_15  and  S_16
REMARK    4  A    between atoms: S_16  and  N_19
REMARK    5  A    between atoms: N_19  and  C_20
REMARK                            x       y       z     vdW  Elec       q    Type
REMARK                         _______ _______ _______ _____ _____    ______ ____
ROOT
ATOM      1  C   UNL     1       2.722   5.027  18.992  0.00  0.00    +0.000 A 
ATOM      2  C   UNL     1       1.657   4.107  19.211  0.00  0.00    +0.000 A 
ATOM      3  C   UNL     1       1.831   2.720  19.252  0.00  0.00    +0.000 A 
ATOM      4  C   UNL     1       3.085   2.180  19.055  0.00  0.00    +0.000 A 
ATOM      5  C   UNL     1       4.156   3.033  18.820  0.00  0.00    +0.000 A 
ATOM      6  C   UNL     1       3.995   4.440  18.780  0.00  0.00    +0.000 A 
ENDROOT
BRANCH   1  10
ATOM      7  C   UNL     1       1.474   9.229  19.039  0.00  0.00    +0.000 A 
ATOM      8  C   UNL     1       1.865   8.593  17.852  0.00  0.00    +0.000 A 
ATOM      9  C   UNL     1       2.245   7.243  17.826  0.00  0.00    +0.000 A 
ATOM     10  C   UNL     1       2.360   6.476  18.989  0.00  0.00    +0.000 A 
ATOM     11  C   UNL     1       2.011   7.138  20.186  0.00  0.00    +0.000 A 
ATOM     12  C   UNL     1       1.550   8.460  20.200  0.00  0.00    +0.000 A 
ATOM     13  F   UNL     1       1.132   8.953  21.376  0.00  0.00    +0.000 F 
BRANCH   7  18
ATOM     14  N   UNL     1      -0.479  14.432  18.590  0.00  0.00    +0.000 N 
ATOM     15  C   UNL     1       0.014  13.146  18.781  0.00  0.00    +0.000 A 
ATOM     16  C   UNL     1       1.337  12.815  18.512  0.00  0.00    +0.000 A 
ATOM     17  N   UNL     1       1.828  11.559  18.631  0.00  0.00    +0.000 NA
ATOM     18  C   UNL     1       0.941  10.598  19.008  0.00  0.00    +0.000 A 
ATOM     19  C   UNL     1      -0.378  10.947  19.292  0.00  0.00    +0.000 A 
ATOM     20  N   UNL     1      -0.864  12.214  19.185  0.00  0.00    +0.000 NA
ATOM     21  H   UNL     1       0.070  15.131  19.075  0.00  0.00    +0.000 HD
ATOM     22  H   UNL     1      -1.449  14.426  18.894  0.00  0.00    +0.000 HD
ENDBRANCH   7  18
ENDBRANCH   1  10
BRANCH   6  23
ATOM     23  S   UNL     1       5.529   5.323  18.494  0.00  0.00    +0.000 S 
ATOM     24  O   UNL     1       5.283   6.462  17.634  0.00  0.00    +0.000 OA
ATOM     25  O   UNL     1       6.193   5.534  19.764  0.00  0.00    +0.000 OA
BRANCH  23  26
ATOM     26  N   UNL     1       6.472   4.209  17.608  0.00  0.00    +0.000 N 
ATOM     27  H   UNL     1       6.277   3.268  17.953  0.00  0.00    +0.000 HD
BRANCH  26  28
ATOM     28  C   UNL     1       6.480   4.336  16.184  0.00  0.00    +0.000 A 
ATOM     29  C   UNL     1       5.474   3.709  15.448  0.00  0.00    +0.000 A 
ATOM     30  C   UNL     1       5.489   3.767  14.054  0.00  0.00    +0.000 A 
ATOM     31  C   UNL     1       6.507   4.455  13.395  0.00  0.00    +0.000 A 
ATOM     32  C   UNL     1       7.511   5.087  14.132  0.00  0.00    +0.000 A 
ATOM     33  C   UNL     1       7.498   5.027  15.528  0.00  0.00    +0.000 A 
ENDBRANCH  26  28
ENDBRANCH  23  26
ENDBRANCH   6  23
TORSDOF 5
ENDMDL
MODEL 2
REMARK VINA RESULT:      -9.0      1.071      1.262
REMARK  Name = 
REMARK  5 active torsions:
REMARK  status: ('A' for Active; 'I' for Inactive)
REMARK    1  A    between atoms: C_5  and  C_6
REMARK    2  A    between atoms: C_9  and  C_10
REMARK    3  A    between atoms: C_15  and  S_16
REMARK    4  A    between atoms: S_16  and  N_19
REMARK    5  A    between atoms: N_19  and  C_20
REMARK                            x       y       z     vdW  Elec       q    Type
REMARK                         _______ _______ _______ _____ _____    ______ ____
ROOT
ATOM      1  C   UNL     1       3.104   5.494  18.102  0.00  0.00    +0.000 A 
ATOM      2  C   UNL     1       2.294   4.447  18.627  0.00  0.00    +0.000 A 
ATOM      3  C   UNL     1       2.608   3.089  18.502  0.00  0.00    +0.000 A 
ATOM      4  C   UNL     1       3.747   2.710  17.821  0.00  0.00    +0.000 A 
ATOM      5  C   UNL     1       4.564   3.692  17.275  0.00  0.00    +0.000 A 
ATOM      6  C   UNL     1       4.259   5.070  17.398  0.00  0.00    +0.000 A 
ENDROOT
BRANCH   1  10
ATOM      7  C   UNL     1       1.512   9.513  18.827  0.00  0.00    +0.000 A 
ATOM      8  C   UNL     1       1.989   9.130  17.566  0.00  0.00    +0.000 A 
ATOM      9  C   UNL     1       2.480   7.838  17.321  0.00  0.00    +0.000 A 
ATOM     10  C   UNL     1       2.624   6.889  18.337  0.00  0.00    +0.000 A 
ATOM     11  C   UNL     1       2.187   7.299  19.614  0.00  0.00    +0.000 A 
ATOM     12  C   UNL     1       1.619   8.559  19.839  0.00  0.00    +0.000 A 
ATOM     13  F   UNL     1       1.128   8.803  21.064  0.00  0.00    +0.000 F 
BRANCH   7  18
ATOM     14  N   UNL     1      -0.837  14.555  19.214  0.00  0.00    +0.000 N 
ATOM     15  C   UNL     1      -0.251  13.294  19.198  0.00  0.00    +0.000 A 
ATOM     16  C   UNL     1       1.110  13.115  18.979  0.00  0.00    +0.000 A 
ATOM     17  N   UNL     1       1.696  11.897  18.898  0.00  0.00    +0.000 NA
ATOM     18  C   UNL     1       0.870  10.822  19.013  0.00  0.00    +0.000 A 
ATOM     19  C   UNL     1      -0.489  11.016  19.250  0.00  0.00    +0.000 A 
ATOM     20  N   UNL     1      -1.072  12.242  19.346  0.00  0.00    +0.000 NA
ATOM     21  H   UNL     1      -0.381  15.183  19.865  0.00  0.00    +0.000 HD
ATOM     22  H   UNL     1      -1.821  14.422  19.432  0.00  0.00    +0.000 HD
ENDBRANCH   7  18
ENDBRANCH   1  10
BRANCH   6  23
ATOM     23  S   UNL     1       5.481   6.139  16.636  0.00  0.00    +0.000 S 
ATOM     24  O   UNL     1       4.915   6.765  15.460  0.00  0.00    +0.000 OA
ATOM     25  O   UNL     1       6.075   6.975  17.659  0.00  0.00    +0.000 OA
BRANCH  23  26
ATOM     26  N   UNL     1       6.686   5.052  16.106  0.00  0.00    +0.000 N 
ATOM     27  H   UNL     1       6.653   4.215  16.690  0.00  0.00    +0.000 HD
BRANCH  26  28
ATOM     28  C   UNL     1       6.777   4.800  14.702  0.00  0.00    +0.000 A 
ATOM     29  C   UNL     1       5.970   3.807  14.145  0.00  0.00    +0.000 A 
ATOM     30  C   UNL     1       6.079   3.499  12.788  0.00  0.00    +0.000 A 
ATOM     31  C   UNL     1       6.990   4.186  11.987  0.00  0.00    +0.000 A 
ATOM     32  C   UNL     1       7.794   5.183  12.544  0.00  0.00    +0.000 A 
ATOM     33  C   UNL     1       7.688   5.490  13.903  0.00  0.00    +0.000 A 
ENDBRANCH  26  28
ENDBRANCH  23  26
ENDBRANCH   6  23
TORSDOF 5
ENDMDL
MODEL 3
REMARK VINA RESULT:      -8.9      0.613      1.275
REMARK  Name = 
REMARK  5 active torsions:
REMARK  status: ('A' for Active; 'I' for Inactive)
REMARK    1  A    between atoms: C_5  and  C_6
REMARK    2  A    between atoms: C_9  and  C_10
REMARK    3  A    between atoms: C_15  and  S_16
REMARK    4  A    between atoms: S_16  and  N_19
REMARK    5  A    between atoms: N_19  and  C_20
REMARK                            x       y       z     vdW  Elec       q    Type
REMARK                         _______ _______ _______ _____ _____    ______ ____
ROOT
ATOM      1  C   UNL     1       2.674   5.135  19.372  0.00  0.00    +0.000 A 
ATOM      2  C   UNL     1       1.615   4.274  19.775  0.00  0.00    +0.000 A 
ATOM      3  C   UNL     1       1.771   2.898  19.974  0.00  0.00    +0.000 A 
ATOM      4  C   UNL     1       3.000   2.310  19.759  0.00  0.00    +0.000 A 
ATOM      5  C   UNL     1       4.063   3.102  19.348  0.00  0.00    +0.000 A 
ATOM      6  C   UNL     1       3.920   4.497  19.146  0.00  0.00    +0.000 A 
ENDROOT
BRANCH   1  10
ATOM      7  C   UNL     1       1.486   9.335  18.960  0.00  0.00    +0.000 A 
ATOM      8  C   UNL     1       1.950   8.593  17.865  0.00  0.00    +0.000 A 
ATOM      9  C   UNL     1       2.312   7.243  17.985  0.00  0.00    +0.000 A 
ATOM     10  C   UNL     1       2.334   6.581  19.216  0.00  0.00    +0.000 A 
ATOM     11  C   UNL     1       1.912   7.349  20.322  0.00  0.00    +0.000 A 
ATOM     12  C   UNL     1       1.470   8.671  20.187  0.00  0.00    +0.000 A 
ATOM     13  F   UNL     1       0.978   9.271  21.282  0.00  0.00    +0.000 F 
BRANCH   7  18
ATOM     14  N   UNL     1      -0.593  14.492  18.548  0.00  0.00    +0.000 N 
ATOM     15  C   UNL     1      -0.064  13.206  18.572  0.00  0.00    +0.000 A 
ATOM     16  C   UNL     1      -0.869  12.077  18.664  0.00  0.00    +0.000 A 
ATOM     17  N   UNL     1      -0.378  10.819  18.750  0.00  0.00    +0.000 NA
ATOM     18  C   UNL     1       0.977  10.700  18.771  0.00  0.00    +0.000 A 
ATOM     19  C   UNL     1       1.773  11.839  18.659  0.00  0.00    +0.000 A 
ATOM     20  N   UNL     1       1.275  13.102  18.559  0.00  0.00    +0.000 NA
ATOM     21  H   UNL     1      -1.292  14.607  17.824  0.00  0.00    +0.000 HD
ATOM     22  H   UNL     1       0.188  15.133  18.435  0.00  0.00    +0.000 HD
ENDBRANCH   7  18
ENDBRANCH   1  10
BRANCH   6  23
ATOM     23  S   UNL     1       5.442   5.304  18.648  0.00  0.00    +0.000 S 
ATOM     24  O   UNL     1       5.146   6.372  17.716  0.00  0.00    +0.000 OA
ATOM     25  O   UNL     1       6.224   5.601  19.830  0.00  0.00    +0.000 OA
BRANCH  23  26
ATOM     26  N   UNL     1       6.273   4.088  17.783  0.00  0.00    +0.000 N 
ATOM     27  H   UNL     1       5.970   3.176  18.127  0.00  0.00    +0.000 HD
BRANCH  26  28
ATOM     28  C   UNL     1       6.321   4.206  16.359  0.00  0.00    +0.000 A 
ATOM     29  C   UNL     1       7.413   4.847  15.775  0.00  0.00    +0.000 A 
ATOM     30  C   UNL     1       7.459   5.030  14.392  0.00  0.00    +0.000 A 
ATOM     31  C   UNL     1       6.415   4.567  13.593  0.00  0.00    +0.000 A 
ATOM     32  C   UNL     1       5.324   3.921  14.177  0.00  0.00    +0.000 A 
ATOM     33  C   UNL     1       5.275   3.741  15.562  0.00  0.00    +0.000 A 
ENDBRANCH  26  28
ENDBRANCH  23  26
ENDBRANCH   6  23
TORSDOF 5
ENDMDL
MODEL 4
REMARK VINA RESULT:      -8.9      1.273      1.808
REMARK  Name = 
REMARK  5 active torsions:
REMARK  status: ('A' for Active; 'I' for Inactive)
REMARK    1  A    between atoms: C_5  and  C_6
REMARK    2  A    between atoms: C_9  and  C_10
REMARK    3  A    between atoms: C_15  and  S_16
REMARK    4  A    between atoms: S_16  and  N_19
REMARK    5  A    between atoms: N_19  and  C_20
REMARK                            x       y       z     vdW  Elec       q    Type
REMARK                         _______ _______ _______ _____ _____    ______ ____
ROOT
ATOM      1  C   UNL     1       3.049   5.359  18.044  0.00  0.00    +0.000 A 
ATOM      2  C   UNL     1       2.224   4.288  18.489  0.00  0.00    +0.000 A 
ATOM      3  C   UNL     1       2.528   2.939  18.278  0.00  0.00    +0.000 A 
ATOM      4  C   UNL     1       3.671   2.594  17.586  0.00  0.00    +0.000 A 
ATOM      5  C   UNL     1       4.502   3.602  17.114  0.00  0.00    +0.000 A 
ATOM      6  C   UNL     1       4.208   4.972  17.325  0.00  0.00    +0.000 A 
ENDROOT
BRANCH   1  10
ATOM      7  C   UNL     1       1.491   9.334  19.039  0.00  0.00    +0.000 A 
ATOM      8  C   UNL     1       1.845   8.992  17.726  0.00  0.00    +0.000 A 
ATOM      9  C   UNL     1       2.323   7.715  17.397  0.00  0.00    +0.000 A 
ATOM     10  C   UNL     1       2.578   6.740  18.365  0.00  0.00    +0.000 A 
ATOM     11  C   UNL     1       2.267   7.109  19.690  0.00  0.00    +0.000 A 
ATOM     12  C   UNL     1       1.709   8.353  20.007  0.00  0.00    +0.000 A 
ATOM     13  F   UNL     1       1.339   8.556  21.281  0.00  0.00    +0.000 F 
BRANCH   7  18
ATOM     14  N   UNL     1      -0.991  14.127  20.437  0.00  0.00    +0.000 N 
ATOM     15  C   UNL     1      -0.379  12.952  20.011  0.00  0.00    +0.000 A 
ATOM     16  C   UNL     1      -1.058  11.740  19.969  0.00  0.00    +0.000 A 
ATOM     17  N   UNL     1      -0.472  10.572  19.617  0.00  0.00    +0.000 NA
ATOM     18  C   UNL     1       0.856  10.628  19.325  0.00  0.00    +0.000 A 
ATOM     19  C   UNL     1       1.520  11.853  19.354  0.00  0.00    +0.000 A 
ATOM     20  N   UNL     1       0.923  13.027  19.694  0.00  0.00    +0.000 NA
ATOM     21  H   UNL     1      -1.845  14.322  19.930  0.00  0.00    +0.000 HD
ATOM     22  H   UNL     1      -0.305  14.872  20.336  0.00  0.00    +0.000 HD
ENDBRANCH   7  18
ENDBRANCH   1  10
BRANCH   6  23
ATOM     23  S   UNL     1       5.448   6.077  16.649  0.00  0.00    +0.000 S 
ATOM     24  O   UNL     1       4.934   6.716  15.456  0.00  0.00    +0.000 OA
ATOM     25  O   UNL     1       5.972   6.904  17.717  0.00  0.00    +0.000 OA
BRANCH  23  26
ATOM     26  N   UNL     1       6.700   5.022  16.164  0.00  0.00    +0.000 N 
ATOM     27  H   UNL     1       6.693   4.203  16.772  0.00  0.00    +0.000 HD
BRANCH  26  28
ATOM     28  C   UNL     1       6.816   4.733  14.769  0.00  0.00    +0.000 A 
ATOM     29  C   UNL     1       7.743   5.447  14.010  0.00  0.00    +0.000 A 
ATOM     30  C   UNL     1       7.838   5.227  12.635  0.00  0.00    +0.000 A 
ATOM     31  C   UNL     1       7.008   4.291  12.019  0.00  0.00    +0.000 A 
ATOM     32  C   UNL     1       6.083   3.573  12.780  0.00  0.00    +0.000 A 
ATOM     33  C   UNL     1       5.986   3.794  14.156  0.00  0.00    +0.000 A 
ENDBRANCH  26  28
ENDBRANCH  23  26
ENDBRANCH   6  23
TORSDOF 5
ENDMDL
MODEL 5
REMARK VINA RESULT:      -8.9      1.180      1.261
REMARK  Name = 
REMARK  5 active torsions:
REMARK  status: ('A' for Active; 'I' for Inactive)
REMARK    1  A    between atoms: C_5  and  C_6
REMARK    2  A    between atoms: C_9  and  C_10
REMARK    3  A    between atoms: C_15  and  S_16
REMARK    4  A    between atoms: S_16  and  N_19
REMARK    5  A    between atoms: N_19  and  C_20
REMARK                            x       y       z     vdW  Elec       q    Type
REMARK                         _______ _______ _______ _____ _____    ______ ____
ROOT
ATOM      1  C   UNL     1       2.670   4.912  18.338  0.00  0.00    +0.000 A 
ATOM      2  C   UNL     1       1.688   3.931  18.655  0.00  0.00    +0.000 A 
ATOM      3  C   UNL     1       1.842   2.568  18.384  0.00  0.00    +0.000 A 
ATOM      4  C   UNL     1       2.988   2.119  17.760  0.00  0.00    +0.000 A 
ATOM      5  C   UNL     1       3.970   3.036  17.414  0.00  0.00    +0.000 A 
ATOM      6  C   UNL     1       3.829   4.419  17.686  0.00  0.00    +0.000 A 
ENDROOT
BRANCH   1  10
ATOM      7  C   UNL     1       1.533   8.992  19.467  0.00  0.00    +0.000 A 
ATOM      8  C   UNL     1       1.886   8.667  18.149  0.00  0.00    +0.000 A 
ATOM      9  C   UNL     1       2.230   7.359  17.777  0.00  0.00    +0.000 A 
ATOM     10  C   UNL     1       2.346   6.323  18.708  0.00  0.00    +0.000 A 
ATOM     11  C   UNL     1       2.037   6.670  20.040  0.00  0.00    +0.000 A 
ATOM     12  C   UNL     1       1.611   7.955  20.396  0.00  0.00    +0.000 A 
ATOM     13  F   UNL     1       1.228   8.146  21.668  0.00  0.00    +0.000 F 
BRANCH   7  18
ATOM     14  N   UNL     1      -0.659  13.991  20.605  0.00  0.00    +0.000 N 
ATOM     15  C   UNL     1      -0.040  12.778  20.321  0.00  0.00    +0.000 A 
ATOM     16  C   UNL     1      -0.016  12.244  19.039  0.00  0.00    +0.000 A 
ATOM     17  N   UNL     1       0.526  11.039  18.746  0.00  0.00    +0.000 NA
ATOM     18  C   UNL     1       1.036  10.337  19.793  0.00  0.00    +0.000 A 
ATOM     19  C   UNL     1       1.022  10.892  21.071  0.00  0.00    +0.000 A 
ATOM     20  N   UNL     1       0.489  12.111  21.359  0.00  0.00    +0.000 NA
ATOM     21  H   UNL     1      -0.325  14.742  20.014  0.00  0.00    +0.000 HD
ATOM     22  H   UNL     1      -0.504  14.180  21.593  0.00  0.00    +0.000 HD
ENDBRANCH   7  18
ENDBRANCH   1  10
BRANCH   6  23
ATOM     23  S   UNL     1       5.245   5.394  17.173  0.00  0.00    +0.000 S 
ATOM     24  O   UNL     1       4.850   6.317  16.131  0.00  0.00    +0.000 OA
ATOM     25  O   UNL     1       5.910   5.910  18.352  0.00  0.00    +0.000 OA
BRANCH  23  26
ATOM     26  N   UNL     1       6.287   4.240  16.467  0.00  0.00    +0.000 N 
ATOM     27  H   UNL     1       6.029   3.313  16.807  0.00  0.00    +0.000 HD
BRANCH  26  28
ATOM     28  C   UNL     1       6.503   4.323  15.056  0.00  0.00    +0.000 A 
ATOM     29  C   UNL     1       5.694   3.567  14.208  0.00  0.00    +0.000 A 
ATOM     30  C   UNL     1       5.919   3.582  12.830  0.00  0.00    +0.000 A 
ATOM     31  C   UNL     1       6.952   4.356  12.301  0.00  0.00    +0.000 A 
ATOM     32  C   UNL     1       7.758   5.116  13.150  0.00  0.00    +0.000 A 
ATOM     33  C   UNL     1       7.535   5.099  14.529  0.00  0.00    +0.000 A 
ENDBRANCH  26  28
ENDBRANCH  23  26
ENDBRANCH   6  23
TORSDOF 5
ENDMDL
MODEL 6
REMARK VINA RESULT:      -8.8      3.896      9.803
REMARK  Name = 
REMARK  5 active torsions:
REMARK  status: ('A' for Active; 'I' for Inactive)
REMARK    1  A    between atoms: C_5  and  C_6
REMARK    2  A    between atoms: C_9  and  C_10
REMARK    3  A    between atoms: C_15  and  S_16
REMARK    4  A    between atoms: S_16  and  N_19
REMARK    5  A    between atoms: N_19  and  C_20
REMARK                            x       y       z     vdW  Elec       q    Type
REMARK                         _______ _______ _______ _____ _____    ______ ____
ROOT
ATOM      1  C   UNL     1       0.869  11.275  18.735  0.00  0.00    +0.000 A 
ATOM      2  C   UNL     1       1.834  12.274  19.045  0.00  0.00    +0.000 A 
ATOM      3  C   UNL     1       1.552  13.645  19.057  0.00  0.00    +0.000 A 
ATOM      4  C   UNL     1       0.284  14.085  18.736  0.00  0.00    +0.000 A 
ATOM      5  C   UNL     1      -0.691  13.153  18.409  0.00  0.00    +0.000 A 
ATOM      6  C   UNL     1      -0.419  11.762  18.397  0.00  0.00    +0.000 A 
ENDROOT
BRANCH   1  10
ATOM      7  C   UNL     1       2.384   7.171  19.004  0.00  0.00    +0.000 A 
ATOM      8  C   UNL     1       2.502   7.920  17.826  0.00  0.00    +0.000 A 
ATOM      9  C   UNL     1       2.039   9.241  17.739  0.00  0.00    +0.000 A 
ATOM     10  C   UNL     1       1.339   9.858  18.780  0.00  0.00    +0.000 A 
ATOM     11  C   UNL     1       1.181   9.079  19.946  0.00  0.00    +0.000 A 
ATOM     12  C   UNL     1       1.718   7.792  20.061  0.00  0.00    +0.000 A 
ATOM     13  F   UNL     1       1.614   7.185  21.254  0.00  0.00    +0.000 F 
BRANCH   7  18
ATOM     14  N   UNL     1       4.913   2.248  19.682  0.00  0.00    +0.000 N 
ATOM     15  C   UNL     1       4.269   3.456  19.437  0.00  0.00    +0.000 A 
ATOM     16  C   UNL     1       4.970   4.637  19.224  0.00  0.00    +0.000 A 
ATOM     17  N   UNL     1       4.368   5.836  19.043  0.00  0.00    +0.000 NA
ATOM     18  C   UNL     1       3.010   5.845  19.109  0.00  0.00    +0.000 A 
ATOM     19  C   UNL     1       2.319   4.651  19.305  0.00  0.00    +0.000 A 
ATOM     20  N   UNL     1       2.927   3.445  19.472  0.00  0.00    +0.000 NA
ATOM     21  H   UNL     1       5.595   2.023  18.968  0.00  0.00    +0.000 HD
ATOM     22  H   UNL     1       4.190   1.537  19.761  0.00  0.00    +0.000 HD
ENDBRANCH   7  18
ENDBRANCH   1  10
BRANCH   6  23
ATOM     23  S   UNL     1      -1.847  10.763  17.975  0.00  0.00    +0.000 S 
ATOM     24  O   UNL     1      -1.611  10.080  16.721  0.00  0.00    +0.000 OA
ATOM     25  O   UNL     1      -2.235   9.985  19.135  0.00  0.00    +0.000 OA
BRANCH  23  26
ATOM     26  N   UNL     1      -3.076  11.917  17.705  0.00  0.00    +0.000 N 
ATOM     27  H   UNL     1      -3.170  12.068  16.700  0.00  0.00    +0.000 HD
BRANCH  26  28
ATOM     28  C   UNL     1      -4.312  11.741  18.403  0.00  0.00    +0.000 A 
ATOM     29  C   UNL     1      -5.308  10.960  17.817  0.00  0.00    +0.000 A 
ATOM     30  C   UNL     1      -6.545  10.818  18.447  0.00  0.00    +0.000 A 
ATOM     31  C   UNL     1      -6.786  11.454  19.664  0.00  0.00    +0.000 A 
ATOM     32  C   UNL     1      -5.787  12.232  20.252  0.00  0.00    +0.000 A 
ATOM     33  C   UNL     1      -4.549  12.378  19.621  0.00  0.00    +0.000 A 
ENDBRANCH  26  28
ENDBRANCH  23  26
ENDBRANCH   6  23
TORSDOF 5
ENDMDL
MODEL 7
REMARK VINA RESULT:      -8.7      0.944      1.329
REMARK  Name = 
REMARK  5 active torsions:
REMARK  status: ('A' for Active; 'I' for Inactive)
REMARK    1  A    between atoms: C_5  and  C_6
REMARK    2  A    between atoms: C_9  and  C_10
REMARK    3  A    between atoms: C_15  and  S_16
REMARK    4  A    between atoms: S_16  and  N_19
REMARK    5  A    between atoms: N_19  and  C_20
REMARK                            x       y       z     vdW  Elec       q    Type
REMARK                         _______ _______ _______ _____ _____    ______ ____
ROOT
ATOM      1  C   UNL     1       2.593   4.935  18.610  0.00  0.00    +0.000 A 
ATOM      2  C   UNL     1       1.499   4.024  18.599  0.00  0.00    +0.000 A 
ATOM      3  C   UNL     1       1.635   2.655  18.341  0.00  0.00    +0.000 A 
ATOM      4  C   UNL     1       2.880   2.132  18.058  0.00  0.00    +0.000 A 
ATOM      5  C   UNL     1       3.979   2.981  18.039  0.00  0.00    +0.000 A 
ATOM      6  C   UNL     1       3.856   4.368  18.303  0.00  0.00    +0.000 A 
ENDROOT
BRANCH   1  10
ATOM      7  C   UNL     1       1.456   9.062  19.550  0.00  0.00    +0.000 A 
ATOM      8  C   UNL     1       1.832   8.682  18.254  0.00  0.00    +0.000 A 
ATOM      9  C   UNL     1       2.177   7.359  17.942  0.00  0.00    +0.000 A 
ATOM     10  C   UNL     1       2.269   6.361  18.916  0.00  0.00    +0.000 A 
ATOM     11  C   UNL     1       1.937   6.763  20.226  0.00  0.00    +0.000 A 
ATOM     12  C   UNL     1       1.511   8.063  20.522  0.00  0.00    +0.000 A 
ATOM     13  F   UNL     1       1.104   8.308  21.778  0.00  0.00    +0.000 F 
BRANCH   7  18
ATOM     14  N   UNL     1      -0.740  14.099  20.499  0.00  0.00    +0.000 N 
ATOM     15  C   UNL     1      -0.122  12.878  20.249  0.00  0.00    +0.000 A 
ATOM     16  C   UNL     1      -0.255  12.219  19.033  0.00  0.00    +0.000 A 
ATOM     17  N   UNL     1       0.286  11.003  18.784  0.00  0.00    +0.000 NA
ATOM     18  C   UNL     1       0.960  10.421  19.812  0.00  0.00    +0.000 A 
ATOM     19  C   UNL     1       1.100  11.101  21.021  0.00  0.00    +0.000 A 
ATOM     20  N   UNL     1       0.568  12.330  21.262  0.00  0.00    +0.000 NA
ATOM     21  H   UNL     1      -0.517  14.794  19.797  0.00  0.00    +0.000 HD
ATOM     22  H   UNL     1      -0.458  14.389  21.432  0.00  0.00    +0.000 HD
ENDBRANCH   7  18
ENDBRANCH   1  10
BRANCH   6  23
ATOM     23  S   UNL     1       5.420   5.243  18.251  0.00  0.00    +0.000 S 
ATOM     24  O   UNL     1       5.294   6.418  17.414  0.00  0.00    +0.000 OA
ATOM     25  O   UNL     1       5.918   5.395  19.602  0.00  0.00    +0.000 OA
BRANCH  23  26
ATOM     26  N   UNL     1       6.460   4.154  17.446  0.00  0.00    +0.000 N 
ATOM     27  H   UNL     1       6.276   3.210  17.790  0.00  0.00    +0.000 HD
BRANCH  26  28
ATOM     28  C   UNL     1       6.560   4.264  16.024  0.00  0.00    +0.000 A 
ATOM     29  C   UNL     1       7.551   5.082  15.483  0.00  0.00    +0.000 A 
ATOM     30  C   UNL     1       7.636   5.256  14.101  0.00  0.00    +0.000 A 
ATOM     31  C   UNL     1       6.732   4.609  13.260  0.00  0.00    +0.000 A 
ATOM     32  C   UNL     1       5.743   3.786  13.801  0.00  0.00    +0.000 A 
ATOM     33  C   UNL     1       5.655   3.614  15.185  0.00  0.00    +0.000 A 
ENDBRANCH  26  28
ENDBRANCH  23  26
ENDBRANCH   6  23
TORSDOF 5
ENDMDL
MODEL 8
REMARK VINA RESULT:      -8.7      3.977      9.876
REMARK  Name = 
REMARK  5 active torsions:
REMARK  status: ('A' for Active; 'I' for Inactive)
REMARK    1  A    between atoms: C_5  and  C_6
REMARK    2  A    between atoms: C_9  and  C_10
REMARK    3  A    between atoms: C_15  and  S_16
REMARK    4  A    between atoms: S_16  and  N_19
REMARK    5  A    between atoms: N_19  and  C_20
REMARK                            x       y       z     vdW  Elec       q    Type
REMARK                         _______ _______ _______ _____ _____    ______ ____
ROOT
ATOM      1  C   UNL     1       0.857  11.357  18.746  0.00  0.00    +0.000 A 
ATOM      2  C   UNL     1       1.834  12.354  19.021  0.00  0.00    +0.000 A 
ATOM      3  C   UNL     1       1.564  13.727  19.005  0.00  0.00    +0.000 A 
ATOM      4  C   UNL     1       0.296  14.171  18.690  0.00  0.00    +0.000 A 
ATOM      5  C   UNL     1      -0.691  13.240  18.396  0.00  0.00    +0.000 A 
ATOM      6  C   UNL     1      -0.431  11.847  18.412  0.00  0.00    +0.000 A 
ENDROOT
BRANCH   1  10
ATOM      7  C   UNL     1       2.336   7.245  19.094  0.00  0.00    +0.000 A 
ATOM      8  C   UNL     1       2.481   7.979  17.908  0.00  0.00    +0.000 A 
ATOM      9  C   UNL     1       2.029   9.302  17.796  0.00  0.00    +0.000 A 
ATOM     10  C   UNL     1       1.316   9.937  18.817  0.00  0.00    +0.000 A 
ATOM     11  C   UNL     1       1.131   9.174  19.990  0.00  0.00    +0.000 A 
ATOM     12  C   UNL     1       1.657   7.884  20.131  0.00  0.00    +0.000 A 
ATOM     13  F   UNL     1       1.527   7.294  21.330  0.00  0.00    +0.000 F 
BRANCH   7  18
ATOM     14  N   UNL     1       4.528   2.122  19.297  0.00  0.00    +0.000 N 
ATOM     15  C   UNL     1       3.994   3.406  19.325  0.00  0.00    +0.000 A 
ATOM     16  C   UNL     1       2.623   3.636  19.307  0.00  0.00    +0.000 A 
ATOM     17  N   UNL     1       2.078   4.874  19.273  0.00  0.00    +0.000 NA
ATOM     18  C   UNL     1       2.950   5.916  19.227  0.00  0.00    +0.000 A 
ATOM     19  C   UNL     1       4.322   5.672  19.264  0.00  0.00    +0.000 A 
ATOM     20  N   UNL     1       4.867   4.426  19.313  0.00  0.00    +0.000 NA
ATOM     21  H   UNL     1       4.153   1.533  20.030  0.00  0.00    +0.000 HD
ATOM     22  H   UNL     1       5.539   2.220  19.361  0.00  0.00    +0.000 HD
ENDBRANCH   7  18
ENDBRANCH   1  10
BRANCH   6  23
ATOM     23  S   UNL     1      -1.873  10.851  18.031  0.00  0.00    +0.000 S 
ATOM     24  O   UNL     1      -1.672  10.166  16.771  0.00  0.00    +0.000 OA
ATOM     25  O   UNL     1      -2.231  10.076  19.201  0.00  0.00    +0.000 OA
BRANCH  23  26
ATOM     26  N   UNL     1      -3.105  12.008  17.792  0.00  0.00    +0.000 N 
ATOM     27  H   UNL     1      -3.175  12.212  16.794  0.00  0.00    +0.000 HD
BRANCH  26  28
ATOM     28  C   UNL     1      -4.356  11.785  18.448  0.00  0.00    +0.000 A 
ATOM     29  C   UNL     1      -4.602  12.429  19.660  0.00  0.00    +0.000 A 
ATOM     30  C   UNL     1      -5.789  12.186  20.352  0.00  0.00    +0.000 A 
ATOM     31  C   UNL     1      -6.732  11.301  19.830  0.00  0.00    +0.000 A 
ATOM     32  C   UNL     1      -6.488  10.660  18.614  0.00  0.00    +0.000 A 
ATOM     33  C   UNL     1      -5.298  10.901  17.922  0.00  0.00    +0.000 A 
ENDBRANCH  26  28
ENDBRANCH  23  26
ENDBRANCH   6  23
TORSDOF 5
ENDMDL
MODEL 9
REMARK VINA RESULT:      -8.6      0.806      1.241
REMARK  Name = 
REMARK  5 active torsions:
REMARK  status: ('A' for Active; 'I' for Inactive)
REMARK    1  A    between atoms: C_5  and  C_6
REMARK    2  A    between atoms: C_9  and  C_10
REMARK    3  A    between atoms: C_15  and  S_16
REMARK    4  A    between atoms: S_16  and  N_19
REMARK    5  A    between atoms: N_19  and  C_20
REMARK                            x       y       z     vdW  Elec       q    Type
REMARK                         _______ _______ _______ _____ _____    ______ ____
ROOT
ATOM      1  C   UNL     1       2.718   4.712  18.563  0.00  0.00    +0.000 A 
ATOM      2  C   UNL     1       1.614   3.821  18.447  0.00  0.00    +0.000 A 
ATOM      3  C   UNL     1       1.749   2.438  18.292  0.00  0.00    +0.000 A 
ATOM      4  C   UNL     1       3.007   1.876  18.223  0.00  0.00    +0.000 A 
ATOM      5  C   UNL     1       4.120   2.703  18.313  0.00  0.00    +0.000 A 
ATOM      6  C   UNL     1       3.996   4.105  18.475  0.00  0.00    +0.000 A 
ENDROOT
BRANCH   1  10
ATOM      7  C   UNL     1       1.574   8.907  19.119  0.00  0.00    +0.000 A 
ATOM      8  C   UNL     1       1.921   8.402  17.858  0.00  0.00    +0.000 A 
ATOM      9  C   UNL     1       2.267   7.056  17.669  0.00  0.00    +0.000 A 
ATOM     10  C   UNL     1       2.392   6.159  18.734  0.00  0.00    +0.000 A 
ATOM     11  C   UNL     1       2.090   6.688  20.007  0.00  0.00    +0.000 A 
ATOM     12  C   UNL     1       1.662   8.009  20.183  0.00  0.00    +0.000 A 
ATOM     13  F   UNL     1       1.285   8.375  21.419  0.00  0.00    +0.000 F 
BRANCH   7  18
ATOM     14  N   UNL     1      -0.345  14.138  19.310  0.00  0.00    +0.000 N 
ATOM     15  C   UNL     1       0.161  12.843  19.337  0.00  0.00    +0.000 A 
ATOM     16  C   UNL     1       1.356  12.504  18.712  0.00  0.00    +0.000 A 
ATOM     17  N   UNL     1       1.841  11.241  18.672  0.00  0.00    +0.000 NA
ATOM     18  C   UNL     1       1.075  10.282  19.258  0.00  0.00    +0.000 A 
ATOM     19  C   UNL     1      -0.112  10.638  19.896  0.00  0.00    +0.000 A 
ATOM     20  N   UNL     1      -0.589  11.912  19.948  0.00  0.00    +0.000 NA
ATOM     21  H   UNL     1       0.326  14.821  19.639  0.00  0.00    +0.000 HD
ATOM     22  H   UNL     1      -1.197  14.135  19.867  0.00  0.00    +0.000 HD
ENDBRANCH   7  18
ENDBRANCH   1  10
BRANCH   6  23
ATOM     23  S   UNL     1       5.575   4.948  18.598  0.00  0.00    +0.000 S 
ATOM     24  O   UNL     1       5.565   5.836  19.742  0.00  0.00    +0.000 OA
ATOM     25  O   UNL     1       6.639   3.972  18.476  0.00  0.00    +0.000 OA
BRANCH  23  26
ATOM     26  N   UNL     1       5.616   5.921  17.196  0.00  0.00    +0.000 N 
ATOM     27  H   UNL     1       6.176   6.752  17.390  0.00  0.00    +0.000 HD
BRANCH  26  28
ATOM     28  C   UNL     1       5.911   5.277  15.953  0.00  0.00    +0.000 A 
ATOM     29  C   UNL     1       7.181   5.435  15.400  0.00  0.00    +0.000 A 
ATOM     30  C   UNL     1       7.478   4.867  14.160  0.00  0.00    +0.000 A 
ATOM     31  C   UNL     1       6.507   4.137  13.476  0.00  0.00    +0.000 A 
ATOM     32  C   UNL     1       5.237   3.975  14.033  0.00  0.00    +0.000 A 
ATOM     33  C   UNL     1       4.937   4.546  15.273  0.00  0.00    +0.000 A 
ENDBRANCH  26  28
ENDBRANCH  23  26
ENDBRANCH   6  23
TORSDOF 5
ENDMDL
