MODEL 1
REMARK VINA RESULT:      -8.6      0.000      0.000
REMARK  Name = 
REMARK  8 active torsions:
REMARK  status: ('A' for Active; 'I' for Inactive)
REMARK    1  A    between atoms: C_1  and  O_2
REMARK    2  A    between atoms: O_2  and  C_3
REMARK    3  A    between atoms: C_8  and  N_9
REMARK    4  A    between atoms: C_13  and  C_15
REMARK    5  A    between atoms: C_20  and  S_21
REMARK    6  A    between atoms: S_21  and  N_24
REMARK    7  A    between atoms: N_24  and  C_25
REMARK    8  A    between atoms: C_25  and  C_26
REMARK                            x       y       z     vdW  Elec       q    Type
REMARK                         _______ _______ _______ _____ _____    ______ ____
ROOT
ATOM      1  C   UNL     1       2.180   7.017  19.477  0.00  0.00    +0.000 A 
ATOM      2  C   UNL     1       1.467   6.443  20.530  0.00  0.00    +0.000 A 
ATOM      3  C   UNL     1       1.764   5.143  20.950  0.00  0.00    +0.000 A 
ATOM      4  C   UNL     1       2.756   4.391  20.306  0.00  0.00    +0.000 A 
ATOM      5 CL   UNL     1       2.952   2.774  20.868  0.00  0.00    +0.000 Cl
ATOM      6  C   UNL     1       3.513   4.988  19.296  0.00  0.00    +0.000 A 
ATOM      7  C   UNL     1       3.255   6.322  18.926  0.00  0.00    +0.000 A 
ENDROOT
BRANCH   1  12
ATOM      8  N   UNL     1      -0.496  11.031  21.381  0.00  0.00    +0.000 N 
ATOM      9  C   UNL     1      -0.534  11.109  19.912  0.00  0.00    +0.000 C 
ATOM     10  C   UNL     1       0.791  10.581  19.325  0.00  0.00    +0.000 C 
ATOM     11  N   UNL     1       1.159   9.264  19.863  0.00  0.00    +0.000 N 
ATOM     12  C   UNL     1       1.791   8.370  19.003  0.00  0.00    +0.000 C 
ATOM     13  O   UNL     1       2.051   8.640  17.831  0.00  0.00    +0.000 OA
ATOM     14  C   UNL     1       1.157   9.227  21.347  0.00  0.00    +0.000 C 
ATOM     15  C   UNL     1      -0.205   9.686  21.904  0.00  0.00    +0.000 C 
BRANCH   8  21
ATOM     16  C   UNL     1      -0.381  13.270  22.422  0.00  0.00    +0.000 A 
ATOM     17  C   UNL     1      -0.996  14.260  23.208  0.00  0.00    +0.000 A 
ATOM     18  C   UNL     1      -2.261  14.056  23.750  0.00  0.00    +0.000 A 
ATOM     19  C   UNL     1      -2.918  12.856  23.530  0.00  0.00    +0.000 A 
ATOM     20  C   UNL     1      -2.304  11.858  22.768  0.00  0.00    +0.000 A 
ATOM     21  C   UNL     1      -1.032  12.027  22.191  0.00  0.00    +0.000 A 
BRANCH  16  23
ATOM     22  C   UNL     1       1.206  14.792  21.478  0.00  0.00    +0.000 C 
ATOM     23  O   UNL     1       0.844  13.462  21.822  0.00  0.00    +0.000 OA
ENDBRANCH  16  23
ENDBRANCH   8  21
ENDBRANCH   1  12
BRANCH   6  24
ATOM     24  S   UNL     1       4.697   4.121  18.291  0.00  0.00    +0.000 S 
ATOM     25  O   UNL     1       5.843   3.748  19.090  0.00  0.00    +0.000 OA
ATOM     26  O   UNL     1       3.948   3.111  17.572  0.00  0.00    +0.000 OA
BRANCH  24  27
ATOM     27  N   UNL     1       5.155   5.270  17.155  0.00  0.00    +0.000 NA
ATOM     28  H   UNL     1       4.827   6.213  17.379  0.00  0.00    +0.000 HD
BRANCH  27  29
ATOM     29  C   UNL     1       6.562   5.241  16.753  0.00  0.00    +0.000 C 
BRANCH  29  30
ATOM     30  C   UNL     1       7.268   6.377  17.392  0.00  0.00    +0.000 A 
ATOM     31  C   UNL     1       7.958   6.511  18.577  0.00  0.00    +0.000 A 
ATOM     32  C   UNL     1       8.322   7.875  18.673  0.00  0.00    +0.000 A 
ATOM     33  C   UNL     1       7.850   8.480  17.532  0.00  0.00    +0.000 A 
ATOM     34  O   UNL     1       7.211   7.578  16.743  0.00  0.00    +0.000 OA
ENDBRANCH  29  30
ENDBRANCH  27  29
ENDBRANCH  24  27
ENDBRANCH   6  24
TORSDOF 7
ENDMDL
MODEL 2
REMARK VINA RESULT:      -8.5      1.190      1.925
REMARK  Name = 
REMARK  8 active torsions:
REMARK  status: ('A' for Active; 'I' for Inactive)
REMARK    1  A    between atoms: C_1  and  O_2
REMARK    2  A    between atoms: O_2  and  C_3
REMARK    3  A    between atoms: C_8  and  N_9
REMARK    4  A    between atoms: C_13  and  C_15
REMARK    5  A    between atoms: C_20  and  S_21
REMARK    6  A    between atoms: S_21  and  N_24
REMARK    7  A    between atoms: N_24  and  C_25
REMARK    8  A    between atoms: C_25  and  C_26
REMARK                            x       y       z     vdW  Elec       q    Type
REMARK                         _______ _______ _______ _____ _____    ______ ____
ROOT
ATOM      1  C   UNL     1       2.181   7.020  19.635  0.00  0.00    +0.000 A 
ATOM      2  C   UNL     1       1.426   6.429  20.650  0.00  0.00    +0.000 A 
ATOM      3  C   UNL     1       1.723   5.132  21.077  0.00  0.00    +0.000 A 
ATOM      4  C   UNL     1       2.758   4.399  20.480  0.00  0.00    +0.000 A 
ATOM      5 CL   UNL     1       2.952   2.782  21.043  0.00  0.00    +0.000 Cl
ATOM      6  C   UNL     1       3.553   5.014  19.510  0.00  0.00    +0.000 A 
ATOM      7  C   UNL     1       3.292   6.345  19.134  0.00  0.00    +0.000 A 
ENDROOT
BRANCH   1  12
ATOM      8  N   UNL     1      -0.522  11.039  21.489  0.00  0.00    +0.000 N 
ATOM      9  C   UNL     1      -0.546  11.109  20.020  0.00  0.00    +0.000 C 
ATOM     10  C   UNL     1       0.785  10.580  19.449  0.00  0.00    +0.000 C 
ATOM     11  N   UNL     1       1.151   9.267  19.999  0.00  0.00    +0.000 N 
ATOM     12  C   UNL     1       1.794   8.369  19.150  0.00  0.00    +0.000 C 
ATOM     13  O   UNL     1       2.064   8.633  17.979  0.00  0.00    +0.000 OA
ATOM     14  C   UNL     1       1.135   9.239  21.482  0.00  0.00    +0.000 C 
ATOM     15  C   UNL     1      -0.233   9.698  22.024  0.00  0.00    +0.000 C 
BRANCH   8  21
ATOM     16  C   UNL     1      -0.432  13.293  22.501  0.00  0.00    +0.000 A 
ATOM     17  C   UNL     1      -1.057  14.285  23.277  0.00  0.00    +0.000 A 
ATOM     18  C   UNL     1      -2.318  14.073  23.825  0.00  0.00    +0.000 A 
ATOM     19  C   UNL     1      -2.961  12.862  23.623  0.00  0.00    +0.000 A 
ATOM     20  C   UNL     1      -2.336  11.862  22.871  0.00  0.00    +0.000 A 
ATOM     21  C   UNL     1      -1.068  12.039  22.289  0.00  0.00    +0.000 A 
BRANCH  16  23
ATOM     22  C   UNL     1       0.928  14.631  21.057  0.00  0.00    +0.000 C 
ATOM     23  O   UNL     1       0.788  13.493  21.896  0.00  0.00    +0.000 OA
ENDBRANCH  16  23
ENDBRANCH   8  21
ENDBRANCH   1  12
BRANCH   6  24
ATOM     24  S   UNL     1       4.798   4.171  18.560  0.00  0.00    +0.000 S 
ATOM     25  O   UNL     1       6.047   4.152  19.289  0.00  0.00    +0.000 OA
ATOM     26  O   UNL     1       4.193   2.932  18.116  0.00  0.00    +0.000 OA
BRANCH  24  27
ATOM     27  N   UNL     1       4.960   5.135  17.194  0.00  0.00    +0.000 NA
ATOM     28  H   UNL     1       4.400   5.990  17.234  0.00  0.00    +0.000 HD
BRANCH  27  29
ATOM     29  C   UNL     1       6.333   5.379  16.747  0.00  0.00    +0.000 C 
BRANCH  29  30
ATOM     30  C   UNL     1       6.455   4.975  15.326  0.00  0.00    +0.000 A 
ATOM     31  C   UNL     1       5.679   4.190  14.500  0.00  0.00    +0.000 A 
ATOM     32  C   UNL     1       6.374   4.100  13.271  0.00  0.00    +0.000 A 
ATOM     33  C   UNL     1       7.517   4.851  13.419  0.00  0.00    +0.000 A 
ATOM     34  O   UNL     1       7.574   5.392  14.664  0.00  0.00    +0.000 OA
ENDBRANCH  29  30
ENDBRANCH  27  29
ENDBRANCH  24  27
ENDBRANCH   6  24
TORSDOF 7
ENDMDL
MODEL 3
REMARK VINA RESULT:      -8.4      2.899      3.904
REMARK  Name = 
REMARK  8 active torsions:
REMARK  status: ('A' for Active; 'I' for Inactive)
REMARK    1  A    between atoms: C_1  and  O_2
REMARK    2  A    between atoms: O_2  and  C_3
REMARK    3  A    between atoms: C_8  and  N_9
REMARK    4  A    between atoms: C_13  and  C_15
REMARK    5  A    between atoms: C_20  and  S_21
REMARK    6  A    between atoms: S_21  and  N_24
REMARK    7  A    between atoms: N_24  and  C_25
REMARK    8  A    between atoms: C_25  and  C_26
REMARK                            x       y       z     vdW  Elec       q    Type
REMARK                         _______ _______ _______ _____ _____    ______ ____
ROOT
ATOM      1  C   UNL     1       3.592   5.260  18.806  0.00  0.00    +0.000 A 
ATOM      2  C   UNL     1       3.080   4.615  17.678  0.00  0.00    +0.000 A 
ATOM      3  C   UNL     1       3.948   4.099  16.713  0.00  0.00    +0.000 A 
ATOM      4  C   UNL     1       5.336   4.243  16.846  0.00  0.00    +0.000 A 
ATOM      5 CL   UNL     1       6.280   3.640  15.536  0.00  0.00    +0.000 Cl
ATOM      6  C   UNL     1       5.850   4.830  18.004  0.00  0.00    +0.000 A 
ATOM      7  C   UNL     1       4.971   5.285  19.006  0.00  0.00    +0.000 A 
ENDROOT
BRANCH   1  12
ATOM      8  N   UNL     1       1.260   9.853  19.405  0.00  0.00    +0.000 N 
ATOM      9  C   UNL     1       1.329   9.198  20.720  0.00  0.00    +0.000 C 
ATOM     10  C   UNL     1       1.187   7.671  20.553  0.00  0.00    +0.000 C 
ATOM     11  N   UNL     1       2.108   7.128  19.545  0.00  0.00    +0.000 N 
ATOM     12  C   UNL     1       2.645   5.864  19.776  0.00  0.00    +0.000 C 
ATOM     13  O   UNL     1       2.377   5.197  20.776  0.00  0.00    +0.000 OA
ATOM     14  C   UNL     1       2.022   7.838  18.244  0.00  0.00    +0.000 C 
ATOM     15  C   UNL     1       2.244   9.352  18.431  0.00  0.00    +0.000 C 
BRANCH   8  21
ATOM     16  C   UNL     1      -0.645  11.152  18.513  0.00  0.00    +0.000 A 
ATOM     17  C   UNL     1      -1.300  12.390  18.392  0.00  0.00    +0.000 A 
ATOM     18  C   UNL     1      -0.771  13.537  18.975  0.00  0.00    +0.000 A 
ATOM     19  C   UNL     1       0.427  13.466  19.667  0.00  0.00    +0.000 A 
ATOM     20  C   UNL     1       1.097  12.244  19.772  0.00  0.00    +0.000 A 
ATOM     21  C   UNL     1       0.591  11.058  19.209  0.00  0.00    +0.000 A 
BRANCH  16  23
ATOM     22  C   UNL     1      -2.561   9.966  17.710  0.00  0.00    +0.000 C 
ATOM     23  O   UNL     1      -1.171   9.988  17.999  0.00  0.00    +0.000 OA
ENDBRANCH  16  23
ENDBRANCH   8  21
ENDBRANCH   1  12
BRANCH   6  24
ATOM     24  S   UNL     1       7.569   5.216  18.249  0.00  0.00    +0.000 S 
ATOM     25  O   UNL     1       7.787   5.653  19.610  0.00  0.00    +0.000 OA
ATOM     26  O   UNL     1       8.312   4.093  17.714  0.00  0.00    +0.000 OA
BRANCH  24  27
ATOM     27  N   UNL     1       7.830   6.500  17.198  0.00  0.00    +0.000 NA
ATOM     28  H   UNL     1       7.819   6.225  16.213  0.00  0.00    +0.000 HD
BRANCH  27  29
ATOM     29  C   UNL     1       7.038   7.705  17.457  0.00  0.00    +0.000 C 
BRANCH  29  30
ATOM     30  C   UNL     1       7.936   8.768  17.968  0.00  0.00    +0.000 A 
ATOM     31  C   UNL     1       8.895   8.797  18.957  0.00  0.00    +0.000 A 
ATOM     32  C   UNL     1       9.343  10.137  19.037  0.00  0.00    +0.000 A 
ATOM     33  C   UNL     1       8.645  10.834  18.078  0.00  0.00    +0.000 A 
ATOM     34  O   UNL     1       7.788  10.010  17.419  0.00  0.00    +0.000 OA
ENDBRANCH  29  30
ENDBRANCH  27  29
ENDBRANCH  24  27
ENDBRANCH   6  24
TORSDOF 7
ENDMDL
MODEL 4
REMARK VINA RESULT:      -8.3      1.305      1.344
REMARK  Name = 
REMARK  8 active torsions:
REMARK  status: ('A' for Active; 'I' for Inactive)
REMARK    1  A    between atoms: C_1  and  O_2
REMARK    2  A    between atoms: O_2  and  C_3
REMARK    3  A    between atoms: C_8  and  N_9
REMARK    4  A    between atoms: C_13  and  C_15
REMARK    5  A    between atoms: C_20  and  S_21
REMARK    6  A    between atoms: S_21  and  N_24
REMARK    7  A    between atoms: N_24  and  C_25
REMARK    8  A    between atoms: C_25  and  C_26
REMARK                            x       y       z     vdW  Elec       q    Type
REMARK                         _______ _______ _______ _____ _____    ______ ____
ROOT
ATOM      1  C   UNL     1       2.456   6.483  19.429  0.00  0.00    +0.000 A 
ATOM      2  C   UNL     1       1.538   6.200  20.441  0.00  0.00    +0.000 A 
ATOM      3  C   UNL     1       1.565   4.960  21.085  0.00  0.00    +0.000 A 
ATOM      4  C   UNL     1       2.490   3.977  20.708  0.00  0.00    +0.000 A 
ATOM      5 CL   UNL     1       2.350   2.465  21.523  0.00  0.00    +0.000 Cl
ATOM      6  C   UNL     1       3.450   4.282  19.741  0.00  0.00    +0.000 A 
ATOM      7  C   UNL     1       3.460   5.559  19.146  0.00  0.00    +0.000 A 
ENDROOT
BRANCH   1  12
ATOM      8  N   UNL     1      -0.220  10.887  20.007  0.00  0.00    +0.000 N 
ATOM      9  C   UNL     1       0.159  10.763  18.591  0.00  0.00    +0.000 C 
ATOM     10  C   UNL     1       1.533  10.073  18.475  0.00  0.00    +0.000 C 
ATOM     11  N   UNL     1       1.602   8.823  19.244  0.00  0.00    +0.000 N 
ATOM     12  C   UNL     1       2.354   7.779  18.712  0.00  0.00    +0.000 C 
ATOM     13  O   UNL     1       2.954   7.866  17.641  0.00  0.00    +0.000 OA
ATOM     14  C   UNL     1       1.185   8.993  20.658  0.00  0.00    +0.000 C 
ATOM     15  C   UNL     1      -0.224   9.612  20.743  0.00  0.00    +0.000 C 
BRANCH   8  21
ATOM     16  C   UNL     1      -0.176  13.022  21.253  0.00  0.00    +0.000 A 
ATOM     17  C   UNL     1      -0.860  14.170  21.689  0.00  0.00    +0.000 A 
ATOM     18  C   UNL     1      -2.202  14.362  21.378  0.00  0.00    +0.000 A 
ATOM     19  C   UNL     1      -2.882  13.403  20.645  0.00  0.00    +0.000 A 
ATOM     20  C   UNL     1      -2.215  12.248  20.227  0.00  0.00    +0.000 A 
ATOM     21  C   UNL     1      -0.856  12.019  20.509  0.00  0.00    +0.000 A 
BRANCH  16  23
ATOM     22  C   UNL     1       2.080  13.724  20.874  0.00  0.00    +0.000 C 
ATOM     23  O   UNL     1       1.166  12.830  21.493  0.00  0.00    +0.000 OA
ENDBRANCH  16  23
ENDBRANCH   8  21
ENDBRANCH   1  12
BRANCH   6  24
ATOM     24  S   UNL     1       4.586   3.099  19.054  0.00  0.00    +0.000 S 
ATOM     25  O   UNL     1       4.788   2.012  19.985  0.00  0.00    +0.000 OA
ATOM     26  O   UNL     1       4.121   2.832  17.708  0.00  0.00    +0.000 OA
BRANCH  24  27
ATOM     27  N   UNL     1       6.010   3.977  18.898  0.00  0.00    +0.000 NA
ATOM     28  H   UNL     1       6.836   3.468  19.221  0.00  0.00    +0.000 HD
BRANCH  27  29
ATOM     29  C   UNL     1       6.217   4.626  17.601  0.00  0.00    +0.000 C 
BRANCH  29  30
ATOM     30  C   UNL     1       7.008   5.864  17.805  0.00  0.00    +0.000 A 
ATOM     31  C   UNL     1       7.838   6.295  18.817  0.00  0.00    +0.000 A 
ATOM     32  C   UNL     1       8.225   7.613  18.478  0.00  0.00    +0.000 A 
ATOM     33  C   UNL     1       7.625   7.892  17.273  0.00  0.00    +0.000 A 
ATOM     34  O   UNL     1       6.885   6.833  16.852  0.00  0.00    +0.000 OA
ENDBRANCH  29  30
ENDBRANCH  27  29
ENDBRANCH  24  27
ENDBRANCH   6  24
TORSDOF 7
ENDMDL
MODEL 5
REMARK VINA RESULT:      -8.3      1.064      1.289
REMARK  Name = 
REMARK  8 active torsions:
REMARK  status: ('A' for Active; 'I' for Inactive)
REMARK    1  A    between atoms: C_1  and  O_2
REMARK    2  A    between atoms: O_2  and  C_3
REMARK    3  A    between atoms: C_8  and  N_9
REMARK    4  A    between atoms: C_13  and  C_15
REMARK    5  A    between atoms: C_20  and  S_21
REMARK    6  A    between atoms: S_21  and  N_24
REMARK    7  A    between atoms: N_24  and  C_25
REMARK    8  A    between atoms: C_25  and  C_26
REMARK                            x       y       z     vdW  Elec       q    Type
REMARK                         _______ _______ _______ _____ _____    ______ ____
ROOT
ATOM      1  C   UNL     1       2.185   7.070  19.062  0.00  0.00    +0.000 A 
ATOM      2  C   UNL     1       1.744   6.748  20.346  0.00  0.00    +0.000 A 
ATOM      3  C   UNL     1       1.864   5.440  20.820  0.00  0.00    +0.000 A 
ATOM      4  C   UNL     1       2.400   4.430  20.010  0.00  0.00    +0.000 A 
ATOM      5 CL   UNL     1       2.403   2.846  20.690  0.00  0.00    +0.000 Cl
ATOM      6  C   UNL     1       2.901   4.764  18.750  0.00  0.00    +0.000 A 
ATOM      7  C   UNL     1       2.840   6.099  18.306  0.00  0.00    +0.000 A 
ENDROOT
BRANCH   1  12
ATOM      8  N   UNL     1      -0.360  11.297  20.658  0.00  0.00    +0.000 N 
ATOM      9  C   UNL     1      -0.206  11.379  19.197  0.00  0.00    +0.000 C 
ATOM     10  C   UNL     1       1.133  10.739  18.775  0.00  0.00    +0.000 C 
ATOM     11  N   UNL     1       1.317   9.396  19.342  0.00  0.00    +0.000 N 
ATOM     12  C   UNL     1       1.975   8.451  18.558  0.00  0.00    +0.000 C 
ATOM     13  O   UNL     1       2.403   8.698  17.430  0.00  0.00    +0.000 OA
ATOM     14  C   UNL     1       1.126   9.360  20.813  0.00  0.00    +0.000 C 
ATOM     15  C   UNL     1      -0.252   9.933  21.199  0.00  0.00    +0.000 C 
BRANCH   8  21
ATOM     16  C   UNL     1      -0.133  13.416  21.912  0.00  0.00    +0.000 A 
ATOM     17  C   UNL     1      -0.751  14.464  22.616  0.00  0.00    +0.000 A 
ATOM     18  C   UNL     1      -2.129  14.482  22.805  0.00  0.00    +0.000 A 
ATOM     19  C   UNL     1      -2.904  13.445  22.311  0.00  0.00    +0.000 A 
ATOM     20  C   UNL     1      -2.295  12.387  21.629  0.00  0.00    +0.000 A 
ATOM     21  C   UNL     1      -0.907  12.336  21.405  0.00  0.00    +0.000 A 
BRANCH  16  23
ATOM     22  C   UNL     1       1.887  14.647  21.559  0.00  0.00    +0.000 C 
ATOM     23  O   UNL     1       1.219  13.398  21.657  0.00  0.00    +0.000 OA
ENDBRANCH  16  23
ENDBRANCH   8  21
ENDBRANCH   1  12
BRANCH   6  24
ATOM     24  S   UNL     1       3.470   3.577  17.555  0.00  0.00    +0.000 S 
ATOM     25  O   UNL     1       4.274   2.567  18.206  0.00  0.00    +0.000 OA
ATOM     26  O   UNL     1       2.305   3.196  16.782  0.00  0.00    +0.000 OA
BRANCH  24  27
ATOM     27  N   UNL     1       4.439   4.492  16.532  0.00  0.00    +0.000 NA
ATOM     28  H   UNL     1       4.281   5.498  16.619  0.00  0.00    +0.000 HD
BRANCH  27  29
ATOM     29  C   UNL     1       5.860   4.141  16.520  0.00  0.00    +0.000 C 
BRANCH  29  30
ATOM     30  C   UNL     1       6.602   5.116  17.355  0.00  0.00    +0.000 A 
ATOM     31  C   UNL     1       7.028   6.409  17.139  0.00  0.00    +0.000 A 
ATOM     32  C   UNL     1       7.773   6.777  18.284  0.00  0.00    +0.000 A 
ATOM     33  C   UNL     1       7.736   5.696  19.132  0.00  0.00    +0.000 A 
ATOM     34  O   UNL     1       7.023   4.680  18.579  0.00  0.00    +0.000 OA
ENDBRANCH  29  30
ENDBRANCH  27  29
ENDBRANCH  24  27
ENDBRANCH   6  24
TORSDOF 7
ENDMDL
MODEL 6
REMARK VINA RESULT:      -8.2      1.731      2.556
REMARK  Name = 
REMARK  8 active torsions:
REMARK  status: ('A' for Active; 'I' for Inactive)
REMARK    1  A    between atoms: C_1  and  O_2
REMARK    2  A    between atoms: O_2  and  C_3
REMARK    3  A    between atoms: C_8  and  N_9
REMARK    4  A    between atoms: C_13  and  C_15
REMARK    5  A    between atoms: C_20  and  S_21
REMARK    6  A    between atoms: S_21  and  N_24
REMARK    7  A    between atoms: N_24  and  C_25
REMARK    8  A    between atoms: C_25  and  C_26
REMARK                            x       y       z     vdW  Elec       q    Type
REMARK                         _______ _______ _______ _____ _____    ______ ____
ROOT
ATOM      1  C   UNL     1       2.286   7.161  19.199  0.00  0.00    +0.000 A 
ATOM      2  C   UNL     1       1.508   6.661  20.244  0.00  0.00    +0.000 A 
ATOM      3  C   UNL     1       1.750   5.381  20.748  0.00  0.00    +0.000 A 
ATOM      4  C   UNL     1       2.754   4.572  20.198  0.00  0.00    +0.000 A 
ATOM      5 CL   UNL     1       2.881   2.984  20.856  0.00  0.00    +0.000 Cl
ATOM      6  C   UNL     1       3.575   5.095  19.197  0.00  0.00    +0.000 A 
ATOM      7  C   UNL     1       3.370   6.412  18.742  0.00  0.00    +0.000 A 
ENDROOT
BRANCH   1  12
ATOM      8  N   UNL     1      -0.640  11.206  20.599  0.00  0.00    +0.000 N 
ATOM      9  C   UNL     1      -0.484  11.237  19.137  0.00  0.00    +0.000 C 
ATOM     10  C   UNL     1       0.910  10.703  18.747  0.00  0.00    +0.000 C 
ATOM     11  N   UNL     1       1.211   9.408  19.373  0.00  0.00    +0.000 N 
ATOM     12  C   UNL     1       1.956   8.493  18.634  0.00  0.00    +0.000 C 
ATOM     13  O   UNL     1       2.367   8.728  17.497  0.00  0.00    +0.000 OA
ATOM     14  C   UNL     1       1.013   9.419  20.844  0.00  0.00    +0.000 C 
ATOM     15  C   UNL     1      -0.413   9.882  21.201  0.00  0.00    +0.000 C 
BRANCH   8  21
ATOM     16  C   UNL     1      -2.550  12.743  20.915  0.00  0.00    +0.000 A 
ATOM     17  C   UNL     1      -3.176  13.735  21.692  0.00  0.00    +0.000 A 
ATOM     18  C   UNL     1      -2.586  14.203  22.861  0.00  0.00    +0.000 A 
ATOM     19  C   UNL     1      -1.357  13.703  23.259  0.00  0.00    +0.000 A 
ATOM     20  C   UNL     1      -0.717  12.733  22.481  0.00  0.00    +0.000 A 
ATOM     21  C   UNL     1      -1.284  12.223  21.299  0.00  0.00    +0.000 A 
BRANCH  16  23
ATOM     22  C   UNL     1      -4.540  12.361  19.642  0.00  0.00    +0.000 C 
ATOM     23  O   UNL     1      -3.134  12.216  19.786  0.00  0.00    +0.000 OA
ENDBRANCH  16  23
ENDBRANCH   8  21
ENDBRANCH   1  12
BRANCH   6  24
ATOM     24  S   UNL     1       4.785   4.147  18.301  0.00  0.00    +0.000 S 
ATOM     25  O   UNL     1       5.815   3.683  19.204  0.00  0.00    +0.000 OA
ATOM     26  O   UNL     1       4.037   3.201  17.498  0.00  0.00    +0.000 OA
BRANCH  24  27
ATOM     27  N   UNL     1       5.438   5.265  17.231  0.00  0.00    +0.000 NA
ATOM     28  H   UNL     1       5.327   6.233  17.541  0.00  0.00    +0.000 HD
BRANCH  27  29
ATOM     29  C   UNL     1       6.792   4.975  16.756  0.00  0.00    +0.000 C 
BRANCH  29  30
ATOM     30  C   UNL     1       6.742   4.707  15.299  0.00  0.00    +0.000 A 
ATOM     31  C   UNL     1       5.954   3.890  14.517  0.00  0.00    +0.000 A 
ATOM     32  C   UNL     1       6.455   3.998  13.199  0.00  0.00    +0.000 A 
ATOM     33  C   UNL     1       7.501   4.889  13.256  0.00  0.00    +0.000 A 
ATOM     34  O   UNL     1       7.682   5.330  14.528  0.00  0.00    +0.000 OA
ENDBRANCH  29  30
ENDBRANCH  27  29
ENDBRANCH  24  27
ENDBRANCH   6  24
TORSDOF 7
ENDMDL
MODEL 7
REMARK VINA RESULT:      -8.2      1.337      1.742
REMARK  Name = 
REMARK  8 active torsions:
REMARK  status: ('A' for Active; 'I' for Inactive)
REMARK    1  A    between atoms: C_1  and  O_2
REMARK    2  A    between atoms: O_2  and  C_3
REMARK    3  A    between atoms: C_8  and  N_9
REMARK    4  A    between atoms: C_13  and  C_15
REMARK    5  A    between atoms: C_20  and  S_21
REMARK    6  A    between atoms: S_21  and  N_24
REMARK    7  A    between atoms: N_24  and  C_25
REMARK    8  A    between atoms: C_25  and  C_26
REMARK                            x       y       z     vdW  Elec       q    Type
REMARK                         _______ _______ _______ _____ _____    ______ ____
ROOT
ATOM      1  C   UNL     1       2.308   7.011  19.236  0.00  0.00    +0.000 A 
ATOM      2  C   UNL     1       1.530   6.640  20.333  0.00  0.00    +0.000 A 
ATOM      3  C   UNL     1       1.679   5.371  20.900  0.00  0.00    +0.000 A 
ATOM      4  C   UNL     1       2.586   4.447  20.362  0.00  0.00    +0.000 A 
ATOM      5 CL   UNL     1       2.599   2.892  21.103  0.00  0.00    +0.000 Cl
ATOM      6  C   UNL     1       3.409   4.841  19.305  0.00  0.00    +0.000 A 
ATOM      7  C   UNL     1       3.303   6.145  18.785  0.00  0.00    +0.000 A 
ENDROOT
BRANCH   1  12
ATOM      8  N   UNL     1      -0.432  11.265  20.371  0.00  0.00    +0.000 N 
ATOM      9  C   UNL     1      -0.223  11.229  18.916  0.00  0.00    +0.000 C 
ATOM     10  C   UNL     1       1.151  10.604  18.599  0.00  0.00    +0.000 C 
ATOM     11  N   UNL     1       1.356   9.320  19.284  0.00  0.00    +0.000 N 
ATOM     12  C   UNL     1       2.074   8.336  18.609  0.00  0.00    +0.000 C 
ATOM     13  O   UNL     1       2.537   8.503  17.480  0.00  0.00    +0.000 OA
ATOM     14  C   UNL     1       1.108   9.401  20.745  0.00  0.00    +0.000 C 
ATOM     15  C   UNL     1      -0.302   9.956  21.031  0.00  0.00    +0.000 C 
BRANCH   8  21
ATOM     16  C   UNL     1      -2.354  12.787  20.689  0.00  0.00    +0.000 A 
ATOM     17  C   UNL     1      -2.938  13.849  21.402  0.00  0.00    +0.000 A 
ATOM     18  C   UNL     1      -2.258  14.465  22.448  0.00  0.00    +0.000 A 
ATOM     19  C   UNL     1      -0.981  14.042  22.781  0.00  0.00    +0.000 A 
ATOM     20  C   UNL     1      -0.385  13.002  22.063  0.00  0.00    +0.000 A 
ATOM     21  C   UNL     1      -1.041  12.343  21.007  0.00  0.00    +0.000 A 
BRANCH  16  23
ATOM     22  C   UNL     1      -4.417  12.356  19.555  0.00  0.00    +0.000 C 
ATOM     23  O   UNL     1      -3.023  12.117  19.689  0.00  0.00    +0.000 OA
ENDBRANCH  16  23
ENDBRANCH   8  21
ENDBRANCH   1  12
BRANCH   6  24
ATOM     24  S   UNL     1       4.495   3.743  18.423  0.00  0.00    +0.000 S 
ATOM     25  O   UNL     1       5.608   3.367  19.266  0.00  0.00    +0.000 OA
ATOM     26  O   UNL     1       3.646   2.725  17.838  0.00  0.00    +0.000 OA
BRANCH  24  27
ATOM     27  N   UNL     1       5.049   4.687  17.150  0.00  0.00    +0.000 NA
ATOM     28  H   UNL     1       4.711   5.651  17.184  0.00  0.00    +0.000 HD
BRANCH  27  29
ATOM     29  C   UNL     1       6.485   4.601  16.872  0.00  0.00    +0.000 C 
BRANCH  29  30
ATOM     30  C   UNL     1       7.154   5.801  17.429  0.00  0.00    +0.000 A 
ATOM     31  C   UNL     1       7.819   6.045  18.611  0.00  0.00    +0.000 A 
ATOM     32  C   UNL     1       8.152   7.420  18.602  0.00  0.00    +0.000 A 
ATOM     33  C   UNL     1       7.689   7.921  17.408  0.00  0.00    +0.000 A 
ATOM     34  O   UNL     1       7.084   6.944  16.684  0.00  0.00    +0.000 OA
ENDBRANCH  29  30
ENDBRANCH  27  29
ENDBRANCH  24  27
ENDBRANCH   6  24
TORSDOF 7
ENDMDL
MODEL 8
REMARK VINA RESULT:      -8.1      1.500      2.098
REMARK  Name = 
REMARK  8 active torsions:
REMARK  status: ('A' for Active; 'I' for Inactive)
REMARK    1  A    between atoms: C_1  and  O_2
REMARK    2  A    between atoms: O_2  and  C_3
REMARK    3  A    between atoms: C_8  and  N_9
REMARK    4  A    between atoms: C_13  and  C_15
REMARK    5  A    between atoms: C_20  and  S_21
REMARK    6  A    between atoms: S_21  and  N_24
REMARK    7  A    between atoms: N_24  and  C_25
REMARK    8  A    between atoms: C_25  and  C_26
REMARK                            x       y       z     vdW  Elec       q    Type
REMARK                         _______ _______ _______ _____ _____    ______ ____
ROOT
ATOM      1  C   UNL     1       2.211   7.087  18.989  0.00  0.00    +0.000 A 
ATOM      2  C   UNL     1       1.728   6.793  20.265  0.00  0.00    +0.000 A 
ATOM      3  C   UNL     1       1.790   5.485  20.753  0.00  0.00    +0.000 A 
ATOM      4  C   UNL     1       2.309   4.449  19.965  0.00  0.00    +0.000 A 
ATOM      5 CL   UNL     1       2.240   2.873  20.658  0.00  0.00    +0.000 Cl
ATOM      6  C   UNL     1       2.851   4.754  18.714  0.00  0.00    +0.000 A 
ATOM      7  C   UNL     1       2.848   6.086  18.258  0.00  0.00    +0.000 A 
ENDROOT
BRANCH   1  12
ATOM      8  N   UNL     1      -0.445  11.334  20.333  0.00  0.00    +0.000 N 
ATOM      9  C   UNL     1      -0.148  11.414  18.894  0.00  0.00    +0.000 C 
ATOM     10  C   UNL     1       1.220  10.764  18.604  0.00  0.00    +0.000 C 
ATOM     11  N   UNL     1       1.338   9.419  19.185  0.00  0.00    +0.000 N 
ATOM     12  C   UNL     1       2.062   8.469  18.469  0.00  0.00    +0.000 C 
ATOM     13  O   UNL     1       2.599   8.713  17.388  0.00  0.00    +0.000 OA
ATOM     14  C   UNL     1       1.003   9.384  20.630  0.00  0.00    +0.000 C 
ATOM     15  C   UNL     1      -0.401   9.969  20.881  0.00  0.00    +0.000 C 
BRANCH   8  21
ATOM     16  C   UNL     1      -2.412  12.750  20.821  0.00  0.00    +0.000 A 
ATOM     17  C   UNL     1      -2.988  13.778  21.587  0.00  0.00    +0.000 A 
ATOM     18  C   UNL     1      -2.255  14.429  22.575  0.00  0.00    +0.000 A 
ATOM     19  C   UNL     1      -0.934  14.075  22.796  0.00  0.00    +0.000 A 
ATOM     20  C   UNL     1      -0.346  13.069  22.023  0.00  0.00    +0.000 A 
ATOM     21  C   UNL     1      -1.054  12.377  21.024  0.00  0.00    +0.000 A 
BRANCH  16  23
ATOM     22  C   UNL     1      -4.443  12.491  19.584  0.00  0.00    +0.000 C 
ATOM     23  O   UNL     1      -3.126  12.046  19.878  0.00  0.00    +0.000 OA
ENDBRANCH  16  23
ENDBRANCH   8  21
ENDBRANCH   1  12
BRANCH   6  24
ATOM     24  S   UNL     1       3.405   3.536  17.543  0.00  0.00    +0.000 S 
ATOM     25  O   UNL     1       4.204   2.534  18.214  0.00  0.00    +0.000 OA
ATOM     26  O   UNL     1       2.234   3.148  16.784  0.00  0.00    +0.000 OA
BRANCH  24  27
ATOM     27  N   UNL     1       4.377   4.420  16.496  0.00  0.00    +0.000 NA
ATOM     28  H   UNL     1       4.220   5.428  16.554  0.00  0.00    +0.000 HD
BRANCH  27  29
ATOM     29  C   UNL     1       5.799   4.067  16.498  0.00  0.00    +0.000 C 
BRANCH  29  30
ATOM     30  C   UNL     1       6.536   5.049  17.329  0.00  0.00    +0.000 A 
ATOM     31  C   UNL     1       6.960   6.342  17.106  0.00  0.00    +0.000 A 
ATOM     32  C   UNL     1       7.700   6.719  18.251  0.00  0.00    +0.000 A 
ATOM     33  C   UNL     1       7.662   5.643  19.106  0.00  0.00    +0.000 A 
ATOM     34  O   UNL     1       6.953   4.623  18.557  0.00  0.00    +0.000 OA
ENDBRANCH  29  30
ENDBRANCH  27  29
ENDBRANCH  24  27
ENDBRANCH   6  24
TORSDOF 7
ENDMDL
MODEL 9
REMARK VINA RESULT:      -8.0      2.059      2.255
REMARK  Name = 
REMARK  8 active torsions:
REMARK  status: ('A' for Active; 'I' for Inactive)
REMARK    1  A    between atoms: C_1  and  O_2
REMARK    2  A    between atoms: O_2  and  C_3
REMARK    3  A    between atoms: C_8  and  N_9
REMARK    4  A    between atoms: C_13  and  C_15
REMARK    5  A    between atoms: C_20  and  S_21
REMARK    6  A    between atoms: S_21  and  N_24
REMARK    7  A    between atoms: N_24  and  C_25
REMARK    8  A    between atoms: C_25  and  C_26
REMARK                            x       y       z     vdW  Elec       q    Type
REMARK                         _______ _______ _______ _____ _____    ______ ____
ROOT
ATOM      1  C   UNL     1       2.415   6.543  19.421  0.00  0.00    +0.000 A 
ATOM      2  C   UNL     1       1.363   6.131  20.239  0.00  0.00    +0.000 A 
ATOM      3  C   UNL     1       1.400   4.874  20.848  0.00  0.00    +0.000 A 
ATOM      4  C   UNL     1       2.475   4.001  20.626  0.00  0.00    +0.000 A 
ATOM      5 CL   UNL     1       2.345   2.450  21.365  0.00  0.00    +0.000 Cl
ATOM      6  C   UNL     1       3.558   4.439  19.860  0.00  0.00    +0.000 A 
ATOM      7  C   UNL     1       3.544   5.733  19.307  0.00  0.00    +0.000 A 
ENDROOT
BRANCH   1  12
ATOM      8  N   UNL     1      -0.221  10.955  20.112  0.00  0.00    +0.000 N 
ATOM      9  C   UNL     1       0.137  10.853  18.690  0.00  0.00    +0.000 C 
ATOM     10  C   UNL     1       1.505  10.156  18.542  0.00  0.00    +0.000 C 
ATOM     11  N   UNL     1       1.575   8.892  19.289  0.00  0.00    +0.000 N 
ATOM     12  C   UNL     1       2.312   7.852  18.728  0.00  0.00    +0.000 C 
ATOM     13  O   UNL     1       2.899   7.954  17.650  0.00  0.00    +0.000 OA
ATOM     14  C   UNL     1       1.180   9.041  20.711  0.00  0.00    +0.000 C 
ATOM     15  C   UNL     1      -0.224   9.668  20.826  0.00  0.00    +0.000 C 
BRANCH   8  21
ATOM     16  C   UNL     1      -0.137  13.088  21.360  0.00  0.00    +0.000 A 
ATOM     17  C   UNL     1      -0.808  14.231  21.827  0.00  0.00    +0.000 A 
ATOM     18  C   UNL     1      -2.163  14.417  21.572  0.00  0.00    +0.000 A 
ATOM     19  C   UNL     1      -2.868  13.455  20.866  0.00  0.00    +0.000 A 
ATOM     20  C   UNL     1      -2.212  12.304  20.417  0.00  0.00    +0.000 A 
ATOM     21  C   UNL     1      -0.841  12.083  20.642  0.00  0.00    +0.000 A 
BRANCH  16  23
ATOM     22  C   UNL     1       2.100  13.689  20.760  0.00  0.00    +0.000 C 
ATOM     23  O   UNL     1       1.215  12.902  21.544  0.00  0.00    +0.000 OA
ENDBRANCH  16  23
ENDBRANCH   8  21
ENDBRANCH   1  12
BRANCH   6  24
ATOM     24  S   UNL     1       4.916   3.401  19.368  0.00  0.00    +0.000 S 
ATOM     25  O   UNL     1       6.072   4.214  19.063  0.00  0.00    +0.000 OA
ATOM     26  O   UNL     1       5.001   2.354  20.365  0.00  0.00    +0.000 OA
BRANCH  24  27
ATOM     27  N   UNL     1       4.355   2.672  17.962  0.00  0.00    +0.000 NA
ATOM     28  H   UNL     1       3.782   1.844  18.138  0.00  0.00    +0.000 HD
BRANCH  27  29
ATOM     29  C   UNL     1       3.761   3.573  16.973  0.00  0.00    +0.000 C 
BRANCH  29  30
ATOM     30  C   UNL     1       4.847   4.224  16.202  0.00  0.00    +0.000 A 
ATOM     31  C   UNL     1       5.112   5.535  15.872  0.00  0.00    +0.000 A 
ATOM     32  C   UNL     1       6.251   5.511  15.034  0.00  0.00    +0.000 A 
ATOM     33  C   UNL     1       6.621   4.191  14.924  0.00  0.00    +0.000 A 
ATOM     34  O   UNL     1       5.776   3.399  15.634  0.00  0.00    +0.000 OA
ENDBRANCH  29  30
ENDBRANCH  27  29
ENDBRANCH  24  27
ENDBRANCH   6  24
TORSDOF 7
ENDMDL
