MODEL 1
REMARK VINA RESULT:      -7.8      0.000      0.000
REMARK  Name = 
REMARK  7 active torsions:
REMARK  status: ('A' for Active; 'I' for Inactive)
REMARK    1  A    between atoms: C_2  and  C_3
REMARK    2  A    between atoms: C_7  and  N_8
REMARK    3  A    between atoms: N_8  and  C_9
REMARK    4  A    between atoms: C_13  and  N_14
REMARK    5  A    between atoms: C_21  and  N_22
REMARK    6  A    between atoms: N_22  and  C_23
REMARK    7  A    between atoms: C_26  and  O_27
REMARK                            x       y       z     vdW  Elec       q    Type
REMARK                         _______ _______ _______ _____ _____    ______ ____
ROOT
ATOM      1  C   UNL     1       2.667   7.599  18.192  0.00  0.00    +0.000 A 
ATOM      2  N   UNL     1       2.167   8.805  17.834  0.00  0.00    +0.000 NA
ATOM      3  C   UNL     1       1.535   9.528  18.756  0.00  0.00    +0.000 A 
ATOM      4  C   UNL     1       1.054  10.769  18.380  0.00  0.00    +0.000 A 
ATOM      5  C   UNL     1       0.364  11.559  19.294  0.00  0.00    +0.000 A 
ATOM      6  C   UNL     1       0.149  11.103  20.597  0.00  0.00    +0.000 A 
ATOM      7  C   UNL     1       0.653   9.849  20.970  0.00  0.00    +0.000 A 
ATOM      8  C   UNL     1       1.359   9.055  20.070  0.00  0.00    +0.000 A 
ATOM      9  N   UNL     1       1.874   7.870  20.447  0.00  0.00    +0.000 NA
ATOM     10  C   UNL     1       2.554   7.135  19.521  0.00  0.00    +0.000 A 
ENDROOT
BRANCH   5  11
ATOM     11  N   UNL     1      -0.135  12.874  18.874  0.00  0.00    +0.000 N 
ATOM     12  O   UNL     1      -0.921  12.918  17.916  0.00  0.00    +0.000 OA
ATOM     13  O   UNL     1       0.266  13.863  19.504  0.00  0.00    +0.000 OA
ENDBRANCH   5  11
BRANCH   1  14
ATOM     14  N   UNL     1       3.329   6.837  17.194  0.00  0.00    +0.000 N 
ATOM     15  H   UNL     1       2.792   5.989  17.035  0.00  0.00    +0.000 HD
BRANCH  14  20
ATOM     16  C   UNL     1       7.000   7.473  17.526  0.00  0.00    +0.000 A 
ATOM     17  C   UNL     1       7.524   6.232  17.172  0.00  0.00    +0.000 A 
ATOM     18  C   UNL     1       6.661   5.197  16.799  0.00  0.00    +0.000 A 
ATOM     19  C   UNL     1       5.274   5.396  16.793  0.00  0.00    +0.000 A 
ATOM     20  C   UNL     1       4.731   6.620  17.196  0.00  0.00    +0.000 A 
ATOM     21  C   UNL     1       5.617   7.657  17.538  0.00  0.00    +0.000 A 
BRANCH  16  23
ATOM     22  C   UNL     1       8.542   9.516  18.147  0.00  0.00    +0.000 C 
ATOM     23  C   UNL     1       7.859   8.574  17.840  0.00  0.00    +0.000 C 
ENDBRANCH  16  23
ENDBRANCH  14  20
ENDBRANCH   1  14
BRANCH  10  24
ATOM     24  N   UNL     1       3.179   5.915  19.908  0.00  0.00    +0.000 N 
ATOM     25  H   UNL     1       4.182   5.977  19.769  0.00  0.00    +0.000 HD
BRANCH  24  26
ATOM     26  C   UNL     1       2.627   4.632  19.701  0.00  0.00    +0.000 A 
ATOM     27  C   UNL     1       3.339   3.630  19.023  0.00  0.00    +0.000 A 
ATOM     28  C   UNL     1       2.735   2.395  18.741  0.00  0.00    +0.000 A 
ATOM     29  C   UNL     1       1.430   2.154  19.156  0.00  0.00    +0.000 A 
ATOM     30  C   UNL     1       0.741   3.098  19.900  0.00  0.00    +0.000 A 
ATOM     31  C   UNL     1       1.343   4.324  20.174  0.00  0.00    +0.000 A 
BRANCH  29  32
ATOM     32  O   UNL     1       0.777   1.000  18.840  0.00  0.00    +0.000 OA
ATOM     33  H   UNL     1       0.434   1.079  17.936  0.00  0.00    +0.000 HD
ENDBRANCH  29  32
ENDBRANCH  24  26
ENDBRANCH  10  24
TORSDOF 7
ENDMDL
MODEL 2
REMARK VINA RESULT:      -7.6      1.195      1.566
REMARK  Name = 
REMARK  7 active torsions:
REMARK  status: ('A' for Active; 'I' for Inactive)
REMARK    1  A    between atoms: C_2  and  C_3
REMARK    2  A    between atoms: C_7  and  N_8
REMARK    3  A    between atoms: N_8  and  C_9
REMARK    4  A    between atoms: C_13  and  N_14
REMARK    5  A    between atoms: C_21  and  N_22
REMARK    6  A    between atoms: N_22  and  C_23
REMARK    7  A    between atoms: C_26  and  O_27
REMARK                            x       y       z     vdW  Elec       q    Type
REMARK                         _______ _______ _______ _____ _____    ______ ____
ROOT
ATOM      1  C   UNL     1       2.404   6.760  18.675  0.00  0.00    +0.000 A 
ATOM      2  N   UNL     1       2.283   7.980  18.100  0.00  0.00    +0.000 NA
ATOM      3  C   UNL     1       1.808   8.983  18.837  0.00  0.00    +0.000 A 
ATOM      4  C   UNL     1       1.717  10.228  18.242  0.00  0.00    +0.000 A 
ATOM      5  C   UNL     1       1.205  11.309  18.955  0.00  0.00    +0.000 A 
ATOM      6  C   UNL     1       0.778  11.142  20.275  0.00  0.00    +0.000 A 
ATOM      7  C   UNL     1       0.889   9.879  20.870  0.00  0.00    +0.000 A 
ATOM      8  C   UNL     1       1.413   8.792  20.174  0.00  0.00    +0.000 A 
ATOM      9  N   UNL     1       1.553   7.591  20.766  0.00  0.00    +0.000 NA
ATOM     10  C   UNL     1       2.070   6.564  20.033  0.00  0.00    +0.000 A 
ENDROOT
BRANCH   5  11
ATOM     11  N   UNL     1       1.120  12.622  18.304  0.00  0.00    +0.000 N 
ATOM     12  O   UNL     1       2.169  13.128  17.879  0.00  0.00    +0.000 OA
ATOM     13  O   UNL     1      -0.000  13.146  18.223  0.00  0.00    +0.000 OA
ENDBRANCH   5  11
BRANCH   1  14
ATOM     14  N   UNL     1       2.902   5.701  17.873  0.00  0.00    +0.000 N 
ATOM     15  H   UNL     1       2.630   4.822  18.304  0.00  0.00    +0.000 HD
BRANCH  14  20
ATOM     16  C   UNL     1       6.446   6.694  17.206  0.00  0.00    +0.000 A 
ATOM     17  C   UNL     1       6.842   5.704  16.310  0.00  0.00    +0.000 A 
ATOM     18  C   UNL     1       5.926   4.726  15.909  0.00  0.00    +0.000 A 
ATOM     19  C   UNL     1       4.619   4.728  16.414  0.00  0.00    +0.000 A 
ATOM     20  C   UNL     1       4.222   5.685  17.354  0.00  0.00    +0.000 A 
ATOM     21  C   UNL     1       5.149   6.677  17.721  0.00  0.00    +0.000 A 
BRANCH  16  23
ATOM     22  C   UNL     1       8.052   8.677  17.856  0.00  0.00    +0.000 C 
ATOM     23  C   UNL     1       7.337   7.750  17.578  0.00  0.00    +0.000 C 
ENDBRANCH  16  23
ENDBRANCH  14  20
ENDBRANCH   1  14
BRANCH  10  24
ATOM     24  N   UNL     1       2.306   5.303  20.652  0.00  0.00    +0.000 N 
ATOM     25  H   UNL     1       2.726   5.435  21.566  0.00  0.00    +0.000 HD
BRANCH  24  26
ATOM     26  C   UNL     1       2.723   4.141  19.968  0.00  0.00    +0.000 A 
ATOM     27  C   UNL     1       1.819   3.359  19.232  0.00  0.00    +0.000 A 
ATOM     28  C   UNL     1       2.234   2.156  18.642  0.00  0.00    +0.000 A 
ATOM     29  C   UNL     1       3.557   1.746  18.767  0.00  0.00    +0.000 A 
ATOM     30  C   UNL     1       4.484   2.545  19.417  0.00  0.00    +0.000 A 
ATOM     31  C   UNL     1       4.066   3.737  20.004  0.00  0.00    +0.000 A 
BRANCH  29  32
ATOM     32  O   UNL     1       3.988   0.550  18.276  0.00  0.00    +0.000 OA
ATOM     33  H   UNL     1       4.443   0.072  18.987  0.00  0.00    +0.000 HD
ENDBRANCH  29  32
ENDBRANCH  24  26
ENDBRANCH  10  24
TORSDOF 7
ENDMDL
MODEL 3
REMARK VINA RESULT:      -7.6      3.637      7.192
REMARK  Name = 
REMARK  7 active torsions:
REMARK  status: ('A' for Active; 'I' for Inactive)
REMARK    1  A    between atoms: C_2  and  C_3
REMARK    2  A    between atoms: C_7  and  N_8
REMARK    3  A    between atoms: N_8  and  C_9
REMARK    4  A    between atoms: C_13  and  N_14
REMARK    5  A    between atoms: C_21  and  N_22
REMARK    6  A    between atoms: N_22  and  C_23
REMARK    7  A    between atoms: C_26  and  O_27
REMARK                            x       y       z     vdW  Elec       q    Type
REMARK                         _______ _______ _______ _____ _____    ______ ____
ROOT
ATOM      1  C   UNL     1       0.099  11.870  18.907  0.00  0.00    +0.000 A 
ATOM      2  N   UNL     1       0.077  13.177  19.260  0.00  0.00    +0.000 NA
ATOM      3  C   UNL     1       1.166  13.911  19.040  0.00  0.00    +0.000 A 
ATOM      4  C   UNL     1       1.117  15.250  19.380  0.00  0.00    +0.000 A 
ATOM      5  C   UNL     1       2.233  16.061  19.196  0.00  0.00    +0.000 A 
ATOM      6  C   UNL     1       3.412  15.527  18.669  0.00  0.00    +0.000 A 
ATOM      7  C   UNL     1       3.444  14.171  18.315  0.00  0.00    +0.000 A 
ATOM      8  C   UNL     1       2.330  13.352  18.480  0.00  0.00    +0.000 A 
ATOM      9  N   UNL     1       2.357  12.060  18.100  0.00  0.00    +0.000 NA
ATOM     10  C   UNL     1       1.236  11.307  18.288  0.00  0.00    +0.000 A 
ENDROOT
BRANCH   5  11
ATOM     11  N   UNL     1       2.156  17.481  19.562  0.00  0.00    +0.000 N 
ATOM     12  O   UNL     1       1.056  18.045  19.474  0.00  0.00    +0.000 OA
ATOM     13  O   UNL     1       3.203  18.030  19.936  0.00  0.00    +0.000 OA
ENDBRANCH   5  11
BRANCH   1  14
ATOM     14  N   UNL     1      -1.067  11.101  19.159  0.00  0.00    +0.000 N 
ATOM     15  H   UNL     1      -0.779  10.153  19.388  0.00  0.00    +0.000 HD
BRANCH  14  20
ATOM     16  C   UNL     1      -3.272  10.729  16.160  0.00  0.00    +0.000 A 
ATOM     17  C   UNL     1      -4.465  11.269  16.632  0.00  0.00    +0.000 A 
ATOM     18  C   UNL     1      -4.529  11.779  17.932  0.00  0.00    +0.000 A 
ATOM     19  C   UNL     1      -3.404  11.736  18.767  0.00  0.00    +0.000 A 
ATOM     20  C   UNL     1      -2.214  11.150  18.326  0.00  0.00    +0.000 A 
ATOM     21  C   UNL     1      -2.162  10.671  17.004  0.00  0.00    +0.000 A 
BRANCH  16  23
ATOM     22  C   UNL     1      -3.039   9.825  13.697  0.00  0.00    +0.000 C 
ATOM     23  C   UNL     1      -3.153  10.268  14.811  0.00  0.00    +0.000 C 
ENDBRANCH  16  23
ENDBRANCH  14  20
ENDBRANCH   1  14
BRANCH  10  24
ATOM     24  N   UNL     1       1.205   9.960  17.825  0.00  0.00    +0.000 N 
ATOM     25  H   UNL     1       0.361   9.795  17.288  0.00  0.00    +0.000 HD
BRANCH  24  26
ATOM     26  C   UNL     1       1.668   8.849  18.564  0.00  0.00    +0.000 A 
ATOM     27  C   UNL     1       2.454   7.851  17.968  0.00  0.00    +0.000 A 
ATOM     28  C   UNL     1       2.821   6.706  18.693  0.00  0.00    +0.000 A 
ATOM     29  C   UNL     1       2.421   6.572  20.019  0.00  0.00    +0.000 A 
ATOM     30  C   UNL     1       1.717   7.584  20.649  0.00  0.00    +0.000 A 
ATOM     31  C   UNL     1       1.352   8.717  19.924  0.00  0.00    +0.000 A 
BRANCH  29  32
ATOM     32  O   UNL     1       2.689   5.445  20.739  0.00  0.00    +0.000 OA
ATOM     33  H   UNL     1       3.445   5.625  21.320  0.00  0.00    +0.000 HD
ENDBRANCH  29  32
ENDBRANCH  24  26
ENDBRANCH  10  24
TORSDOF 7
ENDMDL
MODEL 4
REMARK VINA RESULT:      -7.6      4.175      8.712
REMARK  Name = 
REMARK  7 active torsions:
REMARK  status: ('A' for Active; 'I' for Inactive)
REMARK    1  A    between atoms: C_2  and  C_3
REMARK    2  A    between atoms: C_7  and  N_8
REMARK    3  A    between atoms: N_8  and  C_9
REMARK    4  A    between atoms: C_13  and  N_14
REMARK    5  A    between atoms: C_21  and  N_22
REMARK    6  A    between atoms: N_22  and  C_23
REMARK    7  A    between atoms: C_26  and  O_27
REMARK                            x       y       z     vdW  Elec       q    Type
REMARK                         _______ _______ _______ _____ _____    ______ ____
ROOT
ATOM      1  C   UNL     1       6.005   4.651  17.283  0.00  0.00    +0.000 A 
ATOM      2  N   UNL     1       5.464   3.930  16.274  0.00  0.00    +0.000 NA
ATOM      3  C   UNL     1       5.961   4.083  15.048  0.00  0.00    +0.000 A 
ATOM      4  C   UNL     1       5.414   3.318  14.034  0.00  0.00    +0.000 A 
ATOM      5  C   UNL     1       5.876   3.453  12.728  0.00  0.00    +0.000 A 
ATOM      6  C   UNL     1       6.894   4.364  12.432  0.00  0.00    +0.000 A 
ATOM      7  C   UNL     1       7.449   5.123  13.471  0.00  0.00    +0.000 A 
ATOM      8  C   UNL     1       7.007   4.988  14.785  0.00  0.00    +0.000 A 
ATOM      9  N   UNL     1       7.572   5.691  15.784  0.00  0.00    +0.000 NA
ATOM     10  C   UNL     1       7.095   5.518  17.049  0.00  0.00    +0.000 A 
ENDROOT
BRANCH   5  11
ATOM     11  N   UNL     1       5.283   2.628  11.668  0.00  0.00    +0.000 N 
ATOM     12  O   UNL     1       4.175   2.963  11.224  0.00  0.00    +0.000 OA
ATOM     13  O   UNL     1       5.930   1.644  11.283  0.00  0.00    +0.000 OA
ENDBRANCH   5  11
BRANCH   1  14
ATOM     14  N   UNL     1       5.456   4.483  18.581  0.00  0.00    +0.000 N 
ATOM     15  H   UNL     1       5.509   3.497  18.823  0.00  0.00    +0.000 HD
BRANCH  14  20
ATOM     16  C   UNL     1       2.650   6.945  18.821  0.00  0.00    +0.000 A 
ATOM     17  C   UNL     1       1.854   6.354  19.799  0.00  0.00    +0.000 A 
ATOM     18  C   UNL     1       2.262   5.157  20.395  0.00  0.00    +0.000 A 
ATOM     19  C   UNL     1       3.458   4.541  20.004  0.00  0.00    +0.000 A 
ATOM     20  C   UNL     1       4.242   5.094  18.987  0.00  0.00    +0.000 A 
ATOM     21  C   UNL     1       3.829   6.314  18.422  0.00  0.00    +0.000 A 
BRANCH  16  23
ATOM     22  C   UNL     1       2.004   9.242  17.707  0.00  0.00    +0.000 C 
ATOM     23  C   UNL     1       2.298   8.206  18.246  0.00  0.00    +0.000 C 
ENDBRANCH  16  23
ENDBRANCH  14  20
ENDBRANCH   1  14
BRANCH  10  24
ATOM     24  N   UNL     1       7.724   6.187  18.138  0.00  0.00    +0.000 N 
ATOM     25  H   UNL     1       7.453   5.756  19.016  0.00  0.00    +0.000 HD
BRANCH  24  26
ATOM     26  C   UNL     1       7.945   7.580  18.202  0.00  0.00    +0.000 A 
ATOM     27  C   UNL     1       7.269   8.468  17.351  0.00  0.00    +0.000 A 
ATOM     28  C   UNL     1       7.575   9.838  17.363  0.00  0.00    +0.000 A 
ATOM     29  C   UNL     1       8.540  10.321  18.240  0.00  0.00    +0.000 A 
ATOM     30  C   UNL     1       9.158   9.475  19.146  0.00  0.00    +0.000 A 
ATOM     31  C   UNL     1       8.853   8.115  19.127  0.00  0.00    +0.000 A 
BRANCH  29  32
ATOM     32  O   UNL     1       8.925  11.629  18.234  0.00  0.00    +0.000 OA
ATOM     33  H   UNL     1       9.861  11.675  18.485  0.00  0.00    +0.000 HD
ENDBRANCH  29  32
ENDBRANCH  24  26
ENDBRANCH  10  24
TORSDOF 7
ENDMDL
MODEL 5
REMARK VINA RESULT:      -7.5      4.021      6.891
REMARK  Name = 
REMARK  7 active torsions:
REMARK  status: ('A' for Active; 'I' for Inactive)
REMARK    1  A    between atoms: C_2  and  C_3
REMARK    2  A    between atoms: C_7  and  N_8
REMARK    3  A    between atoms: N_8  and  C_9
REMARK    4  A    between atoms: C_13  and  N_14
REMARK    5  A    between atoms: C_21  and  N_22
REMARK    6  A    between atoms: N_22  and  C_23
REMARK    7  A    between atoms: C_26  and  O_27
REMARK                            x       y       z     vdW  Elec       q    Type
REMARK                         _______ _______ _______ _____ _____    ______ ____
ROOT
ATOM      1  C   UNL     1       0.586  11.787  20.046  0.00  0.00    +0.000 A 
ATOM      2  N   UNL     1       1.684  12.566  20.194  0.00  0.00    +0.000 NA
ATOM      3  C   UNL     1       1.633  13.822  19.753  0.00  0.00    +0.000 A 
ATOM      4  C   UNL     1       2.753  14.612  19.936  0.00  0.00    +0.000 A 
ATOM      5  C   UNL     1       2.767  15.924  19.474  0.00  0.00    +0.000 A 
ATOM      6  C   UNL     1       1.651  16.452  18.819  0.00  0.00    +0.000 A 
ATOM      7  C   UNL     1       0.517  15.646  18.652  0.00  0.00    +0.000 A 
ATOM      8  C   UNL     1       0.483  14.335  19.123  0.00  0.00    +0.000 A 
ATOM      9  N   UNL     1      -0.623  13.580  18.994  0.00  0.00    +0.000 NA
ATOM     10  C   UNL     1      -0.596  12.304  19.473  0.00  0.00    +0.000 A 
ENDROOT
BRANCH   5  11
ATOM     11  N   UNL     1       3.966  16.746  19.682  0.00  0.00    +0.000 N 
ATOM     12  O   UNL     1       3.808  17.925  20.032  0.00  0.00    +0.000 OA
ATOM     13  O   UNL     1       5.066  16.206  19.492  0.00  0.00    +0.000 OA
ENDBRANCH   5  11
BRANCH   1  14
ATOM     14  N   UNL     1       0.661  10.449  20.512  0.00  0.00    +0.000 N 
ATOM     15  H   UNL     1       0.987  10.466  21.475  0.00  0.00    +0.000 HD
BRANCH  14  20
ATOM     16  C   UNL     1       2.037   7.094  19.593  0.00  0.00    +0.000 A 
ATOM     17  C   UNL     1       2.406   7.305  18.267  0.00  0.00    +0.000 A 
ATOM     18  C   UNL     1       2.222   8.565  17.689  0.00  0.00    +0.000 A 
ATOM     19  C   UNL     1       1.657   9.611  18.432  0.00  0.00    +0.000 A 
ATOM     20  C   UNL     1       1.234   9.400  19.748  0.00  0.00    +0.000 A 
ATOM     21  C   UNL     1       1.455   8.134  20.319  0.00  0.00    +0.000 A 
BRANCH  16  23
ATOM     22  C   UNL     1       2.445   4.757  20.737  0.00  0.00    +0.000 C 
ATOM     23  C   UNL     1       2.281   5.839  20.235  0.00  0.00    +0.000 C 
ENDBRANCH  16  23
ENDBRANCH  14  20
ENDBRANCH   1  14
BRANCH  10  24
ATOM     24  N   UNL     1      -1.775  11.506  19.424  0.00  0.00    +0.000 N 
ATOM     25  H   UNL     1      -1.759  10.813  20.164  0.00  0.00    +0.000 HD
BRANCH  24  26
ATOM     26  C   UNL     1      -2.412  11.092  18.233  0.00  0.00    +0.000 A 
ATOM     27  C   UNL     1      -1.805  10.178  17.358  0.00  0.00    +0.000 A 
ATOM     28  C   UNL     1      -2.411   9.855  16.134  0.00  0.00    +0.000 A 
ATOM     29  C   UNL     1      -3.633  10.428  15.796  0.00  0.00    +0.000 A 
ATOM     30  C   UNL     1      -4.288  11.266  16.683  0.00  0.00    +0.000 A 
ATOM     31  C   UNL     1      -3.681  11.586  17.896  0.00  0.00    +0.000 A 
BRANCH  29  32
ATOM     32  O   UNL     1      -4.222  10.204  14.587  0.00  0.00    +0.000 OA
ATOM     33  H   UNL     1      -3.847  10.824  13.943  0.00  0.00    +0.000 HD
ENDBRANCH  29  32
ENDBRANCH  24  26
ENDBRANCH  10  24
TORSDOF 7
ENDMDL
MODEL 6
REMARK VINA RESULT:      -7.5      3.887      7.786
REMARK  Name = 
REMARK  7 active torsions:
REMARK  status: ('A' for Active; 'I' for Inactive)
REMARK    1  A    between atoms: C_2  and  C_3
REMARK    2  A    between atoms: C_7  and  N_8
REMARK    3  A    between atoms: N_8  and  C_9
REMARK    4  A    between atoms: C_13  and  N_14
REMARK    5  A    between atoms: C_21  and  N_22
REMARK    6  A    between atoms: N_22  and  C_23
REMARK    7  A    between atoms: C_26  and  O_27
REMARK                            x       y       z     vdW  Elec       q    Type
REMARK                         _______ _______ _______ _____ _____    ______ ____
ROOT
ATOM      1  C   UNL     1      -0.415  10.471  19.314  0.00  0.00    +0.000 A 
ATOM      2  N   UNL     1      -0.692  10.056  18.056  0.00  0.00    +0.000 NA
ATOM      3  C   UNL     1      -1.826  10.465  17.490  0.00  0.00    +0.000 A 
ATOM      4  C   UNL     1      -2.081  10.054  16.194  0.00  0.00    +0.000 A 
ATOM      5  C   UNL     1      -3.262  10.429  15.560  0.00  0.00    +0.000 A 
ATOM      6  C   UNL     1      -4.199  11.221  16.229  0.00  0.00    +0.000 A 
ATOM      7  C   UNL     1      -3.923  11.642  17.536  0.00  0.00    +0.000 A 
ATOM      8  C   UNL     1      -2.739  11.287  18.178  0.00  0.00    +0.000 A 
ATOM      9  N   UNL     1      -2.463  11.728  19.419  0.00  0.00    +0.000 NA
ATOM     10  C   UNL     1      -1.288  11.345  19.997  0.00  0.00    +0.000 A 
ENDROOT
BRANCH   5  11
ATOM     11  N   UNL     1      -3.510   9.984  14.183  0.00  0.00    +0.000 N 
ATOM     12  O   UNL     1      -2.530   9.819  13.441  0.00  0.00    +0.000 OA
ATOM     13  O   UNL     1      -4.689   9.802  13.847  0.00  0.00    +0.000 OA
ENDBRANCH   5  11
BRANCH   1  14
ATOM     14  N   UNL     1       0.793  10.018  19.905  0.00  0.00    +0.000 N 
ATOM     15  H   UNL     1       1.387  10.825  20.072  0.00  0.00    +0.000 HD
BRANCH  14  20
ATOM     16  C   UNL     1       2.240   6.573  19.723  0.00  0.00    +0.000 A 
ATOM     17  C   UNL     1       2.946   6.638  18.525  0.00  0.00    +0.000 A 
ATOM     18  C   UNL     1       2.963   7.830  17.794  0.00  0.00    +0.000 A 
ATOM     19  C   UNL     1       2.262   8.953  18.253  0.00  0.00    +0.000 A 
ATOM     20  C   UNL     1       1.506   8.888  19.427  0.00  0.00    +0.000 A 
ATOM     21  C   UNL     1       1.527   7.689  20.163  0.00  0.00    +0.000 A 
BRANCH  16  23
ATOM     22  C   UNL     1       2.226   4.389  21.196  0.00  0.00    +0.000 C 
ATOM     23  C   UNL     1       2.265   5.392  20.531  0.00  0.00    +0.000 C 
ENDBRANCH  16  23
ENDBRANCH  14  20
ENDBRANCH   1  14
BRANCH  10  24
ATOM     24  N   UNL     1      -0.930  11.859  21.276  0.00  0.00    +0.000 N 
ATOM     25  H   UNL     1      -0.335  11.199  21.764  0.00  0.00    +0.000 HD
BRANCH  24  26
ATOM     26  C   UNL     1      -1.791  12.611  22.106  0.00  0.00    +0.000 A 
ATOM     27  C   UNL     1      -1.832  14.012  22.041  0.00  0.00    +0.000 A 
ATOM     28  C   UNL     1      -2.621  14.744  22.942  0.00  0.00    +0.000 A 
ATOM     29  C   UNL     1      -3.384  14.074  23.892  0.00  0.00    +0.000 A 
ATOM     30  C   UNL     1      -3.422  12.690  23.919  0.00  0.00    +0.000 A 
ATOM     31  C   UNL     1      -2.635  11.968  23.024  0.00  0.00    +0.000 A 
BRANCH  29  32
ATOM     32  O   UNL     1      -4.105  14.744  24.836  0.00  0.00    +0.000 OA
ATOM     33  H   UNL     1      -3.554  14.849  25.627  0.00  0.00    +0.000 HD
ENDBRANCH  29  32
ENDBRANCH  24  26
ENDBRANCH  10  24
TORSDOF 7
ENDMDL
MODEL 7
REMARK VINA RESULT:      -7.5      3.906      7.779
REMARK  Name = 
REMARK  7 active torsions:
REMARK  status: ('A' for Active; 'I' for Inactive)
REMARK    1  A    between atoms: C_2  and  C_3
REMARK    2  A    between atoms: C_7  and  N_8
REMARK    3  A    between atoms: N_8  and  C_9
REMARK    4  A    between atoms: C_13  and  N_14
REMARK    5  A    between atoms: C_21  and  N_22
REMARK    6  A    between atoms: N_22  and  C_23
REMARK    7  A    between atoms: C_26  and  O_27
REMARK                            x       y       z     vdW  Elec       q    Type
REMARK                         _______ _______ _______ _____ _____    ______ ____
ROOT
ATOM      1  C   UNL     1      -0.452  10.513  19.297  0.00  0.00    +0.000 A 
ATOM      2  N   UNL     1      -0.723  10.088  18.041  0.00  0.00    +0.000 NA
ATOM      3  C   UNL     1      -1.855  10.490  17.466  0.00  0.00    +0.000 A 
ATOM      4  C   UNL     1      -2.103  10.069  16.173  0.00  0.00    +0.000 A 
ATOM      5  C   UNL     1      -3.281  10.437  15.530  0.00  0.00    +0.000 A 
ATOM      6  C   UNL     1      -4.223  11.233  16.188  0.00  0.00    +0.000 A 
ATOM      7  C   UNL     1      -3.953  11.665  17.494  0.00  0.00    +0.000 A 
ATOM      8  C   UNL     1      -2.772  11.317  18.144  0.00  0.00    +0.000 A 
ATOM      9  N   UNL     1      -2.502  11.768  19.383  0.00  0.00    +0.000 NA
ATOM     10  C   UNL     1      -1.330  11.392  19.969  0.00  0.00    +0.000 A 
ENDROOT
BRANCH   5  11
ATOM     11  N   UNL     1      -3.522   9.981  14.156  0.00  0.00    +0.000 N 
ATOM     12  O   UNL     1      -4.696   9.785  13.807  0.00  0.00    +0.000 OA
ATOM     13  O   UNL     1      -2.532   9.817  13.428  0.00  0.00    +0.000 OA
ENDBRANCH   5  11
BRANCH   1  14
ATOM     14  N   UNL     1       0.754  10.066  19.897  0.00  0.00    +0.000 N 
ATOM     15  H   UNL     1       1.344  10.876  20.065  0.00  0.00    +0.000 HD
BRANCH  14  20
ATOM     16  C   UNL     1       2.200   6.620  19.729  0.00  0.00    +0.000 A 
ATOM     17  C   UNL     1       2.927   6.689  18.543  0.00  0.00    +0.000 A 
ATOM     18  C   UNL     1       2.957   7.883  17.816  0.00  0.00    +0.000 A 
ATOM     19  C   UNL     1       2.250   9.006  18.267  0.00  0.00    +0.000 A 
ATOM     20  C   UNL     1       1.474   8.937  19.428  0.00  0.00    +0.000 A 
ATOM     21  C   UNL     1       1.481   7.736  20.159  0.00  0.00    +0.000 A 
BRANCH  16  23
ATOM     22  C   UNL     1       2.261   4.418  21.171  0.00  0.00    +0.000 C 
ATOM     23  C   UNL     1       2.210   5.437  20.532  0.00  0.00    +0.000 C 
ENDBRANCH  16  23
ENDBRANCH  14  20
ENDBRANCH   1  14
BRANCH  10  24
ATOM     24  N   UNL     1      -0.978  11.916  21.245  0.00  0.00    +0.000 N 
ATOM     25  H   UNL     1      -0.304  11.309  21.699  0.00  0.00    +0.000 HD
BRANCH  24  26
ATOM     26  C   UNL     1      -1.878  12.564  22.120  0.00  0.00    +0.000 A 
ATOM     27  C   UNL     1      -2.527  11.867  23.151  0.00  0.00    +0.000 A 
ATOM     28  C   UNL     1      -3.491  12.507  23.946  0.00  0.00    +0.000 A 
ATOM     29  C   UNL     1      -3.789  13.847  23.724  0.00  0.00    +0.000 A 
ATOM     30  C   UNL     1      -3.099  14.575  22.769  0.00  0.00    +0.000 A 
ATOM     31  C   UNL     1      -2.145  13.934  21.980  0.00  0.00    +0.000 A 
BRANCH  29  32
ATOM     32  O   UNL     1      -4.770  14.490  24.420  0.00  0.00    +0.000 OA
ATOM     33  H   UNL     1      -4.353  15.042  25.100  0.00  0.00    +0.000 HD
ENDBRANCH  29  32
ENDBRANCH  24  26
ENDBRANCH  10  24
TORSDOF 7
ENDMDL
MODEL 8
REMARK VINA RESULT:      -7.5      4.392      7.672
REMARK  Name = 
REMARK  7 active torsions:
REMARK  status: ('A' for Active; 'I' for Inactive)
REMARK    1  A    between atoms: C_2  and  C_3
REMARK    2  A    between atoms: C_7  and  N_8
REMARK    3  A    between atoms: N_8  and  C_9
REMARK    4  A    between atoms: C_13  and  N_14
REMARK    5  A    between atoms: C_21  and  N_22
REMARK    6  A    between atoms: N_22  and  C_23
REMARK    7  A    between atoms: C_26  and  O_27
REMARK                            x       y       z     vdW  Elec       q    Type
REMARK                         _______ _______ _______ _____ _____    ______ ____
ROOT
ATOM      1  C   UNL     1       0.408  12.515  18.504  0.00  0.00    +0.000 A 
ATOM      2  N   UNL     1       1.688  12.917  18.317  0.00  0.00    +0.000 NA
ATOM      3  C   UNL     1       2.000  14.182  18.591  0.00  0.00    +0.000 A 
ATOM      4  C   UNL     1       3.317  14.569  18.421  0.00  0.00    +0.000 A 
ATOM      5  C   UNL     1       3.698  15.884  18.668  0.00  0.00    +0.000 A 
ATOM      6  C   UNL     1       2.752  16.824  19.087  0.00  0.00    +0.000 A 
ATOM      7  C   UNL     1       1.424  16.416  19.269  0.00  0.00    +0.000 A 
ATOM      8  C   UNL     1       1.031  15.100  19.040  0.00  0.00    +0.000 A 
ATOM      9  N   UNL     1      -0.238  14.707  19.255  0.00  0.00    +0.000 NA
ATOM     10  C   UNL     1      -0.563  13.405  19.012  0.00  0.00    +0.000 A 
ENDROOT
BRANCH   5  11
ATOM     11  N   UNL     1       5.102  16.272  18.484  0.00  0.00    +0.000 N 
ATOM     12  O   UNL     1       5.415  17.447  18.721  0.00  0.00    +0.000 OA
ATOM     13  O   UNL     1       5.889  15.395  18.099  0.00  0.00    +0.000 OA
ENDBRANCH   5  11
BRANCH   1  14
ATOM     14  N   UNL     1       0.091  11.166  18.196  0.00  0.00    +0.000 N 
ATOM     15  H   UNL     1      -0.920  11.088  18.118  0.00  0.00    +0.000 HD
BRANCH  14  20
ATOM     16  C   UNL     1       2.173   8.122  18.822  0.00  0.00    +0.000 A 
ATOM     17  C   UNL     1       1.856   7.845  20.150  0.00  0.00    +0.000 A 
ATOM     18  C   UNL     1       0.935   8.651  20.826  0.00  0.00    +0.000 A 
ATOM     19  C   UNL     1       0.340   9.743  20.180  0.00  0.00    +0.000 A 
ATOM     20  C   UNL     1       0.686  10.065  18.864  0.00  0.00    +0.000 A 
ATOM     21  C   UNL     1       1.592   9.224  18.193  0.00  0.00    +0.000 A 
BRANCH  16  23
ATOM     22  C   UNL     1       3.768   6.510  17.484  0.00  0.00    +0.000 C 
ATOM     23  C   UNL     1       3.054   7.273  18.081  0.00  0.00    +0.000 C 
ENDBRANCH  16  23
ENDBRANCH  14  20
ENDBRANCH   1  14
BRANCH  10  24
ATOM     24  N   UNL     1      -1.876  12.939  19.305  0.00  0.00    +0.000 N 
ATOM     25  H   UNL     1      -2.534  13.291  18.618  0.00  0.00    +0.000 HD
BRANCH  24  26
ATOM     26  C   UNL     1      -2.400  12.789  20.608  0.00  0.00    +0.000 A 
ATOM     27  C   UNL     1      -1.610  12.311  21.665  0.00  0.00    +0.000 A 
ATOM     28  C   UNL     1      -2.175  12.077  22.927  0.00  0.00    +0.000 A 
ATOM     29  C   UNL     1      -3.525  12.341  23.139  0.00  0.00    +0.000 A 
ATOM     30  C   UNL     1      -4.302  12.891  22.133  0.00  0.00    +0.000 A 
ATOM     31  C   UNL     1      -3.736  13.119  20.880  0.00  0.00    +0.000 A 
BRANCH  29  32
ATOM     32  O   UNL     1      -4.134  12.057  24.325  0.00  0.00    +0.000 OA
ATOM     33  H   UNL     1      -3.742  11.247  24.686  0.00  0.00    +0.000 HD
ENDBRANCH  29  32
ENDBRANCH  24  26
ENDBRANCH  10  24
TORSDOF 7
ENDMDL
MODEL 9
REMARK VINA RESULT:      -7.4      3.842      7.596
REMARK  Name = 
REMARK  7 active torsions:
REMARK  status: ('A' for Active; 'I' for Inactive)
REMARK    1  A    between atoms: C_2  and  C_3
REMARK    2  A    between atoms: C_7  and  N_8
REMARK    3  A    between atoms: N_8  and  C_9
REMARK    4  A    between atoms: C_13  and  N_14
REMARK    5  A    between atoms: C_21  and  N_22
REMARK    6  A    between atoms: N_22  and  C_23
REMARK    7  A    between atoms: C_26  and  O_27
REMARK                            x       y       z     vdW  Elec       q    Type
REMARK                         _______ _______ _______ _____ _____    ______ ____
ROOT
ATOM      1  C   UNL     1      -0.722  12.491  19.717  0.00  0.00    +0.000 A 
ATOM      2  N   UNL     1      -0.592  13.791  19.362  0.00  0.00    +0.000 NA
ATOM      3  C   UNL     1       0.624  14.252  19.078  0.00  0.00    +0.000 A 
ATOM      4  C   UNL     1       0.735  15.576  18.692  0.00  0.00    +0.000 A 
ATOM      5  C   UNL     1       1.984  16.120  18.407  0.00  0.00    +0.000 A 
ATOM      6  C   UNL     1       3.135  15.334  18.512  0.00  0.00    +0.000 A 
ATOM      7  C   UNL     1       3.008  13.991  18.891  0.00  0.00    +0.000 A 
ATOM      8  C   UNL     1       1.763  13.429  19.165  0.00  0.00    +0.000 A 
ATOM      9  N   UNL     1       1.645  12.128  19.490  0.00  0.00    +0.000 NA
ATOM     10  C   UNL     1       0.401  11.635  19.749  0.00  0.00    +0.000 A 
ENDROOT
BRANCH   5  11
ATOM     11  N   UNL     1       2.077  17.526  17.995  0.00  0.00    +0.000 N 
ATOM     12  O   UNL     1       2.611  17.777  16.905  0.00  0.00    +0.000 OA
ATOM     13  O   UNL     1       1.615  18.377  18.769  0.00  0.00    +0.000 OA
ENDBRANCH   5  11
BRANCH   1  14
ATOM     14  N   UNL     1      -2.024  12.019  20.026  0.00  0.00    +0.000 N 
ATOM     15  H   UNL     1      -1.934  11.235  20.666  0.00  0.00    +0.000 HD
BRANCH  14  20
ATOM     16  C   UNL     1      -3.662  11.089  16.794  0.00  0.00    +0.000 A 
ATOM     17  C   UNL     1      -4.982  11.458  17.043  0.00  0.00    +0.000 A 
ATOM     18  C   UNL     1      -5.320  12.037  18.270  0.00  0.00    +0.000 A 
ATOM     19  C   UNL     1      -4.343  12.236  19.254  0.00  0.00    +0.000 A 
ATOM     20  C   UNL     1      -3.025  11.823  19.039  0.00  0.00    +0.000 A 
ATOM     21  C   UNL     1      -2.699  11.271  17.787  0.00  0.00    +0.000 A 
BRANCH  16  23
ATOM     22  C   UNL     1      -3.000  10.113  14.440  0.00  0.00    +0.000 C 
ATOM     23  C   UNL     1      -3.270  10.564  15.523  0.00  0.00    +0.000 C 
ENDBRANCH  16  23
ENDBRANCH  14  20
ENDBRANCH   1  14
BRANCH  10  24
ATOM     24  N   UNL     1       0.233  10.246  20.017  0.00  0.00    +0.000 N 
ATOM     25  H   UNL     1      -0.087  10.110  20.970  0.00  0.00    +0.000 HD
BRANCH  24  26
ATOM     26  C   UNL     1       1.078   9.228  19.523  0.00  0.00    +0.000 A 
ATOM     27  C   UNL     1       1.502   9.214  18.185  0.00  0.00    +0.000 A 
ATOM     28  C   UNL     1       2.259   8.141  17.689  0.00  0.00    +0.000 A 
ATOM     29  C   UNL     1       2.610   7.095  18.536  0.00  0.00    +0.000 A 
ATOM     30  C   UNL     1       2.274   7.131  19.879  0.00  0.00    +0.000 A 
ATOM     31  C   UNL     1       1.519   8.197  20.366  0.00  0.00    +0.000 A 
BRANCH  29  32
ATOM     32  O   UNL     1       3.279   5.997  18.082  0.00  0.00    +0.000 OA
ATOM     33  H   UNL     1       4.112   6.289  17.680  0.00  0.00    +0.000 HD
ENDBRANCH  29  32
ENDBRANCH  24  26
ENDBRANCH  10  24
TORSDOF 7
ENDMDL
