MODEL 1
REMARK VINA RESULT:      -7.5      0.000      0.000
REMARK  Name = 
REMARK  11 active torsions:
REMARK  status: ('A' for Active; 'I' for Inactive)
REMARK    1  A    between atoms: C_2  and  C_3
REMARK    2  A    between atoms: C_3  and  O_4
REMARK    3  A    between atoms: O_4  and  N_5
REMARK    4  A    between atoms: C_6  and  C_7
REMARK    5  A    between atoms: C_6  and  C_8
REMARK    6  A    between atoms: N_10  and  C_11
REMARK    7  A    between atoms: C_11  and  C_12
REMARK    8  A    between atoms: C_15  and  C_16
REMARK    9  A    between atoms: C_16  and  C_17
REMARK   10  A    between atoms: C_16  and  C_18
REMARK   11  A    between atoms: C_16  and  C_19
REMARK                            x       y       z     vdW  Elec       q    Type
REMARK                         _______ _______ _______ _____ _____    ______ ____
ROOT
ATOM      1  C   UNL     1       6.923   4.872  15.517  0.00  0.00    +0.000 C 
ATOM      2  O   UNL     1       7.851   4.503  16.226  0.00  0.00    +0.000 OA
ATOM      3  N   UNL     1       5.837   5.583  15.969  0.00  0.00    +0.000 N 
ATOM      4  H   UNL     1       5.076   5.791  15.325  0.00  0.00    +0.000 HD
ENDROOT
BRANCH   1   6
ATOM      5  N   UNL     1       6.160   3.637  13.567  0.00  0.00    +0.000 NA
ATOM      6  C   UNL     1       6.948   4.569  14.024  0.00  0.00    +0.000 C 
ATOM      7  C   UNL     1       7.914   5.398  13.218  0.00  0.00    +0.000 C 
BRANCH   5   8
ATOM      8  O   UNL     1       6.327   3.479  12.179  0.00  0.00    +0.000 OA
BRANCH   8   9
ATOM      9  C   UNL     1       5.325   2.599  11.669  0.00  0.00    +0.000 C 
BRANCH   9  11
ATOM     10  C   UNL     1       3.346   3.413  10.340  0.00  0.00    +0.000 C 
ATOM     11  C   UNL     1       4.071   3.395  11.468  0.00  0.00    +0.000 C 
ENDBRANCH   9  11
ENDBRANCH   8   9
ENDBRANCH   5   8
ENDBRANCH   1   6
BRANCH   3  12
ATOM     12  C   UNL     1       5.697   5.903  17.370  0.00  0.00    +0.000 C 
BRANCH  12  13
ATOM     13  C   UNL     1       5.042   4.801  18.166  0.00  0.00    +0.000 C 
ATOM     14  N   UNL     1       5.652   4.110  19.070  0.00  0.00    +0.000 NA
ATOM     15  O   UNL     1       4.721   3.200  19.613  0.00  0.00    +0.000 OA
ATOM     16  C   UNL     1       3.456   3.328  18.934  0.00  0.00    +0.000 C 
ATOM     17  C   UNL     1       3.616   4.466  17.946  0.00  0.00    +0.000 C 
BRANCH  16  18
ATOM     18  C   UNL     1       2.305   3.477  19.973  0.00  0.00    +0.000 C 
ATOM     19  C   UNL     1       2.617   2.726  21.281  0.00  0.00    +0.000 C 
ATOM     20  C   UNL     1       2.048   4.962  20.286  0.00  0.00    +0.000 C 
ATOM     21  C   UNL     1       1.005   2.881  19.388  0.00  0.00    +0.000 C 
ENDBRANCH  16  18
ENDBRANCH  12  13
ENDBRANCH   3  12
TORSDOF 7
ENDMDL
MODEL 2
REMARK VINA RESULT:      -7.4      0.898      1.406
REMARK  Name = 
REMARK  11 active torsions:
REMARK  status: ('A' for Active; 'I' for Inactive)
REMARK    1  A    between atoms: C_2  and  C_3
REMARK    2  A    between atoms: C_3  and  O_4
REMARK    3  A    between atoms: O_4  and  N_5
REMARK    4  A    between atoms: C_6  and  C_7
REMARK    5  A    between atoms: C_6  and  C_8
REMARK    6  A    between atoms: N_10  and  C_11
REMARK    7  A    between atoms: C_11  and  C_12
REMARK    8  A    between atoms: C_15  and  C_16
REMARK    9  A    between atoms: C_16  and  C_17
REMARK   10  A    between atoms: C_16  and  C_18
REMARK   11  A    between atoms: C_16  and  C_19
REMARK                            x       y       z     vdW  Elec       q    Type
REMARK                         _______ _______ _______ _____ _____    ______ ____
ROOT
ATOM      1  C   UNL     1       6.846   5.163  15.143  0.00  0.00    +0.000 C 
ATOM      2  O   UNL     1       7.714   4.895  15.964  0.00  0.00    +0.000 OA
ATOM      3  N   UNL     1       5.754   5.958  15.399  0.00  0.00    +0.000 N 
ATOM      4  H   UNL     1       5.044   6.075  14.679  0.00  0.00    +0.000 HD
ENDROOT
BRANCH   1   6
ATOM      5  N   UNL     1       6.231   3.594  13.389  0.00  0.00    +0.000 NA
ATOM      6  C   UNL     1       6.959   4.623  13.723  0.00  0.00    +0.000 C 
ATOM      7  C   UNL     1       7.935   5.353  12.835  0.00  0.00    +0.000 C 
BRANCH   5   8
ATOM      8  O   UNL     1       6.475   3.222  12.055  0.00  0.00    +0.000 OA
BRANCH   8   9
ATOM      9  C   UNL     1       5.383   2.443  11.564  0.00  0.00    +0.000 C 
BRANCH   9  11
ATOM     10  C   UNL     1       3.359   3.427  10.434  0.00  0.00    +0.000 C 
ATOM     11  C   UNL     1       4.179   3.332  11.490  0.00  0.00    +0.000 C 
ENDBRANCH   9  11
ENDBRANCH   8   9
ENDBRANCH   5   8
ENDBRANCH   1   6
BRANCH   3  12
ATOM     12  C   UNL     1       5.533   6.503  16.718  0.00  0.00    +0.000 C 
BRANCH  12  13
ATOM     13  C   UNL     1       4.919   5.509  17.673  0.00  0.00    +0.000 C 
ATOM     14  N   UNL     1       5.116   5.524  18.949  0.00  0.00    +0.000 NA
ATOM     15  O   UNL     1       4.365   4.470  19.510  0.00  0.00    +0.000 OA
ATOM     16  C   UNL     1       3.701   3.729  18.466  0.00  0.00    +0.000 C 
ATOM     17  C   UNL     1       4.020   4.445  17.169  0.00  0.00    +0.000 C 
BRANCH  16  18
ATOM     18  C   UNL     1       2.191   3.564  18.806  0.00  0.00    +0.000 C 
ATOM     19  C   UNL     1       1.291   4.161  17.707  0.00  0.00    +0.000 C 
ATOM     20  C   UNL     1       1.839   2.078  19.001  0.00  0.00    +0.000 C 
ATOM     21  C   UNL     1       1.877   4.306  20.124  0.00  0.00    +0.000 C 
ENDBRANCH  16  18
ENDBRANCH  12  13
ENDBRANCH   3  12
TORSDOF 7
ENDMDL
MODEL 3
REMARK VINA RESULT:      -7.2      0.721      1.533
REMARK  Name = 
REMARK  11 active torsions:
REMARK  status: ('A' for Active; 'I' for Inactive)
REMARK    1  A    between atoms: C_2  and  C_3
REMARK    2  A    between atoms: C_3  and  O_4
REMARK    3  A    between atoms: O_4  and  N_5
REMARK    4  A    between atoms: C_6  and  C_7
REMARK    5  A    between atoms: C_6  and  C_8
REMARK    6  A    between atoms: N_10  and  C_11
REMARK    7  A    between atoms: C_11  and  C_12
REMARK    8  A    between atoms: C_15  and  C_16
REMARK    9  A    between atoms: C_16  and  C_17
REMARK   10  A    between atoms: C_16  and  C_18
REMARK   11  A    between atoms: C_16  and  C_19
REMARK                            x       y       z     vdW  Elec       q    Type
REMARK                         _______ _______ _______ _____ _____    ______ ____
ROOT
ATOM      1  C   UNL     1       6.914   4.870  15.583  0.00  0.00    +0.000 C 
ATOM      2  O   UNL     1       7.833   4.442  16.269  0.00  0.00    +0.000 OA
ATOM      3  N   UNL     1       5.868   5.620  16.066  0.00  0.00    +0.000 N 
ATOM      4  H   UNL     1       5.109   5.879  15.439  0.00  0.00    +0.000 HD
ENDROOT
BRANCH   1   6
ATOM      5  N   UNL     1       6.115   3.669  13.625  0.00  0.00    +0.000 NA
ATOM      6  C   UNL     1       6.904   4.601  14.083  0.00  0.00    +0.000 C 
ATOM      7  C   UNL     1       7.839   5.460  13.271  0.00  0.00    +0.000 C 
BRANCH   5   8
ATOM      8  O   UNL     1       6.249   3.545  12.230  0.00  0.00    +0.000 OA
BRANCH   8   9
ATOM      9  C   UNL     1       5.435   2.468  11.762  0.00  0.00    +0.000 C 
BRANCH   9  11
ATOM     10  C   UNL     1       6.142   0.105  11.253  0.00  0.00    +0.000 C 
ATOM     11  C   UNL     1       6.341   1.428  11.174  0.00  0.00    +0.000 C 
ENDBRANCH   9  11
ENDBRANCH   8   9
ENDBRANCH   5   8
ENDBRANCH   1   6
BRANCH   3  12
ATOM     12  C   UNL     1       5.763   5.914  17.476  0.00  0.00    +0.000 C 
BRANCH  12  13
ATOM     13  C   UNL     1       5.089   4.816  18.261  0.00  0.00    +0.000 C 
ATOM     14  N   UNL     1       5.694   4.086  19.137  0.00  0.00    +0.000 NA
ATOM     15  O   UNL     1       4.745   3.193  19.679  0.00  0.00    +0.000 OA
ATOM     16  C   UNL     1       3.472   3.375  19.027  0.00  0.00    +0.000 C 
ATOM     17  C   UNL     1       3.650   4.529  18.061  0.00  0.00    +0.000 C 
BRANCH  16  18
ATOM     18  C   UNL     1       2.346   3.536  20.090  0.00  0.00    +0.000 C 
ATOM     19  C   UNL     1       2.182   5.004  20.529  0.00  0.00    +0.000 C 
ATOM     20  C   UNL     1       1.005   3.016  19.540  0.00  0.00    +0.000 C 
ATOM     21  C   UNL     1       2.701   2.707  21.344  0.00  0.00    +0.000 C 
ENDBRANCH  16  18
ENDBRANCH  12  13
ENDBRANCH   3  12
TORSDOF 7
ENDMDL
MODEL 4
REMARK VINA RESULT:      -7.2      1.080      1.561
REMARK  Name = 
REMARK  11 active torsions:
REMARK  status: ('A' for Active; 'I' for Inactive)
REMARK    1  A    between atoms: C_2  and  C_3
REMARK    2  A    between atoms: C_3  and  O_4
REMARK    3  A    between atoms: O_4  and  N_5
REMARK    4  A    between atoms: C_6  and  C_7
REMARK    5  A    between atoms: C_6  and  C_8
REMARK    6  A    between atoms: N_10  and  C_11
REMARK    7  A    between atoms: C_11  and  C_12
REMARK    8  A    between atoms: C_15  and  C_16
REMARK    9  A    between atoms: C_16  and  C_17
REMARK   10  A    between atoms: C_16  and  C_18
REMARK   11  A    between atoms: C_16  and  C_19
REMARK                            x       y       z     vdW  Elec       q    Type
REMARK                         _______ _______ _______ _____ _____    ______ ____
ROOT
ATOM      1  C   UNL     1       6.621   4.662  14.679  0.00  0.00    +0.000 C 
ATOM      2  O   UNL     1       7.661   5.279  14.869  0.00  0.00    +0.000 OA
ATOM      3  N   UNL     1       5.700   4.373  15.657  0.00  0.00    +0.000 N 
ATOM      4  H   UNL     1       4.893   3.795  15.427  0.00  0.00    +0.000 HD
ENDROOT
BRANCH   1   6
ATOM      5  N   UNL     1       5.086   3.687  13.064  0.00  0.00    +0.000 NA
ATOM      6  C   UNL     1       6.271   4.189  13.274  0.00  0.00    +0.000 C 
ATOM      7  C   UNL     1       7.368   4.349  12.252  0.00  0.00    +0.000 C 
BRANCH   5   8
ATOM      8  O   UNL     1       4.944   3.288  11.723  0.00  0.00    +0.000 OA
BRANCH   8   9
ATOM      9  C   UNL     1       3.565   3.324  11.352  0.00  0.00    +0.000 C 
BRANCH   9  11
ATOM     10  C   UNL     1       2.535   4.578   9.426  0.00  0.00    +0.000 C 
ATOM     11  C   UNL     1       3.484   3.773   9.924  0.00  0.00    +0.000 C 
ENDBRANCH   9  11
ENDBRANCH   8   9
ENDBRANCH   5   8
ENDBRANCH   1   6
BRANCH   3  12
ATOM     12  C   UNL     1       5.940   4.751  17.030  0.00  0.00    +0.000 C 
BRANCH  12  13
ATOM     13  C   UNL     1       5.100   3.974  18.014  0.00  0.00    +0.000 C 
ATOM     14  N   UNL     1       5.426   3.794  19.250  0.00  0.00    +0.000 NA
ATOM     15  O   UNL     1       4.394   3.050  19.860  0.00  0.00    +0.000 OA
ATOM     16  C   UNL     1       3.388   2.713  18.885  0.00  0.00    +0.000 C 
ATOM     17  C   UNL     1       3.813   3.376  17.589  0.00  0.00    +0.000 C 
BRANCH  16  18
ATOM     18  C   UNL     1       1.976   3.094  19.420  0.00  0.00    +0.000 C 
ATOM     19  C   UNL     1       1.707   4.606  19.291  0.00  0.00    +0.000 C 
ATOM     20  C   UNL     1       0.883   2.315  18.666  0.00  0.00    +0.000 C 
ATOM     21  C   UNL     1       1.878   2.725  20.917  0.00  0.00    +0.000 C 
ENDBRANCH  16  18
ENDBRANCH  12  13
ENDBRANCH   3  12
TORSDOF 7
ENDMDL
MODEL 5
REMARK VINA RESULT:      -7.1      1.349      1.758
REMARK  Name = 
REMARK  11 active torsions:
REMARK  status: ('A' for Active; 'I' for Inactive)
REMARK    1  A    between atoms: C_2  and  C_3
REMARK    2  A    between atoms: C_3  and  O_4
REMARK    3  A    between atoms: O_4  and  N_5
REMARK    4  A    between atoms: C_6  and  C_7
REMARK    5  A    between atoms: C_6  and  C_8
REMARK    6  A    between atoms: N_10  and  C_11
REMARK    7  A    between atoms: C_11  and  C_12
REMARK    8  A    between atoms: C_15  and  C_16
REMARK    9  A    between atoms: C_16  and  C_17
REMARK   10  A    between atoms: C_16  and  C_18
REMARK   11  A    between atoms: C_16  and  C_19
REMARK                            x       y       z     vdW  Elec       q    Type
REMARK                         _______ _______ _______ _____ _____    ______ ____
ROOT
ATOM      1  C   UNL     1       6.631   5.193  15.462  0.00  0.00    +0.000 C 
ATOM      2  O   UNL     1       6.239   6.340  15.639  0.00  0.00    +0.000 OA
ATOM      3  N   UNL     1       6.925   4.309  16.473  0.00  0.00    +0.000 N 
ATOM      4  H   UNL     1       7.311   3.396  16.239  0.00  0.00    +0.000 HD
ENDROOT
BRANCH   1   6
ATOM      5  N   UNL     1       5.974   3.728  13.636  0.00  0.00    +0.000 NA
ATOM      6  C   UNL     1       6.788   4.661  14.043  0.00  0.00    +0.000 C 
ATOM      7  C   UNL     1       7.906   5.282  13.246  0.00  0.00    +0.000 C 
BRANCH   5   8
ATOM      8  O   UNL     1       6.274   3.345  12.317  0.00  0.00    +0.000 OA
BRANCH   8   9
ATOM      9  C   UNL     1       5.216   2.540  11.795  0.00  0.00    +0.000 C 
BRANCH   9  11
ATOM     10  C   UNL     1       3.366   3.425  10.333  0.00  0.00    +0.000 C 
ATOM     11  C   UNL     1       4.063   3.444  11.478  0.00  0.00    +0.000 C 
ENDBRANCH   9  11
ENDBRANCH   8   9
ENDBRANCH   5   8
ENDBRANCH   1   6
BRANCH   3  12
ATOM     12  C   UNL     1       6.835   4.715  17.855  0.00  0.00    +0.000 C 
BRANCH  12  13
ATOM     13  C   UNL     1       5.424   4.688  18.389  0.00  0.00    +0.000 C 
ATOM     14  N   UNL     1       4.716   5.747  18.597  0.00  0.00    +0.000 NA
ATOM     15  O   UNL     1       3.453   5.330  19.068  0.00  0.00    +0.000 OA
ATOM     16  C   UNL     1       3.426   3.895  19.200  0.00  0.00    +0.000 C 
ATOM     17  C   UNL     1       4.765   3.397  18.693  0.00  0.00    +0.000 C 
BRANCH  16  18
ATOM     18  C   UNL     1       2.165   3.317  18.491  0.00  0.00    +0.000 C 
ATOM     19  C   UNL     1       1.468   4.375  17.616  0.00  0.00    +0.000 C 
ATOM     20  C   UNL     1       2.542   2.103  17.622  0.00  0.00    +0.000 C 
ATOM     21  C   UNL     1       1.150   2.845  19.556  0.00  0.00    +0.000 C 
ENDBRANCH  16  18
ENDBRANCH  12  13
ENDBRANCH   3  12
TORSDOF 7
ENDMDL
MODEL 6
REMARK VINA RESULT:      -7.0      1.096      1.332
REMARK  Name = 
REMARK  11 active torsions:
REMARK  status: ('A' for Active; 'I' for Inactive)
REMARK    1  A    between atoms: C_2  and  C_3
REMARK    2  A    between atoms: C_3  and  O_4
REMARK    3  A    between atoms: O_4  and  N_5
REMARK    4  A    between atoms: C_6  and  C_7
REMARK    5  A    between atoms: C_6  and  C_8
REMARK    6  A    between atoms: N_10  and  C_11
REMARK    7  A    between atoms: C_11  and  C_12
REMARK    8  A    between atoms: C_15  and  C_16
REMARK    9  A    between atoms: C_16  and  C_17
REMARK   10  A    between atoms: C_16  and  C_18
REMARK   11  A    between atoms: C_16  and  C_19
REMARK                            x       y       z     vdW  Elec       q    Type
REMARK                         _______ _______ _______ _____ _____    ______ ____
ROOT
ATOM      1  C   UNL     1       6.543   5.128  15.236  0.00  0.00    +0.000 C 
ATOM      2  O   UNL     1       6.084   6.246  15.432  0.00  0.00    +0.000 OA
ATOM      3  N   UNL     1       6.885   4.244  16.232  0.00  0.00    +0.000 N 
ATOM      4  H   UNL     1       7.324   3.360  15.984  0.00  0.00    +0.000 HD
ENDROOT
BRANCH   1   6
ATOM      5  N   UNL     1       5.902   3.750  13.338  0.00  0.00    +0.000 NA
ATOM      6  C   UNL     1       6.739   4.632  13.809  0.00  0.00    +0.000 C 
ATOM      7  C   UNL     1       7.916   5.226  13.080  0.00  0.00    +0.000 C 
BRANCH   5   8
ATOM      8  O   UNL     1       6.243   3.394  12.020  0.00  0.00    +0.000 OA
BRANCH   8   9
ATOM      9  C   UNL     1       5.366   2.366  11.556  0.00  0.00    +0.000 C 
BRANCH   9  11
ATOM     10  C   UNL     1       3.657   3.753  10.333  0.00  0.00    +0.000 C 
ATOM     11  C   UNL     1       4.008   2.971  11.363  0.00  0.00    +0.000 C 
ENDBRANCH   9  11
ENDBRANCH   8   9
ENDBRANCH   5   8
ENDBRANCH   1   6
BRANCH   3  12
ATOM     12  C   UNL     1       6.764   4.618  17.621  0.00  0.00    +0.000 C 
BRANCH  12  13
ATOM     13  C   UNL     1       5.533   4.049  18.283  0.00  0.00    +0.000 C 
ATOM     14  N   UNL     1       5.500   3.644  19.508  0.00  0.00    +0.000 NA
ATOM     15  O   UNL     1       4.186   3.207  19.778  0.00  0.00    +0.000 OA
ATOM     16  C   UNL     1       3.378   3.314  18.590  0.00  0.00    +0.000 C 
ATOM     17  C   UNL     1       4.262   3.941  17.530  0.00  0.00    +0.000 C 
BRANCH  16  18
ATOM     18  C   UNL     1       2.052   4.066  18.910  0.00  0.00    +0.000 C 
ATOM     19  C   UNL     1       2.309   5.356  19.713  0.00  0.00    +0.000 C 
ATOM     20  C   UNL     1       1.300   4.414  17.613  0.00  0.00    +0.000 C 
ATOM     21  C   UNL     1       1.140   3.156  19.762  0.00  0.00    +0.000 C 
ENDBRANCH  16  18
ENDBRANCH  12  13
ENDBRANCH   3  12
TORSDOF 7
ENDMDL
MODEL 7
REMARK VINA RESULT:      -7.0      1.363      1.755
REMARK  Name = 
REMARK  11 active torsions:
REMARK  status: ('A' for Active; 'I' for Inactive)
REMARK    1  A    between atoms: C_2  and  C_3
REMARK    2  A    between atoms: C_3  and  O_4
REMARK    3  A    between atoms: O_4  and  N_5
REMARK    4  A    between atoms: C_6  and  C_7
REMARK    5  A    between atoms: C_6  and  C_8
REMARK    6  A    between atoms: N_10  and  C_11
REMARK    7  A    between atoms: C_11  and  C_12
REMARK    8  A    between atoms: C_15  and  C_16
REMARK    9  A    between atoms: C_16  and  C_17
REMARK   10  A    between atoms: C_16  and  C_18
REMARK   11  A    between atoms: C_16  and  C_19
REMARK                            x       y       z     vdW  Elec       q    Type
REMARK                         _______ _______ _______ _____ _____    ______ ____
ROOT
ATOM      1  C   UNL     1       6.539   5.176  15.054  0.00  0.00    +0.000 C 
ATOM      2  O   UNL     1       5.924   6.230  15.154  0.00  0.00    +0.000 OA
ATOM      3  N   UNL     1       6.998   4.440  16.121  0.00  0.00    +0.000 N 
ATOM      4  H   UNL     1       7.561   3.609  15.947  0.00  0.00    +0.000 HD
ENDROOT
BRANCH   1   6
ATOM      5  N   UNL     1       6.055   3.612  13.255  0.00  0.00    +0.000 NA
ATOM      6  C   UNL     1       6.810   4.589  13.674  0.00  0.00    +0.000 C 
ATOM      7  C   UNL     1       7.959   5.215  12.926  0.00  0.00    +0.000 C 
BRANCH   5   8
ATOM      8  O   UNL     1       6.457   3.184  11.977  0.00  0.00    +0.000 OA
BRANCH   8   9
ATOM      9  C   UNL     1       5.579   2.156  11.514  0.00  0.00    +0.000 C 
BRANCH   9  11
ATOM     10  C   UNL     1       6.121  -0.294  11.302  0.00  0.00    +0.000 C 
ATOM     11  C   UNL     1       6.421   0.994  11.081  0.00  0.00    +0.000 C 
ENDBRANCH   9  11
ENDBRANCH   8   9
ENDBRANCH   5   8
ENDBRANCH   1   6
BRANCH   3  12
ATOM     12  C   UNL     1       6.820   4.914  17.473  0.00  0.00    +0.000 C 
BRANCH  12  13
ATOM     13  C   UNL     1       5.647   4.272  18.174  0.00  0.00    +0.000 C 
ATOM     14  N   UNL     1       5.676   3.877  19.403  0.00  0.00    +0.000 NA
ATOM     15  O   UNL     1       4.401   3.359  19.715  0.00  0.00    +0.000 OA
ATOM     16  C   UNL     1       3.554   3.404  18.550  0.00  0.00    +0.000 C 
ATOM     17  C   UNL     1       4.365   4.077  17.460  0.00  0.00    +0.000 C 
BRANCH  16  18
ATOM     18  C   UNL     1       2.193   4.071  18.905  0.00  0.00    +0.000 C 
ATOM     19  C   UNL     1       1.339   3.174  19.822  0.00  0.00    +0.000 C 
ATOM     20  C   UNL     1       2.419   5.431  19.590  0.00  0.00    +0.000 C 
ATOM     21  C   UNL     1       1.388   4.318  17.609  0.00  0.00    +0.000 C 
ENDBRANCH  16  18
ENDBRANCH  12  13
ENDBRANCH   3  12
TORSDOF 7
ENDMDL
MODEL 8
REMARK VINA RESULT:      -6.9      0.981      1.193
REMARK  Name = 
REMARK  11 active torsions:
REMARK  status: ('A' for Active; 'I' for Inactive)
REMARK    1  A    between atoms: C_2  and  C_3
REMARK    2  A    between atoms: C_3  and  O_4
REMARK    3  A    between atoms: O_4  and  N_5
REMARK    4  A    between atoms: C_6  and  C_7
REMARK    5  A    between atoms: C_6  and  C_8
REMARK    6  A    between atoms: N_10  and  C_11
REMARK    7  A    between atoms: C_11  and  C_12
REMARK    8  A    between atoms: C_15  and  C_16
REMARK    9  A    between atoms: C_16  and  C_17
REMARK   10  A    between atoms: C_16  and  C_18
REMARK   11  A    between atoms: C_16  and  C_19
REMARK                            x       y       z     vdW  Elec       q    Type
REMARK                         _______ _______ _______ _____ _____    ______ ____
ROOT
ATOM      1  C   UNL     1       6.768   4.985  14.997  0.00  0.00    +0.000 C 
ATOM      2  O   UNL     1       7.825   4.766  15.575  0.00  0.00    +0.000 OA
ATOM      3  N   UNL     1       5.713   5.676  15.543  0.00  0.00    +0.000 N 
ATOM      4  H   UNL     1       4.844   5.755  15.019  0.00  0.00    +0.000 HD
ENDROOT
BRANCH   1   6
ATOM      5  N   UNL     1       5.531   3.775  13.288  0.00  0.00    +0.000 NA
ATOM      6  C   UNL     1       6.578   4.501  13.565  0.00  0.00    +0.000 C 
ATOM      7  C   UNL     1       7.656   4.919  12.598  0.00  0.00    +0.000 C 
BRANCH   5   8
ATOM      8  O   UNL     1       5.525   3.404  11.932  0.00  0.00    +0.000 OA
BRANCH   8   9
ATOM      9  C   UNL     1       4.185   3.154  11.505  0.00  0.00    +0.000 C 
BRANCH   9  11
ATOM     10  C   UNL     1       2.826   4.160   9.638  0.00  0.00    +0.000 C 
ATOM     11  C   UNL     1       4.005   3.791  10.159  0.00  0.00    +0.000 C 
ENDBRANCH   9  11
ENDBRANCH   8   9
ENDBRANCH   5   8
ENDBRANCH   1   6
BRANCH   3  12
ATOM     12  C   UNL     1       5.775   6.159  16.903  0.00  0.00    +0.000 C 
BRANCH  12  13
ATOM     13  C   UNL     1       4.982   5.311  17.867  0.00  0.00    +0.000 C 
ATOM     14  N   UNL     1       5.042   5.440  19.151  0.00  0.00    +0.000 NA
ATOM     15  O   UNL     1       4.150   4.504  19.716  0.00  0.00    +0.000 OA
ATOM     16  C   UNL     1       3.544   3.711  18.675  0.00  0.00    +0.000 C 
ATOM     17  C   UNL     1       4.059   4.269  17.362  0.00  0.00    +0.000 C 
BRANCH  16  18
ATOM     18  C   UNL     1       1.998   3.689  18.852  0.00  0.00    +0.000 C 
ATOM     19  C   UNL     1       1.568   4.320  20.191  0.00  0.00    +0.000 C 
ATOM     20  C   UNL     1       1.309   4.433  17.694  0.00  0.00    +0.000 C 
ATOM     21  C   UNL     1       1.501   2.226  18.842  0.00  0.00    +0.000 C 
ENDBRANCH  16  18
ENDBRANCH  12  13
ENDBRANCH   3  12
TORSDOF 7
ENDMDL
MODEL 9
REMARK VINA RESULT:      -6.9      1.384      1.494
REMARK  Name = 
REMARK  11 active torsions:
REMARK  status: ('A' for Active; 'I' for Inactive)
REMARK    1  A    between atoms: C_2  and  C_3
REMARK    2  A    between atoms: C_3  and  O_4
REMARK    3  A    between atoms: O_4  and  N_5
REMARK    4  A    between atoms: C_6  and  C_7
REMARK    5  A    between atoms: C_6  and  C_8
REMARK    6  A    between atoms: N_10  and  C_11
REMARK    7  A    between atoms: C_11  and  C_12
REMARK    8  A    between atoms: C_15  and  C_16
REMARK    9  A    between atoms: C_16  and  C_17
REMARK   10  A    between atoms: C_16  and  C_18
REMARK   11  A    between atoms: C_16  and  C_19
REMARK                            x       y       z     vdW  Elec       q    Type
REMARK                         _______ _______ _______ _____ _____    ______ ____
ROOT
ATOM      1  C   UNL     1       6.663   5.098  15.587  0.00  0.00    +0.000 C 
ATOM      2  O   UNL     1       6.730   6.296  15.831  0.00  0.00    +0.000 OA
ATOM      3  N   UNL     1       6.640   4.111  16.544  0.00  0.00    +0.000 N 
ATOM      4  H   UNL     1       6.652   3.135  16.253  0.00  0.00    +0.000 HD
ENDROOT
BRANCH   1   6
ATOM      5  N   UNL     1       5.566   3.867  13.799  0.00  0.00    +0.000 NA
ATOM      6  C   UNL     1       6.569   4.627  14.141  0.00  0.00    +0.000 C 
ATOM      7  C   UNL     1       7.682   5.097  13.240  0.00  0.00    +0.000 C 
BRANCH   5   8
ATOM      8  O   UNL     1       5.649   3.514  12.440  0.00  0.00    +0.000 OA
BRANCH   8   9
ATOM      9  C   UNL     1       4.356   3.144  11.958  0.00  0.00    +0.000 C 
BRANCH   9  11
ATOM     10  C   UNL     1       3.020   3.913   9.966  0.00  0.00    +0.000 C 
ATOM     11  C   UNL     1       4.194   3.721  10.584  0.00  0.00    +0.000 C 
ENDBRANCH   9  11
ENDBRANCH   8   9
ENDBRANCH   5   8
ENDBRANCH   1   6
BRANCH   3  12
ATOM     12  C   UNL     1       6.749   4.442  17.945  0.00  0.00    +0.000 C 
BRANCH  12  13
ATOM     13  C   UNL     1       5.410   4.557  18.631  0.00  0.00    +0.000 C 
ATOM     14  N   UNL     1       4.879   5.680  18.983  0.00  0.00    +0.000 NA
ATOM     15  O   UNL     1       3.625   5.396  19.565  0.00  0.00    +0.000 OA
ATOM     16  C   UNL     1       3.415   3.971  19.610  0.00  0.00    +0.000 C 
ATOM     17  C   UNL     1       4.614   3.343  18.927  0.00  0.00    +0.000 C 
BRANCH  16  18
ATOM     18  C   UNL     1       2.021   3.617  19.014  0.00  0.00    +0.000 C 
ATOM     19  C   UNL     1       0.894   3.813  20.045  0.00  0.00    +0.000 C 
ATOM     20  C   UNL     1       1.731   4.477  17.771  0.00  0.00    +0.000 C 
ATOM     21  C   UNL     1       2.010   2.134  18.582  0.00  0.00    +0.000 C 
ENDBRANCH  16  18
ENDBRANCH  12  13
ENDBRANCH   3  12
TORSDOF 7
ENDMDL
