MODEL 1
REMARK VINA RESULT:      -8.2      0.000      0.000
REMARK  Name = 
REMARK  5 active torsions:
REMARK  status: ('A' for Active; 'I' for Inactive)
REMARK    1  A    between atoms: C_1  and  C_2
REMARK    2  A    between atoms: C_5  and  O_6
REMARK    3  A    between atoms: C_7  and  N_8
REMARK    4  A    between atoms: N_8  and  C_9
REMARK    5  A    between atoms: C_16  and  N_17
REMARK                            x       y       z     vdW  Elec       q    Type
REMARK                         _______ _______ _______ _____ _____    ______ ____
ROOT
ATOM      1  C   UNL     1       5.233   4.456  16.440  0.00  0.00    +0.000 A 
ATOM      2  N   UNL     1       5.862   5.165  17.397  0.00  0.00    +0.000 NA
ATOM      3  C   UNL     1       6.989   5.786  17.047  0.00  0.00    +0.000 A 
ATOM      4  N   UNL     1       7.565   5.749  15.845  0.00  0.00    +0.000 NA
ATOM      5  C   UNL     1       6.940   5.045  14.903  0.00  0.00    +0.000 A 
ATOM      6  C   UNL     1       7.544   4.940  13.657  0.00  0.00    +0.000 A 
ATOM      7  C   UNL     1       6.967   4.213  12.611  0.00  0.00    +0.000 A 
ATOM      8  C   UNL     1       5.740   3.582  12.817  0.00  0.00    +0.000 A 
ATOM      9  C   UNL     1       5.111   3.659  14.064  0.00  0.00    +0.000 A 
ATOM     10  C   UNL     1       5.719   4.384  15.124  0.00  0.00    +0.000 A 
ENDROOT
BRANCH   8  11
ATOM     11  N   UNL     1       5.118   2.826  11.723  0.00  0.00    +0.000 N 
ATOM     12  O   UNL     1       5.640   1.749  11.399  0.00  0.00    +0.000 OA
ATOM     13  O   UNL     1       4.115   3.311  11.185  0.00  0.00    +0.000 OA
ENDBRANCH   8  11
BRANCH   1  14
ATOM     14  N   UNL     1       4.077   3.731  16.798  0.00  0.00    +0.000 N 
ATOM     15  H   UNL     1       3.366   3.744  16.071  0.00  0.00    +0.000 HD
BRANCH  14  21
ATOM     16  C   UNL     1       1.767   6.101  20.491  0.00  0.00    +0.000 C 
ATOM     17  C   UNL     1       2.388   4.849  19.945  0.00  0.00    +0.000 A 
ATOM     18  C   UNL     1       2.487   3.685  20.713  0.00  0.00    +0.000 A 
ATOM     19  C   UNL     1       3.082   2.537  20.182  0.00  0.00    +0.000 A 
ATOM     20  C   UNL     1       3.578   2.557  18.879  0.00  0.00    +0.000 A 
ATOM     21  C   UNL     1       3.481   3.705  18.081  0.00  0.00    +0.000 A 
ATOM     22  C   UNL     1       2.891   4.847  18.638  0.00  0.00    +0.000 A 
BRANCH  20  23
ATOM     23  O   UNL     1       4.170   1.443  18.339  0.00  0.00    +0.000 OA
ATOM     24  H   UNL     1       3.554   0.698  18.440  0.00  0.00    +0.000 HD
ENDBRANCH  20  23
ENDBRANCH  14  21
ENDBRANCH   1  14
TORSDOF 4
ENDMDL
MODEL 2
REMARK VINA RESULT:      -8.0      3.643      5.930
REMARK  Name = 
REMARK  5 active torsions:
REMARK  status: ('A' for Active; 'I' for Inactive)
REMARK    1  A    between atoms: C_1  and  C_2
REMARK    2  A    between atoms: C_5  and  O_6
REMARK    3  A    between atoms: C_7  and  N_8
REMARK    4  A    between atoms: N_8  and  C_9
REMARK    5  A    between atoms: C_16  and  N_17
REMARK                            x       y       z     vdW  Elec       q    Type
REMARK                         _______ _______ _______ _____ _____    ______ ____
ROOT
ATOM      1  C   UNL     1       2.283   5.865  19.924  0.00  0.00    +0.000 A 
ATOM      2  N   UNL     1       1.310   5.220  20.595  0.00  0.00    +0.000 NA
ATOM      3  C   UNL     1       0.999   3.992  20.178  0.00  0.00    +0.000 A 
ATOM      4  N   UNL     1       1.544   3.354  19.141  0.00  0.00    +0.000 NA
ATOM      5  C   UNL     1       2.504   3.997  18.480  0.00  0.00    +0.000 A 
ATOM      6  C   UNL     1       3.052   3.383  17.361  0.00  0.00    +0.000 A 
ATOM      7  C   UNL     1       4.056   3.987  16.599  0.00  0.00    +0.000 A 
ATOM      8  C   UNL     1       4.537   5.241  16.978  0.00  0.00    +0.000 A 
ATOM      9  C   UNL     1       3.998   5.891  18.093  0.00  0.00    +0.000 A 
ATOM     10  C   UNL     1       2.963   5.275  18.846  0.00  0.00    +0.000 A 
ENDROOT
BRANCH   8  11
ATOM     11  N   UNL     1       5.599   5.881  16.193  0.00  0.00    +0.000 N 
ATOM     12  O   UNL     1       6.769   5.538  16.421  0.00  0.00    +0.000 OA
ATOM     13  O   UNL     1       5.265   6.728  15.355  0.00  0.00    +0.000 OA
ENDBRANCH   8  11
BRANCH   1  14
ATOM     14  N   UNL     1       2.585   7.192  20.298  0.00  0.00    +0.000 N 
ATOM     15  H   UNL     1       3.275   7.240  21.044  0.00  0.00    +0.000 HD
BRANCH  14  21
ATOM     16  C   UNL     1      -0.639   9.796  23.021  0.00  0.00    +0.000 C 
ATOM     17  C   UNL     1       0.019   9.529  21.700  0.00  0.00    +0.000 A 
ATOM     18  C   UNL     1      -0.339  10.232  20.546  0.00  0.00    +0.000 A 
ATOM     19  C   UNL     1       0.284   9.953  19.326  0.00  0.00    +0.000 A 
ATOM     20  C   UNL     1       1.266   8.965  19.263  0.00  0.00    +0.000 A 
ATOM     21  C   UNL     1       1.655   8.253  20.405  0.00  0.00    +0.000 A 
ATOM     22  C   UNL     1       1.011   8.542  21.615  0.00  0.00    +0.000 A 
BRANCH  20  23
ATOM     23  O   UNL     1       1.887   8.671  18.075  0.00  0.00    +0.000 OA
ATOM     24  H   UNL     1       2.579   8.013  18.255  0.00  0.00    +0.000 HD
ENDBRANCH  20  23
ENDBRANCH  14  21
ENDBRANCH   1  14
TORSDOF 4
ENDMDL
MODEL 3
REMARK VINA RESULT:      -7.9      3.412      5.483
REMARK  Name = 
REMARK  5 active torsions:
REMARK  status: ('A' for Active; 'I' for Inactive)
REMARK    1  A    between atoms: C_1  and  C_2
REMARK    2  A    between atoms: C_5  and  O_6
REMARK    3  A    between atoms: C_7  and  N_8
REMARK    4  A    between atoms: N_8  and  C_9
REMARK    5  A    between atoms: C_16  and  N_17
REMARK                            x       y       z     vdW  Elec       q    Type
REMARK                         _______ _______ _______ _____ _____    ______ ____
ROOT
ATOM      1  C   UNL     1       2.708   5.493  19.117  0.00  0.00    +0.000 A 
ATOM      2  N   UNL     1       1.547   4.821  19.235  0.00  0.00    +0.000 NA
ATOM      3  C   UNL     1       1.365   3.780  18.421  0.00  0.00    +0.000 A 
ATOM      4  N   UNL     1       2.216   3.359  17.484  0.00  0.00    +0.000 NA
ATOM      5  C   UNL     1       3.360   4.028  17.370  0.00  0.00    +0.000 A 
ATOM      6  C   UNL     1       4.242   3.651  16.365  0.00  0.00    +0.000 A 
ATOM      7  C   UNL     1       5.462   4.303  16.163  0.00  0.00    +0.000 A 
ATOM      8  C   UNL     1       5.817   5.358  17.004  0.00  0.00    +0.000 A 
ATOM      9  C   UNL     1       4.946   5.770  18.018  0.00  0.00    +0.000 A 
ATOM     10  C   UNL     1       3.700   5.112  18.198  0.00  0.00    +0.000 A 
ENDROOT
BRANCH   8  11
ATOM     11  N   UNL     1       7.101   6.043  16.810  0.00  0.00    +0.000 N 
ATOM     12  O   UNL     1       7.569   6.670  17.771  0.00  0.00    +0.000 OA
ATOM     13  O   UNL     1       7.635   5.959  15.696  0.00  0.00    +0.000 OA
ENDBRANCH   8  11
BRANCH   1  14
ATOM     14  N   UNL     1       2.898   6.640  19.915  0.00  0.00    +0.000 N 
ATOM     15  H   UNL     1       3.304   6.423  20.823  0.00  0.00    +0.000 HD
BRANCH  14  21
ATOM     16  C   UNL     1      -0.528   9.155  22.470  0.00  0.00    +0.000 C 
ATOM     17  C   UNL     1       0.281   8.976  21.219  0.00  0.00    +0.000 A 
ATOM     18  C   UNL     1       0.103   9.803  20.106  0.00  0.00    +0.000 A 
ATOM     19  C   UNL     1       0.862   9.604  18.949  0.00  0.00    +0.000 A 
ATOM     20  C   UNL     1       1.800   8.573  18.909  0.00  0.00    +0.000 A 
ATOM     21  C   UNL     1       2.010   7.737  20.013  0.00  0.00    +0.000 A 
ATOM     22  C   UNL     1       1.231   7.948  21.158  0.00  0.00    +0.000 A 
BRANCH  20  23
ATOM     23  O   UNL     1       2.553   8.357  17.782  0.00  0.00    +0.000 OA
ATOM     24  H   UNL     1       2.664   9.210  17.328  0.00  0.00    +0.000 HD
ENDBRANCH  20  23
ENDBRANCH  14  21
ENDBRANCH   1  14
TORSDOF 4
ENDMDL
MODEL 4
REMARK VINA RESULT:      -7.9      3.381      6.918
REMARK  Name = 
REMARK  5 active torsions:
REMARK  status: ('A' for Active; 'I' for Inactive)
REMARK    1  A    between atoms: C_1  and  C_2
REMARK    2  A    between atoms: C_5  and  O_6
REMARK    3  A    between atoms: C_7  and  N_8
REMARK    4  A    between atoms: N_8  and  C_9
REMARK    5  A    between atoms: C_16  and  N_17
REMARK                            x       y       z     vdW  Elec       q    Type
REMARK                         _______ _______ _______ _____ _____    ______ ____
ROOT
ATOM      1  C   UNL     1       3.822   3.752  17.738  0.00  0.00    +0.000 A 
ATOM      2  N   UNL     1       3.911   2.410  17.665  0.00  0.00    +0.000 NA
ATOM      3  C   UNL     1       3.180   1.707  18.530  0.00  0.00    +0.000 A 
ATOM      4  N   UNL     1       2.389   2.210  19.479  0.00  0.00    +0.000 NA
ATOM      5  C   UNL     1       2.306   3.536  19.549  0.00  0.00    +0.000 A 
ATOM      6  C   UNL     1       1.536   4.092  20.562  0.00  0.00    +0.000 A 
ATOM      7  C   UNL     1       1.400   5.474  20.720  0.00  0.00    +0.000 A 
ATOM      8  C   UNL     1       2.045   6.328  19.824  0.00  0.00    +0.000 A 
ATOM      9  C   UNL     1       2.838   5.800  18.800  0.00  0.00    +0.000 A 
ATOM     10  C   UNL     1       2.984   4.394  18.665  0.00  0.00    +0.000 A 
ENDROOT
BRANCH   8  11
ATOM     11  N   UNL     1       1.900   7.781  19.972  0.00  0.00    +0.000 N 
ATOM     12  O   UNL     1       1.569   8.217  21.084  0.00  0.00    +0.000 OA
ATOM     13  O   UNL     1       2.110   8.484  18.975  0.00  0.00    +0.000 OA
ENDBRANCH   8  11
BRANCH   1  14
ATOM     14  N   UNL     1       4.637   4.522  16.882  0.00  0.00    +0.000 N 
ATOM     15  H   UNL     1       4.828   4.054  15.998  0.00  0.00    +0.000 HD
BRANCH  14  21
ATOM     16  C   UNL     1       8.317   5.426  20.079  0.00  0.00    +0.000 C 
ATOM     17  C   UNL     1       7.535   5.821  18.862  0.00  0.00    +0.000 A 
ATOM     18  C   UNL     1       7.802   7.007  18.171  0.00  0.00    +0.000 A 
ATOM     19  C   UNL     1       7.047   7.355  17.047  0.00  0.00    +0.000 A 
ATOM     20  C   UNL     1       6.023   6.513  16.616  0.00  0.00    +0.000 A 
ATOM     21  C   UNL     1       5.741   5.312  17.280  0.00  0.00    +0.000 A 
ATOM     22  C   UNL     1       6.503   4.988  18.410  0.00  0.00    +0.000 A 
BRANCH  20  23
ATOM     23  O   UNL     1       5.267   6.837  15.518  0.00  0.00    +0.000 OA
ATOM     24  H   UNL     1       5.233   6.058  14.937  0.00  0.00    +0.000 HD
ENDBRANCH  20  23
ENDBRANCH  14  21
ENDBRANCH   1  14
TORSDOF 4
ENDMDL
MODEL 5
REMARK VINA RESULT:      -7.9      1.643      2.150
REMARK  Name = 
REMARK  5 active torsions:
REMARK  status: ('A' for Active; 'I' for Inactive)
REMARK    1  A    between atoms: C_1  and  C_2
REMARK    2  A    between atoms: C_5  and  O_6
REMARK    3  A    between atoms: C_7  and  N_8
REMARK    4  A    between atoms: N_8  and  C_9
REMARK    5  A    between atoms: C_16  and  N_17
REMARK                            x       y       z     vdW  Elec       q    Type
REMARK                         _______ _______ _______ _____ _____    ______ ____
ROOT
ATOM      1  C   UNL     1       5.499   3.984  17.896  0.00  0.00    +0.000 A 
ATOM      2  N   UNL     1       5.931   4.576  19.026  0.00  0.00    +0.000 NA
ATOM      3  C   UNL     1       6.859   5.524  18.897  0.00  0.00    +0.000 A 
ATOM      4  N   UNL     1       7.420   5.922  17.754  0.00  0.00    +0.000 NA
ATOM      5  C   UNL     1       6.991   5.333  16.640  0.00  0.00    +0.000 A 
ATOM      6  C   UNL     1       7.595   5.685  15.440  0.00  0.00    +0.000 A 
ATOM      7  C   UNL     1       7.219   5.110  14.222  0.00  0.00    +0.000 A 
ATOM      8  C   UNL     1       6.195   4.163  14.204  0.00  0.00    +0.000 A 
ATOM      9  C   UNL     1       5.574   3.779  15.397  0.00  0.00    +0.000 A 
ATOM     10  C   UNL     1       5.981   4.355  16.629  0.00  0.00    +0.000 A 
ENDROOT
BRANCH   8  11
ATOM     11  N   UNL     1       5.782   3.562  12.930  0.00  0.00    +0.000 N 
ATOM     12  O   UNL     1       4.570   3.535  12.672  0.00  0.00    +0.000 OA
ATOM     13  O   UNL     1       6.668   3.111  12.192  0.00  0.00    +0.000 OA
ENDBRANCH   8  11
BRANCH   1  14
ATOM     14  N   UNL     1       4.569   2.930  18.008  0.00  0.00    +0.000 N 
ATOM     15  H   UNL     1       4.523   2.357  17.168  0.00  0.00    +0.000 HD
BRANCH  14  21
ATOM     16  C   UNL     1       1.785   2.557  22.095  0.00  0.00    +0.000 C 
ATOM     17  C   UNL     1       1.888   2.782  20.615  0.00  0.00    +0.000 A 
ATOM     18  C   UNL     1       0.752   2.962  19.821  0.00  0.00    +0.000 A 
ATOM     19  C   UNL     1       0.878   3.157  18.442  0.00  0.00    +0.000 A 
ATOM     20  C   UNL     1       2.145   3.172  17.860  0.00  0.00    +0.000 A 
ATOM     21  C   UNL     1       3.302   3.007  18.633  0.00  0.00    +0.000 A 
ATOM     22  C   UNL     1       3.152   2.802  20.011  0.00  0.00    +0.000 A 
BRANCH  20  23
ATOM     23  O   UNL     1       2.291   3.357  16.509  0.00  0.00    +0.000 OA
ATOM     24  H   UNL     1       2.643   2.534  16.130  0.00  0.00    +0.000 HD
ENDBRANCH  20  23
ENDBRANCH  14  21
ENDBRANCH   1  14
TORSDOF 4
ENDMDL
MODEL 6
REMARK VINA RESULT:      -7.8      2.383      6.570
REMARK  Name = 
REMARK  5 active torsions:
REMARK  status: ('A' for Active; 'I' for Inactive)
REMARK    1  A    between atoms: C_1  and  C_2
REMARK    2  A    between atoms: C_5  and  O_6
REMARK    3  A    between atoms: C_7  and  N_8
REMARK    4  A    between atoms: N_8  and  C_9
REMARK    5  A    between atoms: C_16  and  N_17
REMARK                            x       y       z     vdW  Elec       q    Type
REMARK                         _______ _______ _______ _____ _____    ______ ____
ROOT
ATOM      1  C   UNL     1       5.324   5.383  16.444  0.00  0.00    +0.000 A 
ATOM      2  N   UNL     1       5.579   6.682  16.195  0.00  0.00    +0.000 NA
ATOM      3  C   UNL     1       4.789   7.578  16.788  0.00  0.00    +0.000 A 
ATOM      4  N   UNL     1       3.753   7.306  17.584  0.00  0.00    +0.000 NA
ATOM      5  C   UNL     1       3.505   6.021  17.825  0.00  0.00    +0.000 A 
ATOM      6  C   UNL     1       2.399   5.703  18.604  0.00  0.00    +0.000 A 
ATOM      7  C   UNL     1       2.054   4.381  18.899  0.00  0.00    +0.000 A 
ATOM      8  C   UNL     1       2.850   3.344  18.411  0.00  0.00    +0.000 A 
ATOM      9  C   UNL     1       3.964   3.630  17.615  0.00  0.00    +0.000 A 
ATOM     10  C   UNL     1       4.290   4.977  17.305  0.00  0.00    +0.000 A 
ENDROOT
BRANCH   8  11
ATOM     11  N   UNL     1       2.505   1.952  18.726  0.00  0.00    +0.000 N 
ATOM     12  O   UNL     1       1.349   1.718  19.106  0.00  0.00    +0.000 OA
ATOM     13  O   UNL     1       3.391   1.097  18.598  0.00  0.00    +0.000 OA
ENDBRANCH   8  11
BRANCH   1  14
ATOM     14  N   UNL     1       6.099   4.412  15.776  0.00  0.00    +0.000 N 
ATOM     15  H   UNL     1       6.950   4.175  16.280  0.00  0.00    +0.000 HD
BRANCH  14  21
ATOM     16  C   UNL     1       4.864   2.515  11.364  0.00  0.00    +0.000 C 
ATOM     17  C   UNL     1       5.762   3.386  12.192  0.00  0.00    +0.000 A 
ATOM     18  C   UNL     1       6.863   4.044  11.636  0.00  0.00    +0.000 A 
ATOM     19  C   UNL     1       7.689   4.839  12.436  0.00  0.00    +0.000 A 
ATOM     20  C   UNL     1       7.410   4.974  13.796  0.00  0.00    +0.000 A 
ATOM     21  C   UNL     1       6.306   4.337  14.378  0.00  0.00    +0.000 A 
ATOM     22  C   UNL     1       5.498   3.537  13.560  0.00  0.00    +0.000 A 
BRANCH  20  23
ATOM     23  O   UNL     1       8.210   5.745  14.600  0.00  0.00    +0.000 OA
ATOM     24  H   UNL     1       7.711   5.953  15.408  0.00  0.00    +0.000 HD
ENDBRANCH  20  23
ENDBRANCH  14  21
ENDBRANCH   1  14
TORSDOF 4
ENDMDL
MODEL 7
REMARK VINA RESULT:      -7.8      0.975      1.207
REMARK  Name = 
REMARK  5 active torsions:
REMARK  status: ('A' for Active; 'I' for Inactive)
REMARK    1  A    between atoms: C_1  and  C_2
REMARK    2  A    between atoms: C_5  and  O_6
REMARK    3  A    between atoms: C_7  and  N_8
REMARK    4  A    between atoms: N_8  and  C_9
REMARK    5  A    between atoms: C_16  and  N_17
REMARK                            x       y       z     vdW  Elec       q    Type
REMARK                         _______ _______ _______ _____ _____    ______ ____
ROOT
ATOM      1  C   UNL     1       5.171   4.297  17.291  0.00  0.00    +0.000 A 
ATOM      2  N   UNL     1       5.675   4.905  18.382  0.00  0.00    +0.000 NA
ATOM      3  C   UNL     1       6.779   5.633  18.214  0.00  0.00    +0.000 A 
ATOM      4  N   UNL     1       7.446   5.794  17.070  0.00  0.00    +0.000 NA
ATOM      5  C   UNL     1       6.945   5.189  15.995  0.00  0.00    +0.000 A 
ATOM      6  C   UNL     1       7.648   5.289  14.801  0.00  0.00    +0.000 A 
ATOM      7  C   UNL     1       7.204   4.678  13.624  0.00  0.00    +0.000 A 
ATOM      8  C   UNL     1       6.011   3.955  13.641  0.00  0.00    +0.000 A 
ATOM      9  C   UNL     1       5.286   3.825  14.830  0.00  0.00    +0.000 A 
ATOM     10  C   UNL     1       5.760   4.433  16.023  0.00  0.00    +0.000 A 
ENDROOT
BRANCH   8  11
ATOM     11  N   UNL     1       5.529   3.319  12.409  0.00  0.00    +0.000 N 
ATOM     12  O   UNL     1       4.351   3.523  12.079  0.00  0.00    +0.000 OA
ATOM     13  O   UNL     1       6.324   2.611  11.777  0.00  0.00    +0.000 OA
ENDBRANCH   8  11
BRANCH   1  14
ATOM     14  N   UNL     1       4.044   3.464  17.453  0.00  0.00    +0.000 N 
ATOM     15  H   UNL     1       3.631   3.188  16.565  0.00  0.00    +0.000 HD
BRANCH  14  21
ATOM     16  C   UNL     1       1.539   6.336  20.625  0.00  0.00    +0.000 C 
ATOM     17  C   UNL     1       1.827   4.976  20.061  0.00  0.00    +0.000 A 
ATOM     18  C   UNL     1       1.211   3.828  20.567  0.00  0.00    +0.000 A 
ATOM     19  C   UNL     1       1.509   2.572  20.030  0.00  0.00    +0.000 A 
ATOM     20  C   UNL     1       2.425   2.468  18.984  0.00  0.00    +0.000 A 
ATOM     21  C   UNL     1       3.048   3.603  18.448  0.00  0.00    +0.000 A 
ATOM     22  C   UNL     1       2.743   4.850  19.009  0.00  0.00    +0.000 A 
BRANCH  20  23
ATOM     23  O   UNL     1       2.735   1.245  18.444  0.00  0.00    +0.000 OA
ATOM     24  H   UNL     1       3.194   1.398  17.601  0.00  0.00    +0.000 HD
ENDBRANCH  20  23
ENDBRANCH  14  21
ENDBRANCH   1  14
TORSDOF 4
ENDMDL
MODEL 8
REMARK VINA RESULT:      -7.8      3.662      6.907
REMARK  Name = 
REMARK  5 active torsions:
REMARK  status: ('A' for Active; 'I' for Inactive)
REMARK    1  A    between atoms: C_1  and  C_2
REMARK    2  A    between atoms: C_5  and  O_6
REMARK    3  A    between atoms: C_7  and  N_8
REMARK    4  A    between atoms: N_8  and  C_9
REMARK    5  A    between atoms: C_16  and  N_17
REMARK                            x       y       z     vdW  Elec       q    Type
REMARK                         _______ _______ _______ _____ _____    ______ ____
ROOT
ATOM      1  C   UNL     1       3.772   4.305  17.554  0.00  0.00    +0.000 A 
ATOM      2  N   UNL     1       3.834   3.004  17.213  0.00  0.00    +0.000 NA
ATOM      3  C   UNL     1       2.996   2.174  17.835  0.00  0.00    +0.000 A 
ATOM      4  N   UNL     1       2.120   2.509  18.783  0.00  0.00    +0.000 NA
ATOM      5  C   UNL     1       2.064   3.796  19.119  0.00  0.00    +0.000 A 
ATOM      6  C   UNL     1       1.203   4.168  20.143  0.00  0.00    +0.000 A 
ATOM      7  C   UNL     1       1.086   5.495  20.570  0.00  0.00    +0.000 A 
ATOM      8  C   UNL     1       1.846   6.481  19.942  0.00  0.00    +0.000 A 
ATOM      9  C   UNL     1       2.731   6.138  18.915  0.00  0.00    +0.000 A 
ATOM     10  C   UNL     1       2.855   4.783  18.505  0.00  0.00    +0.000 A 
ENDROOT
BRANCH   8  11
ATOM     11  N   UNL     1       1.723   7.879  20.373  0.00  0.00    +0.000 N 
ATOM     12  O   UNL     1       1.853   8.761  19.512  0.00  0.00    +0.000 OA
ATOM     13  O   UNL     1       1.504   8.094  21.572  0.00  0.00    +0.000 OA
ENDBRANCH   8  11
BRANCH   1  14
ATOM     14  N   UNL     1       4.694   5.194  16.963  0.00  0.00    +0.000 N 
ATOM     15  H   UNL     1       4.906   4.954  15.998  0.00  0.00    +0.000 HD
BRANCH  14  21
ATOM     16  C   UNL     1       7.876   8.961  17.486  0.00  0.00    +0.000 C 
ATOM     17  C   UNL     1       7.445   7.571  17.851  0.00  0.00    +0.000 A 
ATOM     18  C   UNL     1       8.193   6.777  18.725  0.00  0.00    +0.000 A 
ATOM     19  C   UNL     1       7.774   5.481  19.037  0.00  0.00    +0.000 A 
ATOM     20  C   UNL     1       6.602   4.980  18.470  0.00  0.00    +0.000 A 
ATOM     21  C   UNL     1       5.825   5.756  17.600  0.00  0.00    +0.000 A 
ATOM     22  C   UNL     1       6.270   7.049  17.294  0.00  0.00    +0.000 A 
BRANCH  20  23
ATOM     23  O   UNL     1       6.174   3.708  18.758  0.00  0.00    +0.000 OA
ATOM     24  H   UNL     1       6.242   3.581  19.719  0.00  0.00    +0.000 HD
ENDBRANCH  20  23
ENDBRANCH  14  21
ENDBRANCH   1  14
TORSDOF 4
ENDMDL
MODEL 9
REMARK VINA RESULT:      -7.7      5.166      8.511
REMARK  Name = 
REMARK  5 active torsions:
REMARK  status: ('A' for Active; 'I' for Inactive)
REMARK    1  A    between atoms: C_1  and  C_2
REMARK    2  A    between atoms: C_5  and  O_6
REMARK    3  A    between atoms: C_7  and  N_8
REMARK    4  A    between atoms: N_8  and  C_9
REMARK    5  A    between atoms: C_16  and  N_17
REMARK                            x       y       z     vdW  Elec       q    Type
REMARK                         _______ _______ _______ _____ _____    ______ ____
ROOT
ATOM      1  C   UNL     1       2.150   7.668  19.492  0.00  0.00    +0.000 A 
ATOM      2  N   UNL     1       2.562   7.669  18.210  0.00  0.00    +0.000 NA
ATOM      3  C   UNL     1       2.246   8.734  17.473  0.00  0.00    +0.000 A 
ATOM      4  N   UNL     1       1.537   9.788  17.881  0.00  0.00    +0.000 NA
ATOM      5  C   UNL     1       1.130   9.781  19.148  0.00  0.00    +0.000 A 
ATOM      6  C   UNL     1       0.341  10.837  19.587  0.00  0.00    +0.000 A 
ATOM      7  C   UNL     1      -0.141  10.909  20.898  0.00  0.00    +0.000 A 
ATOM      8  C   UNL     1       0.189   9.898  21.801  0.00  0.00    +0.000 A 
ATOM      9  C   UNL     1       0.972   8.816  21.387  0.00  0.00    +0.000 A 
ATOM     10  C   UNL     1       1.438   8.745  20.047  0.00  0.00    +0.000 A 
ENDROOT
BRANCH   8  11
ATOM     11  N   UNL     1      -0.301   9.969  23.183  0.00  0.00    +0.000 N 
ATOM     12  O   UNL     1      -1.415  10.478  23.373  0.00  0.00    +0.000 OA
ATOM     13  O   UNL     1       0.430   9.522  24.076  0.00  0.00    +0.000 OA
ENDBRANCH   8  11
BRANCH   1  14
ATOM     14  N   UNL     1       2.409   6.524  20.276  0.00  0.00    +0.000 N 
ATOM     15  H   UNL     1       3.023   6.719  21.063  0.00  0.00    +0.000 HD
BRANCH  14  21
ATOM     16  C   UNL     1       0.601   2.107  18.930  0.00  0.00    +0.000 C 
ATOM     17  C   UNL     1       1.778   3.008  19.159  0.00  0.00    +0.000 A 
ATOM     18  C   UNL     1       3.091   2.554  18.999  0.00  0.00    +0.000 A 
ATOM     19  C   UNL     1       4.169   3.413  19.232  0.00  0.00    +0.000 A 
ATOM     20  C   UNL     1       3.930   4.729  19.627  0.00  0.00    +0.000 A 
ATOM     21  C   UNL     1       2.625   5.216  19.783  0.00  0.00    +0.000 A 
ATOM     22  C   UNL     1       1.560   4.334  19.554  0.00  0.00    +0.000 A 
BRANCH  20  23
ATOM     23  O   UNL     1       4.973   5.588  19.865  0.00  0.00    +0.000 OA
ATOM     24  H   UNL     1       4.948   5.835  20.805  0.00  0.00    +0.000 HD
ENDBRANCH  20  23
ENDBRANCH  14  21
ENDBRANCH   1  14
TORSDOF 4
ENDMDL
