MODEL 1
REMARK VINA RESULT:      -8.1      0.000      0.000
REMARK  Name = 
REMARK  10 active torsions:
REMARK  status: ('A' for Active; 'I' for Inactive)
REMARK    1  A    between atoms: C_1  and  N_2
REMARK    2  A    between atoms: N_2  and  C_3
REMARK    3  A    between atoms: N_2  and  C_20
REMARK    4  A    between atoms: C_3  and  C_4
REMARK    5  A    between atoms: C_4  and  O_5
REMARK    6  A    between atoms: C_4  and  C_6
REMARK    7  A    between atoms: C_4  and  C_12
REMARK    8  A    between atoms: C_6  and  N_7
REMARK    9  A    between atoms: N_23  and  C_24
REMARK   10  A    between atoms: C_24  and  C_25
REMARK                            x       y       z     vdW  Elec       q    Type
REMARK                         _______ _______ _______ _____ _____    ______ ____
ROOT
ATOM      1  C   UNL     1       3.849   3.679  16.927  0.00  0.00    +0.000 C 
ENDROOT
BRANCH   1   3
ATOM      2  C   UNL     1       3.739   1.492  18.050  0.00  0.00    +0.000 C 
ATOM      3  N   UNL     1       3.959   2.940  18.231  0.00  0.00    +0.000 NA
BRANCH   3   4
ATOM      4  C   UNL     1       2.880   3.395  19.203  0.00  0.00    +0.000 C 
ATOM      5  C   UNL     1       1.577   3.976  18.613  0.00  0.00    +0.000 C 
ATOM      6  C   UNL     1       1.745   5.381  18.030  0.00  0.00    +0.000 C 
ATOM      7  N   UNL     1       2.313   6.316  19.018  0.00  0.00    +0.000 NA
ATOM      8  C   UNL     1       3.600   5.809  19.520  0.00  0.00    +0.000 C 
ATOM      9  C   UNL     1       3.392   4.463  20.203  0.00  0.00    +0.000 C 
BRANCH   7  10
ATOM     10  C   UNL     1       2.503   7.663  18.453  0.00  0.00    +0.000 C 
BRANCH  10  11
ATOM     11  C   UNL     1       1.725   8.741  19.175  0.00  0.00    +0.000 A 
ATOM     12  C   UNL     1       1.244   8.514  20.473  0.00  0.00    +0.000 A 
ATOM     13  C   UNL     1       0.496   9.490  21.134  0.00  0.00    +0.000 A 
ATOM     14  C   UNL     1       0.220  10.703  20.504  0.00  0.00    +0.000 A 
ATOM     15  C   UNL     1       0.703  10.941  19.218  0.00  0.00    +0.000 A 
ATOM     16 CL   UNL     1       0.370  12.444  18.448  0.00  0.00    +0.000 Cl
ATOM     17  C   UNL     1       1.450   9.968  18.552  0.00  0.00    +0.000 A 
ENDBRANCH  10  11
ENDBRANCH   7  10
ENDBRANCH   3   4
ENDBRANCH   1   3
BRANCH   1  18
ATOM     18  C   UNL     1       5.147   4.076  16.061  0.00  0.00    +0.000 C 
BRANCH  18  19
ATOM     19  C   UNL     1       6.119   5.026  16.808  0.00  0.00    +0.000 A 
ATOM     20  C   UNL     1       7.130   4.550  17.665  0.00  0.00    +0.000 A 
ATOM     21  C   UNL     1       7.950   5.429  18.383  0.00  0.00    +0.000 A 
ATOM     22  C   UNL     1       7.766   6.800  18.269  0.00  0.00    +0.000 A 
ATOM     23  F   UNL     1       8.531   7.634  18.983  0.00  0.00    +0.000 F 
ATOM     24  C   UNL     1       6.800   7.311  17.422  0.00  0.00    +0.000 A 
ATOM     25  C   UNL     1       6.011   6.431  16.686  0.00  0.00    +0.000 A 
ATOM     26  F   UNL     1       5.115   6.983  15.856  0.00  0.00    +0.000 F 
ENDBRANCH  18  19
BRANCH  18  27
ATOM     27  O   UNL     1       5.878   2.836  15.890  0.00  0.00    +0.000 OA
ATOM     28  H   UNL     1       5.360   2.305  15.251  0.00  0.00    +0.000 HD
ENDBRANCH  18  27
BRANCH  18  29
ATOM     29  C   UNL     1       4.892   4.648  14.639  0.00  0.00    +0.000 C 
BRANCH  29  30
ATOM     30  N   UNL     1       5.544   3.994  13.528  0.00  0.00    +0.000 N 
ATOM     31  C   UNL     1       4.937   3.278  12.540  0.00  0.00    +0.000 A 
ATOM     32  N   UNL     1       5.830   2.933  11.640  0.00  0.00    +0.000 NA
ATOM     33  C   UNL     1       6.981   3.471  12.125  0.00  0.00    +0.000 A 
ATOM     34  N   UNL     1       6.853   4.135  13.275  0.00  0.00    +0.000 NA
ENDBRANCH  29  30
ENDBRANCH  18  29
ENDBRANCH   1  18
TORSDOF 9
ENDMDL
MODEL 2
REMARK VINA RESULT:      -7.9      1.017      1.401
REMARK  Name = 
REMARK  10 active torsions:
REMARK  status: ('A' for Active; 'I' for Inactive)
REMARK    1  A    between atoms: C_1  and  N_2
REMARK    2  A    between atoms: N_2  and  C_3
REMARK    3  A    between atoms: N_2  and  C_20
REMARK    4  A    between atoms: C_3  and  C_4
REMARK    5  A    between atoms: C_4  and  O_5
REMARK    6  A    between atoms: C_4  and  C_6
REMARK    7  A    between atoms: C_4  and  C_12
REMARK    8  A    between atoms: C_6  and  N_7
REMARK    9  A    between atoms: N_23  and  C_24
REMARK   10  A    between atoms: C_24  and  C_25
REMARK                            x       y       z     vdW  Elec       q    Type
REMARK                         _______ _______ _______ _____ _____    ______ ____
ROOT
ATOM      1  C   UNL     1       3.846   3.543  16.848  0.00  0.00    +0.000 C 
ENDROOT
BRANCH   1   3
ATOM      2  C   UNL     1       4.083   1.705  18.468  0.00  0.00    +0.000 C 
ATOM      3  N   UNL     1       3.953   3.165  18.299  0.00  0.00    +0.000 NA
BRANCH   3   4
ATOM      4  C   UNL     1       2.686   3.548  19.052  0.00  0.00    +0.000 C 
ATOM      5  C   UNL     1       1.545   4.212  18.251  0.00  0.00    +0.000 C 
ATOM      6  C   UNL     1       1.838   5.662  17.862  0.00  0.00    +0.000 C 
ATOM      7  N   UNL     1       2.175   6.485  19.038  0.00  0.00    +0.000 NA
ATOM      8  C   UNL     1       3.319   5.903  19.757  0.00  0.00    +0.000 C 
ATOM      9  C   UNL     1       2.966   4.502  20.241  0.00  0.00    +0.000 C 
BRANCH   7  10
ATOM     10  C   UNL     1       2.485   7.876  18.665  0.00  0.00    +0.000 C 
BRANCH  10  11
ATOM     11  C   UNL     1       1.429   8.871  19.096  0.00  0.00    +0.000 A 
ATOM     12  C   UNL     1       0.776   9.664  18.141  0.00  0.00    +0.000 A 
ATOM     13  C   UNL     1      -0.174  10.609  18.533  0.00  0.00    +0.000 A 
ATOM     14  C   UNL     1      -0.482  10.770  19.883  0.00  0.00    +0.000 A 
ATOM     15  C   UNL     1       0.155   9.978  20.838  0.00  0.00    +0.000 A 
ATOM     16 CL   UNL     1      -0.235  10.173  22.503  0.00  0.00    +0.000 Cl
ATOM     17  C   UNL     1       1.108   9.034  20.452  0.00  0.00    +0.000 A 
ENDBRANCH  10  11
ENDBRANCH   7  10
ENDBRANCH   3   4
ENDBRANCH   1   3
BRANCH   1  18
ATOM     18  C   UNL     1       5.129   4.001  15.991  0.00  0.00    +0.000 C 
BRANCH  18  19
ATOM     19  C   UNL     1       6.077   4.956  16.763  0.00  0.00    +0.000 A 
ATOM     20  C   UNL     1       7.207   4.493  17.465  0.00  0.00    +0.000 A 
ATOM     21  C   UNL     1       8.007   5.365  18.213  0.00  0.00    +0.000 A 
ATOM     22  C   UNL     1       7.686   6.713  18.284  0.00  0.00    +0.000 A 
ATOM     23  F   UNL     1       8.436   7.535  19.027  0.00  0.00    +0.000 F 
ATOM     24  C   UNL     1       6.599   7.214  17.593  0.00  0.00    +0.000 A 
ATOM     25  C   UNL     1       5.827   6.346  16.824  0.00  0.00    +0.000 A 
ATOM     26  F   UNL     1       4.807   6.893  16.149  0.00  0.00    +0.000 F 
ENDBRANCH  18  19
BRANCH  18  27
ATOM     27  O   UNL     1       5.894   2.788  15.781  0.00  0.00    +0.000 OA
ATOM     28  H   UNL     1       5.440   2.091  16.297  0.00  0.00    +0.000 HD
ENDBRANCH  18  27
BRANCH  18  29
ATOM     29  C   UNL     1       4.853   4.608  14.587  0.00  0.00    +0.000 C 
BRANCH  29  30
ATOM     30  N   UNL     1       5.804   4.323  13.537  0.00  0.00    +0.000 N 
ATOM     31  C   UNL     1       7.003   4.939  13.342  0.00  0.00    +0.000 A 
ATOM     32  N   UNL     1       7.648   4.341  12.365  0.00  0.00    +0.000 NA
ATOM     33  C   UNL     1       6.793   3.350  11.994  0.00  0.00    +0.000 A 
ATOM     34  N   UNL     1       5.655   3.297  12.687  0.00  0.00    +0.000 NA
ENDBRANCH  29  30
ENDBRANCH  18  29
ENDBRANCH   1  18
TORSDOF 9
ENDMDL
MODEL 3
REMARK VINA RESULT:      -7.9      1.430      2.033
REMARK  Name = 
REMARK  10 active torsions:
REMARK  status: ('A' for Active; 'I' for Inactive)
REMARK    1  A    between atoms: C_1  and  N_2
REMARK    2  A    between atoms: N_2  and  C_3
REMARK    3  A    between atoms: N_2  and  C_20
REMARK    4  A    between atoms: C_3  and  C_4
REMARK    5  A    between atoms: C_4  and  O_5
REMARK    6  A    between atoms: C_4  and  C_6
REMARK    7  A    between atoms: C_4  and  C_12
REMARK    8  A    between atoms: C_6  and  N_7
REMARK    9  A    between atoms: N_23  and  C_24
REMARK   10  A    between atoms: C_24  and  C_25
REMARK                            x       y       z     vdW  Elec       q    Type
REMARK                         _______ _______ _______ _____ _____    ______ ____
ROOT
ATOM      1  C   UNL     1       4.475   3.970  17.191  0.00  0.00    +0.000 C 
ENDROOT
BRANCH   1   3
ATOM      2  C   UNL     1       3.900   3.715  19.571  0.00  0.00    +0.000 C 
ATOM      3  N   UNL     1       3.951   4.647  18.428  0.00  0.00    +0.000 NA
BRANCH   3   4
ATOM      4  C   UNL     1       2.518   5.115  18.222  0.00  0.00    +0.000 C 
ATOM      5  C   UNL     1       2.285   6.610  17.914  0.00  0.00    +0.000 C 
ATOM      6  C   UNL     1       2.483   7.520  19.127  0.00  0.00    +0.000 C 
ATOM      7  N   UNL     1       1.644   7.102  20.265  0.00  0.00    +0.000 NA
ATOM      8  C   UNL     1       1.925   5.702  20.619  0.00  0.00    +0.000 C 
ATOM      9  C   UNL     1       1.608   4.797  19.436  0.00  0.00    +0.000 C 
BRANCH   7  10
ATOM     10  C   UNL     1       1.852   7.959  21.445  0.00  0.00    +0.000 C 
BRANCH  10  11
ATOM     11  C   UNL     1       0.824   9.060  21.587  0.00  0.00    +0.000 A 
ATOM     12  C   UNL     1       0.292   9.370  22.847  0.00  0.00    +0.000 A 
ATOM     13  C   UNL     1      -0.683  10.361  22.982  0.00  0.00    +0.000 A 
ATOM     14  C   UNL     1      -1.135  11.052  21.859  0.00  0.00    +0.000 A 
ATOM     15  C   UNL     1      -0.604  10.757  20.604  0.00  0.00    +0.000 A 
ATOM     16 CL   UNL     1      -1.157  11.620  19.221  0.00  0.00    +0.000 Cl
ATOM     17  C   UNL     1       0.369   9.766  20.463  0.00  0.00    +0.000 A 
ENDBRANCH  10  11
ENDBRANCH   7  10
ENDBRANCH   3   4
ENDBRANCH   1   3
BRANCH   1  18
ATOM     18  C   UNL     1       5.692   4.584  16.336  0.00  0.00    +0.000 C 
BRANCH  18  19
ATOM     19  C   UNL     1       6.503   5.662  17.102  0.00  0.00    +0.000 A 
ATOM     20  C   UNL     1       6.545   7.008  16.693  0.00  0.00    +0.000 A 
ATOM     21  C   UNL     1       7.341   7.948  17.360  0.00  0.00    +0.000 A 
ATOM     22  C   UNL     1       8.118   7.557  18.440  0.00  0.00    +0.000 A 
ATOM     23  F   UNL     1       8.901   8.453  19.053  0.00  0.00    +0.000 F 
ATOM     24  C   UNL     1       8.090   6.250  18.890  0.00  0.00    +0.000 A 
ATOM     25  C   UNL     1       7.271   5.329  18.242  0.00  0.00    +0.000 A 
ATOM     26  F   UNL     1       7.258   4.086  18.742  0.00  0.00    +0.000 F 
ENDBRANCH  18  19
BRANCH  18  27
ATOM     27  O   UNL     1       6.610   3.478  16.142  0.00  0.00    +0.000 OA
ATOM     28  H   UNL     1       6.102   2.787  15.673  0.00  0.00    +0.000 HD
ENDBRANCH  18  27
BRANCH  18  29
ATOM     29  C   UNL     1       5.348   5.136  14.925  0.00  0.00    +0.000 C 
BRANCH  29  30
ATOM     30  N   UNL     1       5.770   4.358  13.781  0.00  0.00    +0.000 N 
ATOM     31  C   UNL     1       4.989   3.535  13.029  0.00  0.00    +0.000 A 
ATOM     32  N   UNL     1       5.682   3.089  12.006  0.00  0.00    +0.000 NA
ATOM     33  C   UNL     1       6.896   3.679  12.176  0.00  0.00    +0.000 A 
ATOM     34  N   UNL     1       6.994   4.469  13.245  0.00  0.00    +0.000 NA
ENDBRANCH  29  30
ENDBRANCH  18  29
ENDBRANCH   1  18
TORSDOF 9
ENDMDL
MODEL 4
REMARK VINA RESULT:      -7.8      1.103      1.623
REMARK  Name = 
REMARK  10 active torsions:
REMARK  status: ('A' for Active; 'I' for Inactive)
REMARK    1  A    between atoms: C_1  and  N_2
REMARK    2  A    between atoms: N_2  and  C_3
REMARK    3  A    between atoms: N_2  and  C_20
REMARK    4  A    between atoms: C_3  and  C_4
REMARK    5  A    between atoms: C_4  and  O_5
REMARK    6  A    between atoms: C_4  and  C_6
REMARK    7  A    between atoms: C_4  and  C_12
REMARK    8  A    between atoms: C_6  and  N_7
REMARK    9  A    between atoms: N_23  and  C_24
REMARK   10  A    between atoms: C_24  and  C_25
REMARK                            x       y       z     vdW  Elec       q    Type
REMARK                         _______ _______ _______ _____ _____    ______ ____
ROOT
ATOM      1  C   UNL     1       4.198   3.467  17.180  0.00  0.00    +0.000 C 
ENDROOT
BRANCH   1   3
ATOM      2  C   UNL     1       3.653   3.289  19.573  0.00  0.00    +0.000 C 
ATOM      3  N   UNL     1       3.742   4.197  18.413  0.00  0.00    +0.000 NA
BRANCH   3   4
ATOM      4  C   UNL     1       2.338   4.752  18.224  0.00  0.00    +0.000 C 
ATOM      5  C   UNL     1       2.197   6.235  17.818  0.00  0.00    +0.000 C 
ATOM      6  C   UNL     1       2.506   7.210  18.956  0.00  0.00    +0.000 C 
ATOM      7  N   UNL     1       1.685   6.933  20.149  0.00  0.00    +0.000 NA
ATOM      8  C   UNL     1       1.882   5.544  20.592  0.00  0.00    +0.000 C 
ATOM      9  C   UNL     1       1.456   4.585  19.488  0.00  0.00    +0.000 C 
BRANCH   7  10
ATOM     10  C   UNL     1       1.999   7.851  21.257  0.00  0.00    +0.000 C 
BRANCH  10  11
ATOM     11  C   UNL     1       0.978   8.953  21.442  0.00  0.00    +0.000 A 
ATOM     12  C   UNL     1       0.505   9.267  22.724  0.00  0.00    +0.000 A 
ATOM     13  C   UNL     1      -0.463  10.258  22.901  0.00  0.00    +0.000 A 
ATOM     14  C   UNL     1      -0.967  10.945  21.798  0.00  0.00    +0.000 A 
ATOM     15  C   UNL     1      -0.495  10.646  20.520  0.00  0.00    +0.000 A 
ATOM     16 CL   UNL     1      -1.112  11.504  19.162  0.00  0.00    +0.000 Cl
ATOM     17  C   UNL     1       0.471   9.655  20.338  0.00  0.00    +0.000 A 
ENDBRANCH  10  11
ENDBRANCH   7  10
ENDBRANCH   3   4
ENDBRANCH   1   3
BRANCH   1  18
ATOM     18  C   UNL     1       5.362   4.047  16.230  0.00  0.00    +0.000 C 
BRANCH  18  19
ATOM     19  C   UNL     1       6.295   5.058  16.946  0.00  0.00    +0.000 A 
ATOM     20  C   UNL     1       7.293   4.653  17.854  0.00  0.00    +0.000 A 
ATOM     21  C   UNL     1       8.076   5.589  18.541  0.00  0.00    +0.000 A 
ATOM     22  C   UNL     1       7.868   6.947  18.343  0.00  0.00    +0.000 A 
ATOM     23  F   UNL     1       8.597   7.836  19.026  0.00  0.00    +0.000 F 
ATOM     24  C   UNL     1       6.914   7.388  17.444  0.00  0.00    +0.000 A 
ATOM     25  C   UNL     1       6.163   6.451  16.740  0.00  0.00    +0.000 A 
ATOM     26  F   UNL     1       5.278   6.935  15.858  0.00  0.00    +0.000 F 
ENDBRANCH  18  19
BRANCH  18  27
ATOM     27  O   UNL     1       6.199   2.903  15.922  0.00  0.00    +0.000 OA
ATOM     28  H   UNL     1       5.678   2.114  16.172  0.00  0.00    +0.000 HD
ENDBRANCH  18  27
BRANCH  18  29
ATOM     29  C   UNL     1       4.918   4.658  14.873  0.00  0.00    +0.000 C 
BRANCH  29  30
ATOM     30  N   UNL     1       5.717   4.352  13.708  0.00  0.00    +0.000 N 
ATOM     31  C   UNL     1       6.926   4.895  13.390  0.00  0.00    +0.000 A 
ATOM     32  N   UNL     1       7.408   4.294  12.326  0.00  0.00    +0.000 NA
ATOM     33  C   UNL     1       6.448   3.376  12.029  0.00  0.00    +0.000 A 
ATOM     34  N   UNL     1       5.399   3.371  12.852  0.00  0.00    +0.000 NA
ENDBRANCH  29  30
ENDBRANCH  18  29
ENDBRANCH   1  18
TORSDOF 9
ENDMDL
MODEL 5
REMARK VINA RESULT:      -7.8      1.778      2.388
REMARK  Name = 
REMARK  10 active torsions:
REMARK  status: ('A' for Active; 'I' for Inactive)
REMARK    1  A    between atoms: C_1  and  N_2
REMARK    2  A    between atoms: N_2  and  C_3
REMARK    3  A    between atoms: N_2  and  C_20
REMARK    4  A    between atoms: C_3  and  C_4
REMARK    5  A    between atoms: C_4  and  O_5
REMARK    6  A    between atoms: C_4  and  C_6
REMARK    7  A    between atoms: C_4  and  C_12
REMARK    8  A    between atoms: C_6  and  N_7
REMARK    9  A    between atoms: N_23  and  C_24
REMARK   10  A    between atoms: C_24  and  C_25
REMARK                            x       y       z     vdW  Elec       q    Type
REMARK                         _______ _______ _______ _____ _____    ______ ____
ROOT
ATOM      1  C   UNL     1       5.528   3.952  17.603  0.00  0.00    +0.000 C 
ENDROOT
BRANCH   1   3
ATOM      2  C   UNL     1       4.184   3.570  19.629  0.00  0.00    +0.000 C 
ATOM      3  N   UNL     1       4.622   4.567  18.633  0.00  0.00    +0.000 NA
BRANCH   3   4
ATOM      4  C   UNL     1       3.343   5.083  17.989  0.00  0.00    +0.000 C 
ATOM      5  C   UNL     1       3.259   6.590  17.662  0.00  0.00    +0.000 C 
ATOM      6  C   UNL     1       3.077   7.472  18.898  0.00  0.00    +0.000 C 
ATOM      7  N   UNL     1       1.905   7.062  19.693  0.00  0.00    +0.000 NA
ATOM      8  C   UNL     1       2.023   5.648  20.082  0.00  0.00    +0.000 C 
ATOM      9  C   UNL     1       2.083   4.774  18.836  0.00  0.00    +0.000 C 
BRANCH   7  10
ATOM     10  C   UNL     1       1.742   7.891  20.900  0.00  0.00    +0.000 C 
BRANCH  10  11
ATOM     11  C   UNL     1       0.807   9.066  20.708  0.00  0.00    +0.000 A 
ATOM     12  C   UNL     1       0.527   9.541  19.419  0.00  0.00    +0.000 A 
ATOM     13  C   UNL     1      -0.306  10.646  19.235  0.00  0.00    +0.000 A 
ATOM     14  C   UNL     1      -0.869  11.286  20.338  0.00  0.00    +0.000 A 
ATOM     15  C   UNL     1      -0.604  10.814  21.623  0.00  0.00    +0.000 A 
ATOM     16 CL   UNL     1      -1.309  11.601  22.981  0.00  0.00    +0.000 Cl
ATOM     17  C   UNL     1       0.231   9.712  21.812  0.00  0.00    +0.000 A 
ENDBRANCH  10  11
ENDBRANCH   7  10
ENDBRANCH   3   4
ENDBRANCH   1   3
BRANCH   1  18
ATOM     18  C   UNL     1       6.464   4.849  16.649  0.00  0.00    +0.000 C 
BRANCH  18  19
ATOM     19  C   UNL     1       7.072   6.083  17.365  0.00  0.00    +0.000 A 
ATOM     20  C   UNL     1       6.948   7.390  16.854  0.00  0.00    +0.000 A 
ATOM     21  C   UNL     1       7.566   8.479  17.481  0.00  0.00    +0.000 A 
ATOM     22  C   UNL     1       8.329   8.281  18.623  0.00  0.00    +0.000 A 
ATOM     23  F   UNL     1       8.944   9.320  19.198  0.00  0.00    +0.000 F 
ATOM     24  C   UNL     1       8.460   7.018  19.171  0.00  0.00    +0.000 A 
ATOM     25  C   UNL     1       7.815   5.945  18.560  0.00  0.00    +0.000 A 
ATOM     26  F   UNL     1       7.948   4.752  19.154  0.00  0.00    +0.000 F 
ENDBRANCH  18  19
BRANCH  18  27
ATOM     27  O   UNL     1       7.592   3.999  16.323  0.00  0.00    +0.000 OA
ATOM     28  H   UNL     1       8.001   3.757  17.177  0.00  0.00    +0.000 HD
ENDBRANCH  18  27
BRANCH  18  29
ATOM     29  C   UNL     1       5.847   5.314  15.301  0.00  0.00    +0.000 C 
BRANCH  29  30
ATOM     30  N   UNL     1       6.419   4.783  14.084  0.00  0.00    +0.000 N 
ATOM     31  C   UNL     1       5.919   3.762  13.333  0.00  0.00    +0.000 A 
ATOM     32  N   UNL     1       6.636   3.632  12.241  0.00  0.00    +0.000 NA
ATOM     33  C   UNL     1       7.572   4.612  12.368  0.00  0.00    +0.000 A 
ATOM     34  N   UNL     1       7.473   5.345  13.477  0.00  0.00    +0.000 NA
ENDBRANCH  29  30
ENDBRANCH  18  29
ENDBRANCH   1  18
TORSDOF 9
ENDMDL
MODEL 6
REMARK VINA RESULT:      -7.7      0.872      1.190
REMARK  Name = 
REMARK  10 active torsions:
REMARK  status: ('A' for Active; 'I' for Inactive)
REMARK    1  A    between atoms: C_1  and  N_2
REMARK    2  A    between atoms: N_2  and  C_3
REMARK    3  A    between atoms: N_2  and  C_20
REMARK    4  A    between atoms: C_3  and  C_4
REMARK    5  A    between atoms: C_4  and  O_5
REMARK    6  A    between atoms: C_4  and  C_6
REMARK    7  A    between atoms: C_4  and  C_12
REMARK    8  A    between atoms: C_6  and  N_7
REMARK    9  A    between atoms: N_23  and  C_24
REMARK   10  A    between atoms: C_24  and  C_25
REMARK                            x       y       z     vdW  Elec       q    Type
REMARK                         _______ _______ _______ _____ _____    ______ ____
ROOT
ATOM      1  C   UNL     1       3.994   3.961  16.905  0.00  0.00    +0.000 C 
ENDROOT
BRANCH   1   3
ATOM      2  C   UNL     1       3.887   1.694  17.858  0.00  0.00    +0.000 C 
ATOM      3  N   UNL     1       4.049   3.129  18.157  0.00  0.00    +0.000 NA
BRANCH   3   4
ATOM      4  C   UNL     1       2.899   3.481  19.090  0.00  0.00    +0.000 C 
ATOM      5  C   UNL     1       1.617   4.073  18.463  0.00  0.00    +0.000 C 
ATOM      6  C   UNL     1       1.779   5.522  18.000  0.00  0.00    +0.000 C 
ATOM      7  N   UNL     1       2.257   6.393  19.089  0.00  0.00    +0.000 NA
ATOM      8  C   UNL     1       3.525   5.881  19.633  0.00  0.00    +0.000 C 
ATOM      9  C   UNL     1       3.316   4.481  20.198  0.00  0.00    +0.000 C 
BRANCH   7  10
ATOM     10  C   UNL     1       2.441   7.784  18.640  0.00  0.00    +0.000 C 
BRANCH  10  11
ATOM     11  C   UNL     1       1.534   8.773  19.339  0.00  0.00    +0.000 A 
ATOM     12  C   UNL     1       1.157   8.564  20.674  0.00  0.00    +0.000 A 
ATOM     13  C   UNL     1       0.293   9.453  21.316  0.00  0.00    +0.000 A 
ATOM     14  C   UNL     1      -0.203  10.561  20.630  0.00  0.00    +0.000 A 
ATOM     15  C   UNL     1       0.175  10.782  19.306  0.00  0.00    +0.000 A 
ATOM     16 CL   UNL     1      -0.431  12.157  18.467  0.00  0.00    +0.000 Cl
ATOM     17  C   UNL     1       1.036   9.895  18.660  0.00  0.00    +0.000 A 
ENDBRANCH  10  11
ENDBRANCH   7  10
ENDBRANCH   3   4
ENDBRANCH   1   3
BRANCH   1  18
ATOM     18  C   UNL     1       5.327   4.417  16.127  0.00  0.00    +0.000 C 
BRANCH  18  19
ATOM     19  C   UNL     1       6.198   5.418  16.931  0.00  0.00    +0.000 A 
ATOM     20  C   UNL     1       6.367   6.759  16.535  0.00  0.00    +0.000 A 
ATOM     21  C   UNL     1       7.214   7.625  17.238  0.00  0.00    +0.000 A 
ATOM     22  C   UNL     1       7.918   7.163  18.341  0.00  0.00    +0.000 A 
ATOM     23  F   UNL     1       8.751   7.987  18.988  0.00  0.00    +0.000 F 
ATOM     24  C   UNL     1       7.765   5.861  18.778  0.00  0.00    +0.000 A 
ATOM     25  C   UNL     1       6.895   5.015  18.094  0.00  0.00    +0.000 A 
ATOM     26  F   UNL     1       6.760   3.775  18.582  0.00  0.00    +0.000 F 
ENDBRANCH  18  19
BRANCH  18  27
ATOM     27  O   UNL     1       6.129   3.214  16.017  0.00  0.00    +0.000 OA
ATOM     28  H   UNL     1       6.324   2.936  16.935  0.00  0.00    +0.000 HD
ENDBRANCH  18  27
BRANCH  18  29
ATOM     29  C   UNL     1       5.143   4.968  14.687  0.00  0.00    +0.000 C 
BRANCH  29  30
ATOM     30  N   UNL     1       5.635   4.161  13.593  0.00  0.00    +0.000 N 
ATOM     31  C   UNL     1       4.885   3.409  12.741  0.00  0.00    +0.000 A 
ATOM     32  N   UNL     1       5.658   2.908  11.804  0.00  0.00    +0.000 NA
ATOM     33  C   UNL     1       6.887   3.392  12.129  0.00  0.00    +0.000 A 
ATOM     34  N   UNL     1       6.920   4.168  13.212  0.00  0.00    +0.000 NA
ENDBRANCH  29  30
ENDBRANCH  18  29
ENDBRANCH   1  18
TORSDOF 9
ENDMDL
MODEL 7
REMARK VINA RESULT:      -7.6      1.306      1.748
REMARK  Name = 
REMARK  10 active torsions:
REMARK  status: ('A' for Active; 'I' for Inactive)
REMARK    1  A    between atoms: C_1  and  N_2
REMARK    2  A    between atoms: N_2  and  C_3
REMARK    3  A    between atoms: N_2  and  C_20
REMARK    4  A    between atoms: C_3  and  C_4
REMARK    5  A    between atoms: C_4  and  O_5
REMARK    6  A    between atoms: C_4  and  C_6
REMARK    7  A    between atoms: C_4  and  C_12
REMARK    8  A    between atoms: C_6  and  N_7
REMARK    9  A    between atoms: N_23  and  C_24
REMARK   10  A    between atoms: C_24  and  C_25
REMARK                            x       y       z     vdW  Elec       q    Type
REMARK                         _______ _______ _______ _____ _____    ______ ____
ROOT
ATOM      1  C   UNL     1       4.111   4.257  16.956  0.00  0.00    +0.000 C 
ENDROOT
BRANCH   1   3
ATOM      2  C   UNL     1       3.515   1.949  17.571  0.00  0.00    +0.000 C 
ATOM      3  N   UNL     1       4.067   3.230  18.053  0.00  0.00    +0.000 NA
BRANCH   3   4
ATOM      4  C   UNL     1       3.137   3.675  19.173  0.00  0.00    +0.000 C 
ATOM      5  C   UNL     1       1.710   4.123  18.789  0.00  0.00    +0.000 C 
ATOM      6  C   UNL     1       1.664   5.493  18.109  0.00  0.00    +0.000 C 
ATOM      7  N   UNL     1       2.317   6.531  18.929  0.00  0.00    +0.000 NA
ATOM      8  C   UNL     1       3.706   6.148  19.225  0.00  0.00    +0.000 C 
ATOM      9  C   UNL     1       3.726   4.841  20.007  0.00  0.00    +0.000 C 
BRANCH   7  10
ATOM     10  C   UNL     1       2.300   7.846  18.266  0.00  0.00    +0.000 C 
BRANCH  10  11
ATOM     11  C   UNL     1       1.569   8.914  19.051  0.00  0.00    +0.000 A 
ATOM     12  C   UNL     1       1.232  10.131  18.441  0.00  0.00    +0.000 A 
ATOM     13  C   UNL     1       0.589  11.135  19.167  0.00  0.00    +0.000 A 
ATOM     14  C   UNL     1       0.274  10.932  20.510  0.00  0.00    +0.000 A 
ATOM     15  C   UNL     1       0.595   9.720  21.121  0.00  0.00    +0.000 A 
ATOM     16 CL   UNL     1       0.196   9.469  22.776  0.00  0.00    +0.000 Cl
ATOM     17  C   UNL     1       1.241   8.715  20.400  0.00  0.00    +0.000 A 
ENDBRANCH  10  11
ENDBRANCH   7  10
ENDBRANCH   3   4
ENDBRANCH   1   3
BRANCH   1  18
ATOM     18  C   UNL     1       5.484   4.653  16.216  0.00  0.00    +0.000 C 
BRANCH  18  19
ATOM     19  C   UNL     1       6.366   5.632  17.034  0.00  0.00    +0.000 A 
ATOM     20  C   UNL     1       6.587   6.964  16.634  0.00  0.00    +0.000 A 
ATOM     21  C   UNL     1       7.444   7.808  17.351  0.00  0.00    +0.000 A 
ATOM     22  C   UNL     1       8.105   7.333  18.475  0.00  0.00    +0.000 A 
ATOM     23  F   UNL     1       8.947   8.134  19.137  0.00  0.00    +0.000 F 
ATOM     24  C   UNL     1       7.899   6.039  18.917  0.00  0.00    +0.000 A 
ATOM     25  C   UNL     1       7.020   5.216  18.217  0.00  0.00    +0.000 A 
ATOM     26  F   UNL     1       6.834   3.984  18.710  0.00  0.00    +0.000 F 
ENDBRANCH  18  19
BRANCH  18  27
ATOM     27  O   UNL     1       6.243   3.419  16.146  0.00  0.00    +0.000 OA
ATOM     28  H   UNL     1       6.031   3.022  15.278  0.00  0.00    +0.000 HD
ENDBRANCH  18  27
BRANCH  18  29
ATOM     29  C   UNL     1       5.366   5.191  14.763  0.00  0.00    +0.000 C 
BRANCH  29  30
ATOM     30  N   UNL     1       5.727   4.295  13.687  0.00  0.00    +0.000 N 
ATOM     31  C   UNL     1       4.874   3.532  12.948  0.00  0.00    +0.000 A 
ATOM     32  N   UNL     1       5.542   2.938  11.985  0.00  0.00    +0.000 NA
ATOM     33  C   UNL     1       6.815   3.378  12.177  0.00  0.00    +0.000 A 
ATOM     34  N   UNL     1       6.974   4.215  13.202  0.00  0.00    +0.000 NA
ENDBRANCH  29  30
ENDBRANCH  18  29
ENDBRANCH   1  18
TORSDOF 9
ENDMDL
MODEL 8
REMARK VINA RESULT:      -7.5      3.287      5.991
REMARK  Name = 
REMARK  10 active torsions:
REMARK  status: ('A' for Active; 'I' for Inactive)
REMARK    1  A    between atoms: C_1  and  N_2
REMARK    2  A    between atoms: N_2  and  C_3
REMARK    3  A    between atoms: N_2  and  C_20
REMARK    4  A    between atoms: C_3  and  C_4
REMARK    5  A    between atoms: C_4  and  O_5
REMARK    6  A    between atoms: C_4  and  C_6
REMARK    7  A    between atoms: C_4  and  C_12
REMARK    8  A    between atoms: C_6  and  N_7
REMARK    9  A    between atoms: N_23  and  C_24
REMARK   10  A    between atoms: C_24  and  C_25
REMARK                            x       y       z     vdW  Elec       q    Type
REMARK                         _______ _______ _______ _____ _____    ______ ____
ROOT
ATOM      1  C   UNL     1       2.270   7.244  18.315  0.00  0.00    +0.000 C 
ENDROOT
BRANCH   1   3
ATOM      2  C   UNL     1       1.461   7.513  20.624  0.00  0.00    +0.000 C 
ATOM      3  N   UNL     1       1.944   8.213  19.418  0.00  0.00    +0.000 NA
BRANCH   3   4
ATOM      4  C   UNL     1       0.810   9.140  19.005  0.00  0.00    +0.000 C 
ATOM      5  C   UNL     1       1.125  10.252  17.981  0.00  0.00    +0.000 C 
ATOM      6  C   UNL     1       1.948  11.402  18.566  0.00  0.00    +0.000 C 
ATOM      7  N   UNL     1       1.305  11.981  19.759  0.00  0.00    +0.000 NA
ATOM      8  C   UNL     1       1.081  10.940  20.774  0.00  0.00    +0.000 C 
ATOM      9  C   UNL     1       0.162   9.862  20.213  0.00  0.00    +0.000 C 
BRANCH   7  10
ATOM     10  C   UNL     1       2.108  13.071  20.341  0.00  0.00    +0.000 C 
BRANCH  10  11
ATOM     11  C   UNL     1       2.079  14.348  19.530  0.00  0.00    +0.000 A 
ATOM     12  C   UNL     1       3.273  14.906  19.050  0.00  0.00    +0.000 A 
ATOM     13  C   UNL     1       3.260  16.101  18.330  0.00  0.00    +0.000 A 
ATOM     14  C   UNL     1       2.052  16.752  18.081  0.00  0.00    +0.000 A 
ATOM     15  C   UNL     1       0.859  16.199  18.545  0.00  0.00    +0.000 A 
ATOM     16 CL   UNL     1      -0.630  17.000  18.227  0.00  0.00    +0.000 Cl
ATOM     17  C   UNL     1       0.868  15.005  19.268  0.00  0.00    +0.000 A 
ENDBRANCH  10  11
ENDBRANCH   7  10
ENDBRANCH   3   4
ENDBRANCH   1   3
BRANCH   1  18
ATOM     18  C   UNL     1       2.994   5.835  18.606  0.00  0.00    +0.000 C 
BRANCH  18  19
ATOM     19  C   UNL     1       4.098   5.486  17.574  0.00  0.00    +0.000 A 
ATOM     20  C   UNL     1       4.236   4.197  17.024  0.00  0.00    +0.000 A 
ATOM     21  C   UNL     1       5.284   3.887  16.148  0.00  0.00    +0.000 A 
ATOM     22  C   UNL     1       6.221   4.855  15.817  0.00  0.00    +0.000 A 
ATOM     23  F   UNL     1       7.238   4.543  15.006  0.00  0.00    +0.000 F 
ATOM     24  C   UNL     1       6.111   6.139  16.317  0.00  0.00    +0.000 A 
ATOM     25  C   UNL     1       5.047   6.449  17.160  0.00  0.00    +0.000 A 
ATOM     26  F   UNL     1       4.972   7.717  17.586  0.00  0.00    +0.000 F 
ENDBRANCH  18  19
BRANCH  18  27
ATOM     27  O   UNL     1       3.689   6.023  19.864  0.00  0.00    +0.000 OA
ATOM     28  H   UNL     1       3.335   6.851  20.246  0.00  0.00    +0.000 HD
ENDBRANCH  18  27
BRANCH  18  29
ATOM     29  C   UNL     1       2.071   4.598  18.781  0.00  0.00    +0.000 C 
BRANCH  29  30
ATOM     30  N   UNL     1       2.199   3.836  20.003  0.00  0.00    +0.000 N 
ATOM     31  C   UNL     1       1.241   3.666  20.956  0.00  0.00    +0.000 A 
ATOM     32  N   UNL     1       1.671   2.819  21.863  0.00  0.00    +0.000 NA
ATOM     33  C   UNL     1       2.913   2.491  21.413  0.00  0.00    +0.000 A 
ATOM     34  N   UNL     1       3.275   3.084  20.275  0.00  0.00    +0.000 NA
ENDBRANCH  29  30
ENDBRANCH  18  29
ENDBRANCH   1  18
TORSDOF 9
ENDMDL
MODEL 9
REMARK VINA RESULT:      -7.4      3.168      7.910
REMARK  Name = 
REMARK  10 active torsions:
REMARK  status: ('A' for Active; 'I' for Inactive)
REMARK    1  A    between atoms: C_1  and  N_2
REMARK    2  A    between atoms: N_2  and  C_3
REMARK    3  A    between atoms: N_2  and  C_20
REMARK    4  A    between atoms: C_3  and  C_4
REMARK    5  A    between atoms: C_4  and  O_5
REMARK    6  A    between atoms: C_4  and  C_6
REMARK    7  A    between atoms: C_4  and  C_12
REMARK    8  A    between atoms: C_6  and  N_7
REMARK    9  A    between atoms: N_23  and  C_24
REMARK   10  A    between atoms: C_24  and  C_25
REMARK                            x       y       z     vdW  Elec       q    Type
REMARK                         _______ _______ _______ _____ _____    ______ ____
ROOT
ATOM      1  C   UNL     1       4.257   6.362  17.838  0.00  0.00    +0.000 C 
ENDROOT
BRANCH   1   3
ATOM      2  C   UNL     1       6.646   6.946  17.747  0.00  0.00    +0.000 C 
ATOM      3  N   UNL     1       5.634   6.070  18.368  0.00  0.00    +0.000 NA
BRANCH   3   4
ATOM      4  C   UNL     1       6.057   4.651  18.019  0.00  0.00    +0.000 C 
ATOM      5  C   UNL     1       7.454   4.448  17.393  0.00  0.00    +0.000 C 
ATOM      6  C   UNL     1       7.541   4.908  15.937  0.00  0.00    +0.000 C 
ATOM      7  N   UNL     1       6.513   4.263  15.099  0.00  0.00    +0.000 NA
ATOM      8  C   UNL     1       5.172   4.526  15.643  0.00  0.00    +0.000 C 
ATOM      9  C   UNL     1       5.066   3.955  17.052  0.00  0.00    +0.000 C 
BRANCH   7  10
ATOM     10  C   UNL     1       6.576   4.724  13.701  0.00  0.00    +0.000 C 
BRANCH  10  11
ATOM     11  C   UNL     1       6.076   3.703  12.701  0.00  0.00    +0.000 A 
ATOM     12  C   UNL     1       6.887   2.618  12.337  0.00  0.00    +0.000 A 
ATOM     13  C   UNL     1       6.448   1.691  11.390  0.00  0.00    +0.000 A 
ATOM     14  C   UNL     1       5.195   1.838  10.798  0.00  0.00    +0.000 A 
ATOM     15  C   UNL     1       4.379   2.908  11.162  0.00  0.00    +0.000 A 
ATOM     16 CL   UNL     1       2.828   3.081  10.436  0.00  0.00    +0.000 Cl
ATOM     17  C   UNL     1       4.813   3.839  12.106  0.00  0.00    +0.000 A 
ENDBRANCH  10  11
ENDBRANCH   7  10
ENDBRANCH   3   4
ENDBRANCH   1   3
BRANCH   1  18
ATOM     18  C   UNL     1       2.939   6.169  18.741  0.00  0.00    +0.000 C 
BRANCH  18  19
ATOM     19  C   UNL     1       2.246   7.506  19.114  0.00  0.00    +0.000 A 
ATOM     20  C   UNL     1       1.738   7.760  20.403  0.00  0.00    +0.000 A 
ATOM     21  C   UNL     1       1.054   8.946  20.696  0.00  0.00    +0.000 A 
ATOM     22  C   UNL     1       0.852   9.894  19.703  0.00  0.00    +0.000 A 
ATOM     23  F   UNL     1       0.169  11.011  19.981  0.00  0.00    +0.000 F 
ATOM     24  C   UNL     1       1.353   9.696  18.430  0.00  0.00    +0.000 A 
ATOM     25  C   UNL     1       2.061   8.529  18.155  0.00  0.00    +0.000 A 
ATOM     26  F   UNL     1       2.552   8.406  16.914  0.00  0.00    +0.000 F 
ENDBRANCH  18  19
BRANCH  18  27
ATOM     27  O   UNL     1       1.997   5.473  17.887  0.00  0.00    +0.000 OA
ATOM     28  H   UNL     1       1.285   5.153  18.477  0.00  0.00    +0.000 HD
ENDBRANCH  18  27
BRANCH  18  29
ATOM     29  C   UNL     1       3.092   5.316  20.031  0.00  0.00    +0.000 C 
BRANCH  29  30
ATOM     30  N   UNL     1       2.378   4.061  20.091  0.00  0.00    +0.000 N 
ATOM     31  C   UNL     1       1.159   3.849  20.661  0.00  0.00    +0.000 A 
ATOM     32  N   UNL     1       0.773   2.616  20.422  0.00  0.00    +0.000 NA
ATOM     33  C   UNL     1       1.801   2.109  19.688  0.00  0.00    +0.000 A 
ATOM     34  N   UNL     1       2.802   2.959  19.456  0.00  0.00    +0.000 NA
ENDBRANCH  29  30
ENDBRANCH  18  29
ENDBRANCH   1  18
TORSDOF 9
ENDMDL
