MODEL 1
REMARK VINA RESULT:      -7.9      0.000      0.000
REMARK  Name = 
REMARK  8 active torsions:
REMARK  status: ('A' for Active; 'I' for Inactive)
REMARK    1  A    between atoms: C_2  and  C_3
REMARK    2  A    between atoms: C_3  and  N_4
REMARK    3  A    between atoms: C_5  and  C_6
REMARK    4  A    between atoms: C_9  and  C_10
REMARK    5  A    between atoms: N_12  and  N_13
REMARK    6  A    between atoms: C_14  and  C_15
REMARK    7  A    between atoms: C_18  and  O_19
REMARK    8  A    between atoms: O_19  and  C_20
REMARK                            x       y       z     vdW  Elec       q    Type
REMARK                         _______ _______ _______ _____ _____    ______ ____
ROOT
ATOM      1  C   UNL     1       2.299   7.785  18.553  0.00  0.00    +0.000 A 
ATOM      2  C   UNL     1       1.628   8.750  17.798  0.00  0.00    +0.000 A 
ATOM      3  C   UNL     1       0.844   9.731  18.400  0.00  0.00    +0.000 A 
ATOM      4  C   UNL     1       0.622   9.719  19.779  0.00  0.00    +0.000 A 
ATOM      5  C   UNL     1       1.171   8.673  20.532  0.00  0.00    +0.000 A 
ATOM      6  C   UNL     1       2.008   7.720  19.921  0.00  0.00    +0.000 A 
ENDROOT
BRANCH   1   8
ATOM      7  N   UNL     1       3.120   5.549  17.649  0.00  0.00    +0.000 N 
ATOM      8  C   UNL     1       3.311   6.886  17.971  0.00  0.00    +0.000 A 
ATOM      9  N   UNL     1       4.518   7.263  17.573  0.00  0.00    +0.000 NA
ATOM     10  C   UNL     1       5.128   6.155  17.046  0.00  0.00    +0.000 A 
ATOM     11  C   UNL     1       6.414   6.012  16.498  0.00  0.00    +0.000 A 
ATOM     12  C   UNL     1       6.809   4.762  16.016  0.00  0.00    +0.000 A 
ATOM     13  C   UNL     1       5.941   3.669  16.076  0.00  0.00    +0.000 A 
ATOM     14  C   UNL     1       4.657   3.796  16.613  0.00  0.00    +0.000 A 
ATOM     15  C   UNL     1       4.279   5.056  17.087  0.00  0.00    +0.000 A 
BRANCH   7  16
ATOM     16  C   UNL     1       1.894   4.785  17.803  0.00  0.00    +0.000 C 
BRANCH  16  18
ATOM     17  C   UNL     1       1.645   3.849  20.456  0.00  0.00    +0.000 C 
ATOM     18  C   UNL     1       1.760   4.281  19.231  0.00  0.00    +0.000 C 
ENDBRANCH  16  18
ENDBRANCH   7  16
ENDBRANCH   1   8
BRANCH   4  19
ATOM     19  C   UNL     1      -0.183  10.853  20.327  0.00  0.00    +0.000 C 
ATOM     20  O   UNL     1      -1.110  11.297  19.651  0.00  0.00    +0.000 OA
ATOM     21  N   UNL     1       0.180  11.358  21.565  0.00  0.00    +0.000 N 
ATOM     22  H   UNL     1       0.957  10.995  22.098  0.00  0.00    +0.000 HD
BRANCH  21  23
ATOM     23  N   UNL     1      -0.504  12.436  22.040  0.00  0.00    +0.000 NA
ATOM     24  C   UNL     1      -1.356  12.221  22.985  0.00  0.00    +0.000 C 
BRANCH  24  25
ATOM     25  C   UNL     1      -2.103  13.339  23.596  0.00  0.00    +0.000 A 
ATOM     26  C   UNL     1      -3.499  13.319  23.639  0.00  0.00    +0.000 A 
ATOM     27  C   UNL     1      -4.192  14.425  24.136  0.00  0.00    +0.000 A 
ATOM     28  C   UNL     1      -3.502  15.543  24.610  0.00  0.00    +0.000 A 
ATOM     29  C   UNL     1      -2.105  15.547  24.591  0.00  0.00    +0.000 A 
ATOM     30  C   UNL     1      -1.404  14.446  24.082  0.00  0.00    +0.000 A 
BRANCH  28  31
ATOM     31  O   UNL     1      -4.296  16.588  24.990  0.00  0.00    +0.000 OA
ATOM     32  C   UNL     1      -4.709  17.484  23.968  0.00  0.00    +0.000 C 
ENDBRANCH  28  31
ENDBRANCH  24  25
ENDBRANCH  21  23
ENDBRANCH   4  19
TORSDOF 7
ENDMDL
MODEL 2
REMARK VINA RESULT:      -7.7      0.561      1.027
REMARK  Name = 
REMARK  8 active torsions:
REMARK  status: ('A' for Active; 'I' for Inactive)
REMARK    1  A    between atoms: C_2  and  C_3
REMARK    2  A    between atoms: C_3  and  N_4
REMARK    3  A    between atoms: C_5  and  C_6
REMARK    4  A    between atoms: C_9  and  C_10
REMARK    5  A    between atoms: N_12  and  N_13
REMARK    6  A    between atoms: C_14  and  C_15
REMARK    7  A    between atoms: C_18  and  O_19
REMARK    8  A    between atoms: O_19  and  C_20
REMARK                            x       y       z     vdW  Elec       q    Type
REMARK                         _______ _______ _______ _____ _____    ______ ____
ROOT
ATOM      1  C   UNL     1       2.410   8.026  18.630  0.00  0.00    +0.000 A 
ATOM      2  C   UNL     1       2.076   7.979  19.986  0.00  0.00    +0.000 A 
ATOM      3  C   UNL     1       1.098   8.811  20.525  0.00  0.00    +0.000 A 
ATOM      4  C   UNL     1       0.487   9.793  19.741  0.00  0.00    +0.000 A 
ATOM      5  C   UNL     1       0.915   9.948  18.416  0.00  0.00    +0.000 A 
ATOM      6  C   UNL     1       1.863   9.065  17.868  0.00  0.00    +0.000 A 
ENDROOT
BRANCH   1   8
ATOM      7  N   UNL     1       2.956   5.666  17.842  0.00  0.00    +0.000 N 
ATOM      8  C   UNL     1       3.265   7.012  17.989  0.00  0.00    +0.000 A 
ATOM      9  N   UNL     1       4.406   7.268  17.366  0.00  0.00    +0.000 NA
ATOM     10  C   UNL     1       4.864   6.077  16.866  0.00  0.00    +0.000 A 
ATOM     11  C   UNL     1       6.032   5.798  16.137  0.00  0.00    +0.000 A 
ATOM     12  C   UNL     1       6.278   4.484  15.730  0.00  0.00    +0.000 A 
ATOM     13  C   UNL     1       5.378   3.462  16.041  0.00  0.00    +0.000 A 
ATOM     14  C   UNL     1       4.209   3.725  16.761  0.00  0.00    +0.000 A 
ATOM     15  C   UNL     1       3.979   5.045  17.157  0.00  0.00    +0.000 A 
BRANCH   7  16
ATOM     16  C   UNL     1       1.736   5.003  18.270  0.00  0.00    +0.000 C 
BRANCH  16  18
ATOM     17  C   UNL     1       1.960   4.164  20.957  0.00  0.00    +0.000 C 
ATOM     18  C   UNL     1       1.856   4.551  19.716  0.00  0.00    +0.000 C 
ENDBRANCH  16  18
ENDBRANCH   7  16
ENDBRANCH   1   8
BRANCH   4  19
ATOM     19  C   UNL     1      -0.593  10.587  20.403  0.00  0.00    +0.000 C 
ATOM     20  O   UNL     1      -1.483  11.067  19.703  0.00  0.00    +0.000 OA
ATOM     21  N   UNL     1      -0.517  10.754  21.777  0.00  0.00    +0.000 N 
ATOM     22  H   UNL     1       0.232  10.369  22.333  0.00  0.00    +0.000 HD
BRANCH  21  23
ATOM     23  N   UNL     1      -1.457  11.533  22.378  0.00  0.00    +0.000 NA
ATOM     24  C   UNL     1      -1.070  12.683  22.822  0.00  0.00    +0.000 C 
BRANCH  24  25
ATOM     25  C   UNL     1      -2.034  13.615  23.441  0.00  0.00    +0.000 A 
ATOM     26  C   UNL     1      -3.392  13.544  23.123  0.00  0.00    +0.000 A 
ATOM     27  C   UNL     1      -4.276  14.490  23.646  0.00  0.00    +0.000 A 
ATOM     28  C   UNL     1      -3.818  15.495  24.500  0.00  0.00    +0.000 A 
ATOM     29  C   UNL     1      -2.463  15.545  24.838  0.00  0.00    +0.000 A 
ATOM     30  C   UNL     1      -1.570  14.606  24.307  0.00  0.00    +0.000 A 
BRANCH  28  31
ATOM     31  O   UNL     1      -4.766  16.406  24.874  0.00  0.00    +0.000 OA
ATOM     32  C   UNL     1      -4.308  17.712  25.196  0.00  0.00    +0.000 C 
ENDBRANCH  28  31
ENDBRANCH  24  25
ENDBRANCH  21  23
ENDBRANCH   4  19
TORSDOF 7
ENDMDL
MODEL 3
REMARK VINA RESULT:      -7.5      1.379      1.532
REMARK  Name = 
REMARK  8 active torsions:
REMARK  status: ('A' for Active; 'I' for Inactive)
REMARK    1  A    between atoms: C_2  and  C_3
REMARK    2  A    between atoms: C_3  and  N_4
REMARK    3  A    between atoms: C_5  and  C_6
REMARK    4  A    between atoms: C_9  and  C_10
REMARK    5  A    between atoms: N_12  and  N_13
REMARK    6  A    between atoms: C_14  and  C_15
REMARK    7  A    between atoms: C_18  and  O_19
REMARK    8  A    between atoms: O_19  and  C_20
REMARK                            x       y       z     vdW  Elec       q    Type
REMARK                         _______ _______ _______ _____ _____    ______ ____
ROOT
ATOM      1  C   UNL     1       2.290   7.916  18.679  0.00  0.00    +0.000 A 
ATOM      2  C   UNL     1       1.747   9.010  18.001  0.00  0.00    +0.000 A 
ATOM      3  C   UNL     1       1.058  10.016  18.673  0.00  0.00    +0.000 A 
ATOM      4  C   UNL     1       0.801   9.911  20.042  0.00  0.00    +0.000 A 
ATOM      5  C   UNL     1       1.214   8.751  20.709  0.00  0.00    +0.000 A 
ATOM      6  C   UNL     1       1.958   7.768  20.031  0.00  0.00    +0.000 A 
ENDROOT
BRANCH   1   8
ATOM      7  N   UNL     1       2.969   5.614  17.825  0.00  0.00    +0.000 N 
ATOM      8  C   UNL     1       3.213   6.964  18.037  0.00  0.00    +0.000 A 
ATOM      9  N   UNL     1       4.367   7.293  17.474  0.00  0.00    +0.000 NA
ATOM     10  C   UNL     1       4.897   6.143  16.949  0.00  0.00    +0.000 A 
ATOM     11  C   UNL     1       6.105   5.942  16.261  0.00  0.00    +0.000 A 
ATOM     12  C   UNL     1       6.424   4.657  15.814  0.00  0.00    +0.000 A 
ATOM     13  C   UNL     1       5.557   3.587  16.046  0.00  0.00    +0.000 A 
ATOM     14  C   UNL     1       4.349   3.772  16.724  0.00  0.00    +0.000 A 
ATOM     15  C   UNL     1       4.045   5.065  17.161  0.00  0.00    +0.000 A 
BRANCH   7  16
ATOM     16  C   UNL     1       1.761   4.885  18.173  0.00  0.00    +0.000 C 
BRANCH  16  18
ATOM     17  C   UNL     1       1.962   3.840  20.789  0.00  0.00    +0.000 C 
ATOM     18  C   UNL     1       1.869   4.322  19.581  0.00  0.00    +0.000 C 
ENDBRANCH  16  18
ENDBRANCH   7  16
ENDBRANCH   1   8
BRANCH   4  19
ATOM     19  C   UNL     1       0.110  11.077  20.674  0.00  0.00    +0.000 C 
ATOM     20  O   UNL     1       0.579  11.548  21.709  0.00  0.00    +0.000 OA
ATOM     21  N   UNL     1      -1.040  11.549  20.063  0.00  0.00    +0.000 N 
ATOM     22  H   UNL     1      -1.422  11.137  19.225  0.00  0.00    +0.000 HD
BRANCH  21  23
ATOM     23  N   UNL     1      -1.714  12.565  20.670  0.00  0.00    +0.000 NA
ATOM     24  C   UNL     1      -2.901  12.303  21.107  0.00  0.00    +0.000 C 
BRANCH  24  25
ATOM     25  C   UNL     1      -3.683  13.330  21.825  0.00  0.00    +0.000 A 
ATOM     26  C   UNL     1      -3.697  14.652  21.376  0.00  0.00    +0.000 A 
ATOM     27  C   UNL     1      -4.367  15.628  22.117  0.00  0.00    +0.000 A 
ATOM     28  C   UNL     1      -5.039  15.290  23.294  0.00  0.00    +0.000 A 
ATOM     29  C   UNL     1      -5.047  13.961  23.724  0.00  0.00    +0.000 A 
ATOM     30  C   UNL     1      -4.367  12.980  22.991  0.00  0.00    +0.000 A 
BRANCH  28  31
ATOM     31  O   UNL     1      -5.581  16.348  23.968  0.00  0.00    +0.000 OA
ATOM     32  C   UNL     1      -4.774  16.951  24.970  0.00  0.00    +0.000 C 
ENDBRANCH  28  31
ENDBRANCH  24  25
ENDBRANCH  21  23
ENDBRANCH   4  19
TORSDOF 7
ENDMDL
MODEL 4
REMARK VINA RESULT:      -7.5      1.277      1.384
REMARK  Name = 
REMARK  8 active torsions:
REMARK  status: ('A' for Active; 'I' for Inactive)
REMARK    1  A    between atoms: C_2  and  C_3
REMARK    2  A    between atoms: C_3  and  N_4
REMARK    3  A    between atoms: C_5  and  C_6
REMARK    4  A    between atoms: C_9  and  C_10
REMARK    5  A    between atoms: N_12  and  N_13
REMARK    6  A    between atoms: C_14  and  C_15
REMARK    7  A    between atoms: C_18  and  O_19
REMARK    8  A    between atoms: O_19  and  C_20
REMARK                            x       y       z     vdW  Elec       q    Type
REMARK                         _______ _______ _______ _____ _____    ______ ____
ROOT
ATOM      1  C   UNL     1       2.136   7.628  19.172  0.00  0.00    +0.000 A 
ATOM      2  C   UNL     1       1.589   8.839  18.741  0.00  0.00    +0.000 A 
ATOM      3  C   UNL     1       0.917   9.689  19.617  0.00  0.00    +0.000 A 
ATOM      4  C   UNL     1       0.681   9.306  20.940  0.00  0.00    +0.000 A 
ATOM      5  C   UNL     1       1.098   8.033  21.348  0.00  0.00    +0.000 A 
ATOM      6  C   UNL     1       1.825   7.208  20.471  0.00  0.00    +0.000 A 
ENDROOT
BRANCH   1   8
ATOM      7  N   UNL     1       2.919   5.468  18.073  0.00  0.00    +0.000 N 
ATOM      8  C   UNL     1       3.044   6.826  18.334  0.00  0.00    +0.000 A 
ATOM      9  N   UNL     1       4.049   7.317  17.623  0.00  0.00    +0.000 NA
ATOM     10  C   UNL     1       4.610   6.265  16.947  0.00  0.00    +0.000 A 
ATOM     11  C   UNL     1       5.707   6.243  16.070  0.00  0.00    +0.000 A 
ATOM     12  C   UNL     1       6.090   5.029  15.494  0.00  0.00    +0.000 A 
ATOM     13  C   UNL     1       5.395   3.853  15.785  0.00  0.00    +0.000 A 
ATOM     14  C   UNL     1       4.298   3.859  16.653  0.00  0.00    +0.000 A 
ATOM     15  C   UNL     1       3.928   5.084  17.215  0.00  0.00    +0.000 A 
BRANCH   7  16
ATOM     16  C   UNL     1       1.871   4.584  18.553  0.00  0.00    +0.000 C 
BRANCH  16  18
ATOM     17  C   UNL     1       2.812   3.023  20.711  0.00  0.00    +0.000 C 
ATOM     18  C   UNL     1       2.377   3.743  19.714  0.00  0.00    +0.000 C 
ENDBRANCH  16  18
ENDBRANCH   7  16
ENDBRANCH   1   8
BRANCH   4  19
ATOM     19  C   UNL     1       0.007  10.320  21.808  0.00  0.00    +0.000 C 
ATOM     20  O   UNL     1       0.237  10.305  23.016  0.00  0.00    +0.000 OA
ATOM     21  N   UNL     1      -0.862  11.211  21.199  0.00  0.00    +0.000 N 
ATOM     22  H   UNL     1      -1.054  11.195  20.208  0.00  0.00    +0.000 HD
BRANCH  21  23
ATOM     23  N   UNL     1      -1.532  12.091  21.992  0.00  0.00    +0.000 NA
ATOM     24  C   UNL     1      -2.648  12.557  21.537  0.00  0.00    +0.000 C 
BRANCH  24  25
ATOM     25  C   UNL     1      -3.468  13.477  22.353  0.00  0.00    +0.000 A 
ATOM     26  C   UNL     1      -4.817  13.678  22.052  0.00  0.00    +0.000 A 
ATOM     27  C   UNL     1      -5.554  14.618  22.775  0.00  0.00    +0.000 A 
ATOM     28  C   UNL     1      -4.960  15.345  23.809  0.00  0.00    +0.000 A 
ATOM     29  C   UNL     1      -3.618  15.120  24.125  0.00  0.00    +0.000 A 
ATOM     30  C   UNL     1      -2.870  14.186  23.395  0.00  0.00    +0.000 A 
BRANCH  28  31
ATOM     31  O   UNL     1      -5.765  16.291  24.380  0.00  0.00    +0.000 OA
ATOM     32  C   UNL     1      -5.116  17.392  25.003  0.00  0.00    +0.000 C 
ENDBRANCH  28  31
ENDBRANCH  24  25
ENDBRANCH  21  23
ENDBRANCH   4  19
TORSDOF 7
ENDMDL
MODEL 5
REMARK VINA RESULT:      -7.4      1.537      1.646
REMARK  Name = 
REMARK  8 active torsions:
REMARK  status: ('A' for Active; 'I' for Inactive)
REMARK    1  A    between atoms: C_2  and  C_3
REMARK    2  A    between atoms: C_3  and  N_4
REMARK    3  A    between atoms: C_5  and  C_6
REMARK    4  A    between atoms: C_9  and  C_10
REMARK    5  A    between atoms: N_12  and  N_13
REMARK    6  A    between atoms: C_14  and  C_15
REMARK    7  A    between atoms: C_18  and  O_19
REMARK    8  A    between atoms: O_19  and  C_20
REMARK                            x       y       z     vdW  Elec       q    Type
REMARK                         _______ _______ _______ _____ _____    ______ ____
ROOT
ATOM      1  C   UNL     1       2.531   7.252  18.912  0.00  0.00    +0.000 A 
ATOM      2  C   UNL     1       1.956   8.456  18.498  0.00  0.00    +0.000 A 
ATOM      3  C   UNL     1       1.207   9.244  19.368  0.00  0.00    +0.000 A 
ATOM      4  C   UNL     1       0.923   8.802  20.662  0.00  0.00    +0.000 A 
ATOM      5  C   UNL     1       1.372   7.532  21.045  0.00  0.00    +0.000 A 
ATOM      6  C   UNL     1       2.175   6.770  20.177  0.00  0.00    +0.000 A 
ENDROOT
BRANCH   1   8
ATOM      7  N   UNL     1       3.341   5.243  17.570  0.00  0.00    +0.000 N 
ATOM      8  C   UNL     1       3.512   6.519  18.092  0.00  0.00    +0.000 A 
ATOM      9  N   UNL     1       4.654   7.023  17.648  0.00  0.00    +0.000 NA
ATOM     10  C   UNL     1       5.250   6.051  16.887  0.00  0.00    +0.000 A 
ATOM     11  C   UNL     1       6.476   6.072  16.201  0.00  0.00    +0.000 A 
ATOM     12  C   UNL     1       6.867   4.941  15.480  0.00  0.00    +0.000 A 
ATOM     13  C   UNL     1       6.054   3.806  15.439  0.00  0.00    +0.000 A 
ATOM     14  C   UNL     1       4.829   3.772  16.111  0.00  0.00    +0.000 A 
ATOM     15  C   UNL     1       4.453   4.914  16.824  0.00  0.00    +0.000 A 
BRANCH   7  16
ATOM     16  C   UNL     1       2.168   4.397  17.711  0.00  0.00    +0.000 C 
BRANCH  16  18
ATOM     17  C   UNL     1       2.533   2.554  19.820  0.00  0.00    +0.000 C 
ATOM     18  C   UNL     1       2.365   3.405  18.847  0.00  0.00    +0.000 C 
ENDBRANCH  16  18
ENDBRANCH   7  16
ENDBRANCH   1   8
BRANCH   4  19
ATOM     19  C   UNL     1       0.165   9.754  21.531  0.00  0.00    +0.000 C 
ATOM     20  O   UNL     1       0.049   9.493  22.728  0.00  0.00    +0.000 OA
ATOM     21  N   UNL     1      -0.385  10.874  20.929  0.00  0.00    +0.000 N 
ATOM     22  H   UNL     1      -0.296  11.063  19.941  0.00  0.00    +0.000 HD
BRANCH  21  23
ATOM     23  N   UNL     1      -1.134  11.710  21.700  0.00  0.00    +0.000 NA
ATOM     24  C   UNL     1      -2.132  12.297  21.127  0.00  0.00    +0.000 C 
BRANCH  24  25
ATOM     25  C   UNL     1      -3.031  13.179  21.900  0.00  0.00    +0.000 A 
ATOM     26  C   UNL     1      -3.616  12.731  23.086  0.00  0.00    +0.000 A 
ATOM     27  C   UNL     1      -4.534  13.542  23.756  0.00  0.00    +0.000 A 
ATOM     28  C   UNL     1      -4.857  14.807  23.261  0.00  0.00    +0.000 A 
ATOM     29  C   UNL     1      -4.248  15.264  22.089  0.00  0.00    +0.000 A 
ATOM     30  C   UNL     1      -3.336  14.449  21.407  0.00  0.00    +0.000 A 
BRANCH  28  31
ATOM     31  O   UNL     1      -5.829  15.466  23.961  0.00  0.00    +0.000 OA
ATOM     32  C   UNL     1      -7.169  15.044  23.748  0.00  0.00    +0.000 C 
ENDBRANCH  28  31
ENDBRANCH  24  25
ENDBRANCH  21  23
ENDBRANCH   4  19
TORSDOF 7
ENDMDL
MODEL 6
REMARK VINA RESULT:      -7.2      1.319      1.458
REMARK  Name = 
REMARK  8 active torsions:
REMARK  status: ('A' for Active; 'I' for Inactive)
REMARK    1  A    between atoms: C_2  and  C_3
REMARK    2  A    between atoms: C_3  and  N_4
REMARK    3  A    between atoms: C_5  and  C_6
REMARK    4  A    between atoms: C_9  and  C_10
REMARK    5  A    between atoms: N_12  and  N_13
REMARK    6  A    between atoms: C_14  and  C_15
REMARK    7  A    between atoms: C_18  and  O_19
REMARK    8  A    between atoms: O_19  and  C_20
REMARK                            x       y       z     vdW  Elec       q    Type
REMARK                         _______ _______ _______ _____ _____    ______ ____
ROOT
ATOM      1  C   UNL     1       2.597   7.215  18.851  0.00  0.00    +0.000 A 
ATOM      2  C   UNL     1       2.036   8.423  18.428  0.00  0.00    +0.000 A 
ATOM      3  C   UNL     1       1.297   9.227  19.292  0.00  0.00    +0.000 A 
ATOM      4  C   UNL     1       1.008   8.798  20.590  0.00  0.00    +0.000 A 
ATOM      5  C   UNL     1       1.442   7.525  20.982  0.00  0.00    +0.000 A 
ATOM      6  C   UNL     1       2.235   6.748  20.119  0.00  0.00    +0.000 A 
ENDROOT
BRANCH   1   8
ATOM      7  N   UNL     1       3.377   5.193  17.512  0.00  0.00    +0.000 N 
ATOM      8  C   UNL     1       3.569   6.465  18.036  0.00  0.00    +0.000 A 
ATOM      9  N   UNL     1       4.723   6.947  17.600  0.00  0.00    +0.000 NA
ATOM     10  C   UNL     1       5.305   5.965  16.841  0.00  0.00    +0.000 A 
ATOM     11  C   UNL     1       6.535   5.963  16.163  0.00  0.00    +0.000 A 
ATOM     12  C   UNL     1       6.910   4.826  15.443  0.00  0.00    +0.000 A 
ATOM     13  C   UNL     1       6.075   3.706  15.396  0.00  0.00    +0.000 A 
ATOM     14  C   UNL     1       4.846   3.695  16.061  0.00  0.00    +0.000 A 
ATOM     15  C   UNL     1       4.487   4.843  16.773  0.00  0.00    +0.000 A 
BRANCH   7  16
ATOM     16  C   UNL     1       2.188   4.369  17.646  0.00  0.00    +0.000 C 
BRANCH  16  18
ATOM     17  C   UNL     1       2.516   2.500  19.737  0.00  0.00    +0.000 C 
ATOM     18  C   UNL     1       2.364   3.362  18.771  0.00  0.00    +0.000 C 
ENDBRANCH  16  18
ENDBRANCH   7  16
ENDBRANCH   1   8
BRANCH   4  19
ATOM     19  C   UNL     1       0.262   9.766  21.452  0.00  0.00    +0.000 C 
ATOM     20  O   UNL     1      -0.616   9.334  22.197  0.00  0.00    +0.000 OA
ATOM     21  N   UNL     1       0.592  11.107  21.345  0.00  0.00    +0.000 N 
ATOM     22  H   UNL     1       1.302  11.447  20.713  0.00  0.00    +0.000 HD
BRANCH  21  23
ATOM     23  N   UNL     1      -0.130  12.002  22.074  0.00  0.00    +0.000 NA
ATOM     24  C   UNL     1       0.012  13.251  21.777  0.00  0.00    +0.000 C 
BRANCH  24  25
ATOM     25  C   UNL     1      -0.772  14.286  22.481  0.00  0.00    +0.000 A 
ATOM     26  C   UNL     1      -1.463  13.976  23.654  0.00  0.00    +0.000 A 
ATOM     27  C   UNL     1      -2.273  14.941  24.257  0.00  0.00    +0.000 A 
ATOM     28  C   UNL     1      -2.381  16.221  23.708  0.00  0.00    +0.000 A 
ATOM     29  C   UNL     1      -1.665  16.536  22.551  0.00  0.00    +0.000 A 
ATOM     30  C   UNL     1      -0.862  15.568  21.935  0.00  0.00    +0.000 A 
BRANCH  28  31
ATOM     31  O   UNL     1      -3.268  17.044  24.344  0.00  0.00    +0.000 OA
ATOM     32  C   UNL     1      -2.720  18.038  25.198  0.00  0.00    +0.000 C 
ENDBRANCH  28  31
ENDBRANCH  24  25
ENDBRANCH  21  23
ENDBRANCH   4  19
TORSDOF 7
ENDMDL
MODEL 7
REMARK VINA RESULT:      -7.2      1.812      2.219
REMARK  Name = 
REMARK  8 active torsions:
REMARK  status: ('A' for Active; 'I' for Inactive)
REMARK    1  A    between atoms: C_2  and  C_3
REMARK    2  A    between atoms: C_3  and  N_4
REMARK    3  A    between atoms: C_5  and  C_6
REMARK    4  A    between atoms: C_9  and  C_10
REMARK    5  A    between atoms: N_12  and  N_13
REMARK    6  A    between atoms: C_14  and  C_15
REMARK    7  A    between atoms: C_18  and  O_19
REMARK    8  A    between atoms: O_19  and  C_20
REMARK                            x       y       z     vdW  Elec       q    Type
REMARK                         _______ _______ _______ _____ _____    ______ ____
ROOT
ATOM      1  C   UNL     1       2.940   7.301  18.652  0.00  0.00    +0.000 A 
ATOM      2  C   UNL     1       2.649   6.907  19.960  0.00  0.00    +0.000 A 
ATOM      3  C   UNL     1       1.674   7.552  20.716  0.00  0.00    +0.000 A 
ATOM      4  C   UNL     1       1.022   8.685  20.221  0.00  0.00    +0.000 A 
ATOM      5  C   UNL     1       1.405   9.178  18.967  0.00  0.00    +0.000 A 
ATOM      6  C   UNL     1       2.352   8.484  18.190  0.00  0.00    +0.000 A 
ENDROOT
BRANCH   1   8
ATOM      7  N   UNL     1       3.642   5.147  17.488  0.00  0.00    +0.000 N 
ATOM      8  C   UNL     1       3.792   6.501  17.754  0.00  0.00    +0.000 A 
ATOM      9  N   UNL     1       4.758   6.992  16.992  0.00  0.00    +0.000 NA
ATOM     10  C   UNL     1       5.272   5.944  16.275  0.00  0.00    +0.000 A 
ATOM     11  C   UNL     1       6.316   5.923  15.335  0.00  0.00    +0.000 A 
ATOM     12  C   UNL     1       6.656   4.712  14.727  0.00  0.00    +0.000 A 
ATOM     13  C   UNL     1       5.970   3.538  15.046  0.00  0.00    +0.000 A 
ATOM     14  C   UNL     1       4.926   3.543  15.975  0.00  0.00    +0.000 A 
ATOM     15  C   UNL     1       4.598   4.765  16.570  0.00  0.00    +0.000 A 
BRANCH   7  16
ATOM     16  C   UNL     1       2.617   4.265  18.019  0.00  0.00    +0.000 C 
BRANCH  16  18
ATOM     17  C   UNL     1       3.692   2.613  20.042  0.00  0.00    +0.000 C 
ATOM     18  C   UNL     1       3.195   3.375  19.108  0.00  0.00    +0.000 C 
ENDBRANCH  16  18
ENDBRANCH   7  16
ENDBRANCH   1   8
BRANCH   4  19
ATOM     19  C   UNL     1      -0.051   9.260  21.089  0.00  0.00    +0.000 C 
ATOM     20  O   UNL     1      -0.802   8.488  21.684  0.00  0.00    +0.000 OA
ATOM     21  N   UNL     1      -0.150  10.640  21.157  0.00  0.00    +0.000 N 
ATOM     22  H   UNL     1       0.463  11.258  20.646  0.00  0.00    +0.000 HD
BRANCH  21  23
ATOM     23  N   UNL     1      -1.168  11.171  21.890  0.00  0.00    +0.000 NA
ATOM     24  C   UNL     1      -1.863  12.107  21.336  0.00  0.00    +0.000 C 
BRANCH  24  25
ATOM     25  C   UNL     1      -3.018  12.704  22.037  0.00  0.00    +0.000 A 
ATOM     26  C   UNL     1      -3.265  12.403  23.378  0.00  0.00    +0.000 A 
ATOM     27  C   UNL     1      -4.412  12.901  24.000  0.00  0.00    +0.000 A 
ATOM     28  C   UNL     1      -5.304  13.715  23.299  0.00  0.00    +0.000 A 
ATOM     29  C   UNL     1      -5.038  14.038  21.966  0.00  0.00    +0.000 A 
ATOM     30  C   UNL     1      -3.896  13.530  21.333  0.00  0.00    +0.000 A 
BRANCH  28  31
ATOM     31  O   UNL     1      -6.426  14.068  23.994  0.00  0.00    +0.000 OA
ATOM     32  C   UNL     1      -7.477  13.112  24.042  0.00  0.00    +0.000 C 
ENDBRANCH  28  31
ENDBRANCH  24  25
ENDBRANCH  21  23
ENDBRANCH   4  19
TORSDOF 7
ENDMDL
MODEL 8
REMARK VINA RESULT:      -7.2      1.163      1.519
REMARK  Name = 
REMARK  8 active torsions:
REMARK  status: ('A' for Active; 'I' for Inactive)
REMARK    1  A    between atoms: C_2  and  C_3
REMARK    2  A    between atoms: C_3  and  N_4
REMARK    3  A    between atoms: C_5  and  C_6
REMARK    4  A    between atoms: C_9  and  C_10
REMARK    5  A    between atoms: N_12  and  N_13
REMARK    6  A    between atoms: C_14  and  C_15
REMARK    7  A    between atoms: C_18  and  O_19
REMARK    8  A    between atoms: O_19  and  C_20
REMARK                            x       y       z     vdW  Elec       q    Type
REMARK                         _______ _______ _______ _____ _____    ______ ____
ROOT
ATOM      1  C   UNL     1       1.974   7.909  19.325  0.00  0.00    +0.000 A 
ATOM      2  C   UNL     1       1.463   9.032  18.669  0.00  0.00    +0.000 A 
ATOM      3  C   UNL     1       0.928  10.108  19.374  0.00  0.00    +0.000 A 
ATOM      4  C   UNL     1       0.795  10.052  20.764  0.00  0.00    +0.000 A 
ATOM      5  C   UNL     1       1.171   8.874  21.422  0.00  0.00    +0.000 A 
ATOM      6  C   UNL     1       1.761   7.817  20.705  0.00  0.00    +0.000 A 
ENDROOT
BRANCH   1   8
ATOM      7  N   UNL     1       2.458   5.511  18.616  0.00  0.00    +0.000 N 
ATOM      8  C   UNL     1       2.749   6.868  18.626  0.00  0.00    +0.000 A 
ATOM      9  N   UNL     1       3.773   7.102  17.819  0.00  0.00    +0.000 NA
ATOM     10  C   UNL     1       4.183   5.888  17.332  0.00  0.00    +0.000 A 
ATOM     11  C   UNL     1       5.233   5.581  16.451  0.00  0.00    +0.000 A 
ATOM     12  C   UNL     1       5.450   4.247  16.096  0.00  0.00    +0.000 A 
ATOM     13  C   UNL     1       4.637   3.232  16.608  0.00  0.00    +0.000 A 
ATOM     14  C   UNL     1       3.585   3.523  17.481  0.00  0.00    +0.000 A 
ATOM     15  C   UNL     1       3.381   4.863  17.822  0.00  0.00    +0.000 A 
BRANCH   7  16
ATOM     16  C   UNL     1       1.336   4.857  19.268  0.00  0.00    +0.000 C 
BRANCH  16  18
ATOM     17  C   UNL     1       2.185   3.574  21.636  0.00  0.00    +0.000 C 
ATOM     18  C   UNL     1       1.793   4.167  20.543  0.00  0.00    +0.000 C 
ENDBRANCH  16  18
ENDBRANCH   7  16
ENDBRANCH   1   8
BRANCH   4  19
ATOM     19  C   UNL     1       0.268  11.286  21.424  0.00  0.00    +0.000 C 
ATOM     20  O   UNL     1       0.992  12.279  21.478  0.00  0.00    +0.000 OA
ATOM     21  N   UNL     1      -1.007  11.231  21.962  0.00  0.00    +0.000 N 
ATOM     22  H   UNL     1      -1.580  10.401  21.927  0.00  0.00    +0.000 HD
BRANCH  21  23
ATOM     23  N   UNL     1      -1.468  12.327  22.626  0.00  0.00    +0.000 NA
ATOM     24  C   UNL     1      -2.651  12.744  22.320  0.00  0.00    +0.000 C 
BRANCH  24  25
ATOM     25  C   UNL     1      -3.251  13.894  23.027  0.00  0.00    +0.000 A 
ATOM     26  C   UNL     1      -2.689  14.367  24.215  0.00  0.00    +0.000 A 
ATOM     27  C   UNL     1      -3.320  15.395  24.919  0.00  0.00    +0.000 A 
ATOM     28  C   UNL     1      -4.498  15.968  24.435  0.00  0.00    +0.000 A 
ATOM     29  C   UNL     1      -5.042  15.511  23.232  0.00  0.00    +0.000 A 
ATOM     30  C   UNL     1      -4.420  14.472  22.528  0.00  0.00    +0.000 A 
BRANCH  28  31
ATOM     31  O   UNL     1      -5.060  16.904  25.258  0.00  0.00    +0.000 OA
ATOM     32  C   UNL     1      -5.126  18.234  24.764  0.00  0.00    +0.000 C 
ENDBRANCH  28  31
ENDBRANCH  24  25
ENDBRANCH  21  23
ENDBRANCH   4  19
TORSDOF 7
ENDMDL
MODEL 9
REMARK VINA RESULT:      -7.2      1.302      1.541
REMARK  Name = 
REMARK  8 active torsions:
REMARK  status: ('A' for Active; 'I' for Inactive)
REMARK    1  A    between atoms: C_2  and  C_3
REMARK    2  A    between atoms: C_3  and  N_4
REMARK    3  A    between atoms: C_5  and  C_6
REMARK    4  A    between atoms: C_9  and  C_10
REMARK    5  A    between atoms: N_12  and  N_13
REMARK    6  A    between atoms: C_14  and  C_15
REMARK    7  A    between atoms: C_18  and  O_19
REMARK    8  A    between atoms: O_19  and  C_20
REMARK                            x       y       z     vdW  Elec       q    Type
REMARK                         _______ _______ _______ _____ _____    ______ ____
ROOT
ATOM      1  C   UNL     1       2.101   7.823  19.326  0.00  0.00    +0.000 A 
ATOM      2  C   UNL     1       1.490   8.990  18.859  0.00  0.00    +0.000 A 
ATOM      3  C   UNL     1       0.790   9.839  19.712  0.00  0.00    +0.000 A 
ATOM      4  C   UNL     1       0.590   9.495  21.051  0.00  0.00    +0.000 A 
ATOM      5  C   UNL     1       1.073   8.259  21.500  0.00  0.00    +0.000 A 
ATOM      6  C   UNL     1       1.828   7.437  20.643  0.00  0.00    +0.000 A 
ENDROOT
BRANCH   1   8
ATOM      7  N   UNL     1       3.351   5.696  18.693  0.00  0.00    +0.000 N 
ATOM      8  C   UNL     1       3.036   7.034  18.504  0.00  0.00    +0.000 A 
ATOM      9  N   UNL     1       3.624   7.470  17.400  0.00  0.00    +0.000 NA
ATOM     10  C   UNL     1       4.367   6.429  16.907  0.00  0.00    +0.000 A 
ATOM     11  C   UNL     1       5.187   6.370  15.767  0.00  0.00    +0.000 A 
ATOM     12  C   UNL     1       5.847   5.175  15.469  0.00  0.00    +0.000 A 
ATOM     13  C   UNL     1       5.695   4.054  16.289  0.00  0.00    +0.000 A 
ATOM     14  C   UNL     1       4.879   4.096  17.423  0.00  0.00    +0.000 A 
ATOM     15  C   UNL     1       4.225   5.299  17.703  0.00  0.00    +0.000 A 
BRANCH   7  16
ATOM     16  C   UNL     1       2.814   4.813  19.715  0.00  0.00    +0.000 C 
BRANCH  16  18
ATOM     17  C   UNL     1       0.935   3.031  18.589  0.00  0.00    +0.000 C 
ATOM     18  C   UNL     1       1.803   3.853  19.109  0.00  0.00    +0.000 C 
ENDBRANCH  16  18
ENDBRANCH   7  16
ENDBRANCH   1   8
BRANCH   4  19
ATOM     19  C   UNL     1      -0.121  10.507  21.892  0.00  0.00    +0.000 C 
ATOM     20  O   UNL     1      -0.034  10.420  23.116  0.00  0.00    +0.000 OA
ATOM     21  N   UNL     1      -0.860  11.479  21.238  0.00  0.00    +0.000 N 
ATOM     22  H   UNL     1      -0.936  11.524  20.232  0.00  0.00    +0.000 HD
BRANCH  21  23
ATOM     23  N   UNL     1      -1.566  12.362  21.996  0.00  0.00    +0.000 NA
ATOM     24  C   UNL     1      -0.982  13.473  22.301  0.00  0.00    +0.000 C 
BRANCH  24  25
ATOM     25  C   UNL     1      -1.693  14.511  23.075  0.00  0.00    +0.000 A 
ATOM     26  C   UNL     1      -1.349  14.761  24.406  0.00  0.00    +0.000 A 
ATOM     27  C   UNL     1      -2.091  15.680  25.151  0.00  0.00    +0.000 A 
ATOM     28  C   UNL     1      -3.161  16.366  24.572  0.00  0.00    +0.000 A 
ATOM     29  C   UNL     1      -3.482  16.134  23.233  0.00  0.00    +0.000 A 
ATOM     30  C   UNL     1      -2.750  15.204  22.484  0.00  0.00    +0.000 A 
BRANCH  28  31
ATOM     31  O   UNL     1      -3.856  17.172  25.430  0.00  0.00    +0.000 OA
ATOM     32  C   UNL     1      -5.174  17.533  25.043  0.00  0.00    +0.000 C 
ENDBRANCH  28  31
ENDBRANCH  24  25
ENDBRANCH  21  23
ENDBRANCH   4  19
TORSDOF 7
ENDMDL
