MODEL 1
REMARK VINA RESULT:      -6.7      0.000      0.000
REMARK  Name = 
REMARK  11 active torsions:
REMARK  status: ('A' for Active; 'I' for Inactive)
REMARK    1  A    between atoms: C_1  and  O_2
REMARK    2  A    between atoms: O_2  and  C_3
REMARK    3  A    between atoms: C_7  and  C_8
REMARK    4  A    between atoms: C_8  and  O_10
REMARK    5  A    between atoms: O_10  and  C_11
REMARK    6  A    between atoms: C_11  and  C_12
REMARK    7  A    between atoms: C_11  and  C_18
REMARK    8  A    between atoms: C_24  and  C_25
REMARK    9  A    between atoms: C_25  and  O_26
REMARK   10  A    between atoms: O_26  and  C_27
REMARK   11  A    between atoms: C_27  and  C_28
REMARK                            x       y       z     vdW  Elec       q    Type
REMARK                         _______ _______ _______ _____ _____    ______ ____
ROOT
ATOM      1  C   UNL     1       1.099  12.845  18.802  0.00  0.00    +0.000 C 
ATOM      2  C   UNL     1       2.348  11.909  18.542  0.00  0.00    +0.000 C 
ATOM      3  O   UNL     1       3.216  11.816  17.712  0.00  0.00    +0.000 OA
ATOM      4  N   UNL     1       1.913  11.070  19.556  0.00  0.00    +0.000 N 
ATOM      5  C   UNL     1       1.102  10.009  19.090  0.00  0.00    +0.000 C 
ATOM      6  C   UNL     1      -0.255  10.003  19.238  0.00  0.00    +0.000 C 
ATOM      7  C   UNL     1      -1.039  10.881  20.192  0.00  0.00    +0.000 C 
ATOM      8  S   UNL     1       0.003  11.788  21.273  0.00  0.00    +0.000 S 
ATOM      9  O   UNL     1       0.505  10.851  22.265  0.00  0.00    +0.000 OA
ATOM     10  O   UNL     1      -0.751  12.951  21.712  0.00  0.00    +0.000 OA
ATOM     11  C   UNL     1       1.305  12.294  20.222  0.00  0.00    +0.000 C 
ENDROOT
BRANCH   1  13
ATOM     12  C   UNL     1       0.991  15.133  19.544  0.00  0.00    +0.000 C 
ATOM     13  O   UNL     1       1.317  14.235  18.477  0.00  0.00    +0.000 OA
ENDBRANCH   1  13
BRANCH   5  14
ATOM     14  C   UNL     1       1.800   9.013  18.153  0.00  0.00    +0.000 C 
ATOM     15  O   UNL     1       1.869   9.128  16.941  0.00  0.00    +0.000 OA
BRANCH  14  16
ATOM     16  O   UNL     1       2.349   8.004  18.875  0.00  0.00    +0.000 OA
BRANCH  16  17
ATOM     17  C   UNL     1       2.603   6.775  18.152  0.00  0.00    +0.000 C 
BRANCH  17  18
ATOM     18  C   UNL     1       4.120   6.642  18.101  0.00  0.00    +0.000 A 
ATOM     19  C   UNL     1       4.866   7.278  17.093  0.00  0.00    +0.000 A 
ATOM     20  C   UNL     1       6.243   7.109  17.005  0.00  0.00    +0.000 A 
ATOM     21  C   UNL     1       6.905   6.301  17.931  0.00  0.00    +0.000 A 
ATOM     22  C   UNL     1       6.183   5.672  18.942  0.00  0.00    +0.000 A 
ATOM     23  C   UNL     1       4.807   5.842  19.032  0.00  0.00    +0.000 A 
ENDBRANCH  17  18
BRANCH  17  24
ATOM     24  C   UNL     1       1.950   5.542  18.775  0.00  0.00    +0.000 A 
ATOM     25  C   UNL     1       1.659   5.447  20.143  0.00  0.00    +0.000 A 
ATOM     26  C   UNL     1       1.098   4.280  20.671  0.00  0.00    +0.000 A 
ATOM     27  C   UNL     1       0.816   3.194  19.844  0.00  0.00    +0.000 A 
ATOM     28  C   UNL     1       1.084   3.274  18.483  0.00  0.00    +0.000 A 
ATOM     29  C   UNL     1       1.641   4.439  17.952  0.00  0.00    +0.000 A 
ENDBRANCH  17  24
ENDBRANCH  16  17
ENDBRANCH  14  16
ENDBRANCH   5  14
BRANCH   6  30
ATOM     30  C   UNL     1      -1.203   9.206  18.360  0.00  0.00    +0.000 C 
BRANCH  30  31
ATOM     31  O   UNL     1      -1.525   9.961  17.173  0.00  0.00    +0.000 OA
BRANCH  31  32
ATOM     32  C   UNL     1      -2.818  10.003  16.767  0.00  0.00    +0.000 C 
ATOM     33  C   UNL     1      -2.921   9.882  15.276  0.00  0.00    +0.000 C 
ATOM     34  O   UNL     1      -3.785  10.135  17.504  0.00  0.00    +0.000 OA
ENDBRANCH  31  32
ENDBRANCH  30  31
ENDBRANCH   6  30
TORSDOF 9
ENDMDL
MODEL 2
REMARK VINA RESULT:      -6.7      4.314      7.755
REMARK  Name = 
REMARK  11 active torsions:
REMARK  status: ('A' for Active; 'I' for Inactive)
REMARK    1  A    between atoms: C_1  and  O_2
REMARK    2  A    between atoms: O_2  and  C_3
REMARK    3  A    between atoms: C_7  and  C_8
REMARK    4  A    between atoms: C_8  and  O_10
REMARK    5  A    between atoms: O_10  and  C_11
REMARK    6  A    between atoms: C_11  and  C_12
REMARK    7  A    between atoms: C_11  and  C_18
REMARK    8  A    between atoms: C_24  and  C_25
REMARK    9  A    between atoms: C_25  and  O_26
REMARK   10  A    between atoms: O_26  and  C_27
REMARK   11  A    between atoms: C_27  and  C_28
REMARK                            x       y       z     vdW  Elec       q    Type
REMARK                         _______ _______ _______ _____ _____    ______ ____
ROOT
ATOM      1  C   UNL     1       4.458   2.187  20.408  0.00  0.00    +0.000 C 
ATOM      2  C   UNL     1       4.131   1.634  18.961  0.00  0.00    +0.000 C 
ATOM      3  O   UNL     1       4.721   1.038  18.097  0.00  0.00    +0.000 OA
ATOM      4  N   UNL     1       2.927   2.319  18.987  0.00  0.00    +0.000 N 
ATOM      5  C   UNL     1       3.007   3.607  18.407  0.00  0.00    +0.000 C 
ATOM      6  C   UNL     1       3.052   4.747  19.155  0.00  0.00    +0.000 C 
ATOM      7  C   UNL     1       2.670   4.855  20.617  0.00  0.00    +0.000 C 
ATOM      8  S   UNL     1       1.942   3.380  21.227  0.00  0.00    +0.000 S 
ATOM      9  O   UNL     1       0.591   3.321  20.694  0.00  0.00    +0.000 OA
ATOM     10  O   UNL     1       2.138   3.374  22.667  0.00  0.00    +0.000 OA
ATOM     11  C   UNL     1       2.925   2.132  20.496  0.00  0.00    +0.000 C 
ENDROOT
BRANCH   1  13
ATOM     12  C   UNL     1       5.512   0.033  20.616  0.00  0.00    +0.000 C 
ATOM     13  O   UNL     1       5.305   1.324  21.198  0.00  0.00    +0.000 OA
ENDBRANCH   1  13
BRANCH   5  14
ATOM     14  C   UNL     1       3.336   3.631  16.908  0.00  0.00    +0.000 C 
ATOM     15  O   UNL     1       2.508   3.624  16.013  0.00  0.00    +0.000 OA
BRANCH  14  16
ATOM     16  O   UNL     1       4.680   3.686  16.728  0.00  0.00    +0.000 OA
BRANCH  16  17
ATOM     17  C   UNL     1       5.172   4.825  15.981  0.00  0.00    +0.000 C 
BRANCH  17  18
ATOM     18  C   UNL     1       6.207   5.485  16.882  0.00  0.00    +0.000 A 
ATOM     19  C   UNL     1       6.883   4.742  17.867  0.00  0.00    +0.000 A 
ATOM     20  C   UNL     1       7.783   5.352  18.734  0.00  0.00    +0.000 A 
ATOM     21  C   UNL     1       8.028   6.722  18.630  0.00  0.00    +0.000 A 
ATOM     22  C   UNL     1       7.374   7.471  17.654  0.00  0.00    +0.000 A 
ATOM     23  C   UNL     1       6.476   6.862  16.786  0.00  0.00    +0.000 A 
ENDBRANCH  17  18
BRANCH  17  24
ATOM     24  C   UNL     1       5.760   4.464  14.617  0.00  0.00    +0.000 A 
ATOM     25  C   UNL     1       7.024   4.900  14.196  0.00  0.00    +0.000 A 
ATOM     26  C   UNL     1       7.501   4.576  12.922  0.00  0.00    +0.000 A 
ATOM     27  C   UNL     1       6.726   3.811  12.050  0.00  0.00    +0.000 A 
ATOM     28  C   UNL     1       5.476   3.357  12.454  0.00  0.00    +0.000 A 
ATOM     29  C   UNL     1       4.999   3.676  13.728  0.00  0.00    +0.000 A 
ENDBRANCH  17  24
ENDBRANCH  16  17
ENDBRANCH  14  16
ENDBRANCH   5  14
BRANCH   6  30
ATOM     30  C   UNL     1       3.632   6.063  18.667  0.00  0.00    +0.000 C 
BRANCH  30  31
ATOM     31  O   UNL     1       2.601   6.847  18.031  0.00  0.00    +0.000 OA
BRANCH  31  32
ATOM     32  C   UNL     1       2.142   7.950  18.673  0.00  0.00    +0.000 C 
ATOM     33  C   UNL     1       1.855   9.059  17.705  0.00  0.00    +0.000 C 
ATOM     34  O   UNL     1       1.990   8.050  19.881  0.00  0.00    +0.000 OA
ENDBRANCH  31  32
ENDBRANCH  30  31
ENDBRANCH   6  30
TORSDOF 9
ENDMDL
MODEL 3
REMARK VINA RESULT:      -6.5      4.571      6.919
REMARK  Name = 
REMARK  11 active torsions:
REMARK  status: ('A' for Active; 'I' for Inactive)
REMARK    1  A    between atoms: C_1  and  O_2
REMARK    2  A    between atoms: O_2  and  C_3
REMARK    3  A    between atoms: C_7  and  C_8
REMARK    4  A    between atoms: C_8  and  O_10
REMARK    5  A    between atoms: O_10  and  C_11
REMARK    6  A    between atoms: C_11  and  C_12
REMARK    7  A    between atoms: C_11  and  C_18
REMARK    8  A    between atoms: C_24  and  C_25
REMARK    9  A    between atoms: C_25  and  O_26
REMARK   10  A    between atoms: O_26  and  C_27
REMARK   11  A    between atoms: C_27  and  C_28
REMARK                            x       y       z     vdW  Elec       q    Type
REMARK                         _______ _______ _______ _____ _____    ______ ____
ROOT
ATOM      1  C   UNL     1       3.737  16.431  19.356  0.00  0.00    +0.000 C 
ATOM      2  C   UNL     1       3.240  15.228  18.455  0.00  0.00    +0.000 C 
ATOM      3  O   UNL     1       2.977  15.055  17.293  0.00  0.00    +0.000 OA
ATOM      4  N   UNL     1       3.007  14.485  19.602  0.00  0.00    +0.000 N 
ATOM      5  C   UNL     1       1.679  14.595  20.074  0.00  0.00    +0.000 C 
ATOM      6  C   UNL     1       1.346  15.360  21.154  0.00  0.00    +0.000 C 
ATOM      7  C   UNL     1       2.316  15.886  22.192  0.00  0.00    +0.000 C 
ATOM      8  S   UNL     1       3.929  15.229  21.991  0.00  0.00    +0.000 S 
ATOM      9  O   UNL     1       3.890  13.855  22.464  0.00  0.00    +0.000 OA
ATOM     10  O   UNL     1       4.850  16.167  22.610  0.00  0.00    +0.000 OA
ATOM     11  C   UNL     1       4.144  15.254  20.256  0.00  0.00    +0.000 C 
ENDROOT
BRANCH   1  13
ATOM     12  C   UNL     1       6.058  17.032  19.137  0.00  0.00    +0.000 C 
ATOM     13  O   UNL     1       4.712  17.288  18.722  0.00  0.00    +0.000 OA
ENDBRANCH   1  13
BRANCH   5  14
ATOM     14  C   UNL     1       0.600  14.043  19.132  0.00  0.00    +0.000 C 
ATOM     15  O   UNL     1      -0.070  14.719  18.370  0.00  0.00    +0.000 OA
BRANCH  14  16
ATOM     16  O   UNL     1       0.521  12.695  19.256  0.00  0.00    +0.000 OA
BRANCH  16  17
ATOM     17  C   UNL     1      -0.639  12.190  19.961  0.00  0.00    +0.000 C 
BRANCH  17  18
ATOM     18  C   UNL     1      -1.508  11.536  18.894  0.00  0.00    +0.000 A 
ATOM     19  C   UNL     1      -2.856  11.907  18.736  0.00  0.00    +0.000 A 
ATOM     20  C   UNL     1      -3.670  11.270  17.807  0.00  0.00    +0.000 A 
ATOM     21  C   UNL     1      -3.150  10.248  17.012  0.00  0.00    +0.000 A 
ATOM     22  C   UNL     1      -1.815   9.875  17.148  0.00  0.00    +0.000 A 
ATOM     23  C   UNL     1      -0.999  10.513  18.075  0.00  0.00    +0.000 A 
ENDBRANCH  17  18
BRANCH  17  24
ATOM     24  C   UNL     1      -0.303  11.216  21.090  0.00  0.00    +0.000 A 
ATOM     25  C   UNL     1       0.755  10.300  21.012  0.00  0.00    +0.000 A 
ATOM     26  C   UNL     1       0.996   9.401  22.056  0.00  0.00    +0.000 A 
ATOM     27  C   UNL     1       0.188   9.404  23.192  0.00  0.00    +0.000 A 
ATOM     28  C   UNL     1      -0.858  10.314  23.294  0.00  0.00    +0.000 A 
ATOM     29  C   UNL     1      -1.099  11.215  22.255  0.00  0.00    +0.000 A 
ENDBRANCH  17  24
ENDBRANCH  16  17
ENDBRANCH  14  16
ENDBRANCH   5  14
BRANCH   6  30
ATOM     30  C   UNL     1      -0.043  15.922  21.403  0.00  0.00    +0.000 C 
BRANCH  30  31
ATOM     31  O   UNL     1      -0.823  14.982  22.172  0.00  0.00    +0.000 OA
BRANCH  31  32
ATOM     32  C   UNL     1      -1.128  15.296  23.455  0.00  0.00    +0.000 C 
ATOM     33  C   UNL     1      -1.724  16.668  23.549  0.00  0.00    +0.000 C 
ATOM     34  O   UNL     1      -0.937  14.573  24.423  0.00  0.00    +0.000 OA
ENDBRANCH  31  32
ENDBRANCH  30  31
ENDBRANCH   6  30
TORSDOF 9
ENDMDL
MODEL 4
REMARK VINA RESULT:      -6.5      4.316      7.749
REMARK  Name = 
REMARK  11 active torsions:
REMARK  status: ('A' for Active; 'I' for Inactive)
REMARK    1  A    between atoms: C_1  and  O_2
REMARK    2  A    between atoms: O_2  and  C_3
REMARK    3  A    between atoms: C_7  and  C_8
REMARK    4  A    between atoms: C_8  and  O_10
REMARK    5  A    between atoms: O_10  and  C_11
REMARK    6  A    between atoms: C_11  and  C_12
REMARK    7  A    between atoms: C_11  and  C_18
REMARK    8  A    between atoms: C_24  and  C_25
REMARK    9  A    between atoms: C_25  and  O_26
REMARK   10  A    between atoms: O_26  and  C_27
REMARK   11  A    between atoms: C_27  and  C_28
REMARK                            x       y       z     vdW  Elec       q    Type
REMARK                         _______ _______ _______ _____ _____    ______ ____
ROOT
ATOM      1  C   UNL     1       4.523   2.231  20.242  0.00  0.00    +0.000 C 
ATOM      2  C   UNL     1       4.144   1.677  18.808  0.00  0.00    +0.000 C 
ATOM      3  O   UNL     1       4.713   1.115  17.908  0.00  0.00    +0.000 OA
ATOM      4  N   UNL     1       2.914   2.309  18.905  0.00  0.00    +0.000 N 
ATOM      5  C   UNL     1       2.907   3.603  18.336  0.00  0.00    +0.000 C 
ATOM      6  C   UNL     1       2.943   4.738  19.094  0.00  0.00    +0.000 C 
ATOM      7  C   UNL     1       2.635   4.816  20.575  0.00  0.00    +0.000 C 
ATOM      8  S   UNL     1       2.005   3.305  21.206  0.00  0.00    +0.000 S 
ATOM      9  O   UNL     1       0.631   3.191  20.744  0.00  0.00    +0.000 OA
ATOM     10  O   UNL     1       2.277   3.295  22.634  0.00  0.00    +0.000 OA
ATOM     11  C   UNL     1       3.000   2.108  20.410  0.00  0.00    +0.000 C 
ENDROOT
BRANCH   1  13
ATOM     12  C   UNL     1       4.829   0.628  22.011  0.00  0.00    +0.000 C 
ATOM     13  O   UNL     1       5.448   1.400  20.977  0.00  0.00    +0.000 OA
ENDBRANCH   1  13
BRANCH   5  14
ATOM     14  C   UNL     1       3.155   3.655  16.822  0.00  0.00    +0.000 C 
ATOM     15  O   UNL     1       2.280   3.716  15.975  0.00  0.00    +0.000 OA
BRANCH  14  16
ATOM     16  O   UNL     1       4.487   3.648  16.569  0.00  0.00    +0.000 OA
BRANCH  16  17
ATOM     17  C   UNL     1       4.996   4.783  15.828  0.00  0.00    +0.000 C 
BRANCH  17  18
ATOM     18  C   UNL     1       6.037   5.427  16.736  0.00  0.00    +0.000 A 
ATOM     19  C   UNL     1       6.741   4.660  17.681  0.00  0.00    +0.000 A 
ATOM     20  C   UNL     1       7.646   5.252  18.554  0.00  0.00    +0.000 A 
ATOM     21  C   UNL     1       7.868   6.629  18.497  0.00  0.00    +0.000 A 
ATOM     22  C   UNL     1       7.185   7.402  17.561  0.00  0.00    +0.000 A 
ATOM     23  C   UNL     1       6.283   6.810  16.686  0.00  0.00    +0.000 A 
ENDBRANCH  17  18
BRANCH  17  24
ATOM     24  C   UNL     1       5.585   4.421  14.465  0.00  0.00    +0.000 A 
ATOM     25  C   UNL     1       4.895   3.647  13.521  0.00  0.00    +0.000 A 
ATOM     26  C   UNL     1       5.494   3.308  12.304  0.00  0.00    +0.000 A 
ATOM     27  C   UNL     1       6.788   3.737  12.009  0.00  0.00    +0.000 A 
ATOM     28  C   UNL     1       7.484   4.516  12.926  0.00  0.00    +0.000 A 
ATOM     29  C   UNL     1       6.887   4.859  14.141  0.00  0.00    +0.000 A 
ENDBRANCH  17  24
ENDBRANCH  16  17
ENDBRANCH  14  16
ENDBRANCH   5  14
BRANCH   6  30
ATOM     30  C   UNL     1       3.437   6.082  18.590  0.00  0.00    +0.000 C 
BRANCH  30  31
ATOM     31  O   UNL     1       2.570   7.134  19.064  0.00  0.00    +0.000 OA
BRANCH  31  32
ATOM     32  C   UNL     1       2.347   8.199  18.254  0.00  0.00    +0.000 C 
ATOM     33  C   UNL     1       1.380   9.160  18.879  0.00  0.00    +0.000 C 
ATOM     34  O   UNL     1       2.848   8.363  17.151  0.00  0.00    +0.000 OA
ENDBRANCH  31  32
ENDBRANCH  30  31
ENDBRANCH   6  30
TORSDOF 9
ENDMDL
MODEL 5
REMARK VINA RESULT:      -6.5      1.733      4.850
REMARK  Name = 
REMARK  11 active torsions:
REMARK  status: ('A' for Active; 'I' for Inactive)
REMARK    1  A    between atoms: C_1  and  O_2
REMARK    2  A    between atoms: O_2  and  C_3
REMARK    3  A    between atoms: C_7  and  C_8
REMARK    4  A    between atoms: C_8  and  O_10
REMARK    5  A    between atoms: O_10  and  C_11
REMARK    6  A    between atoms: C_11  and  C_12
REMARK    7  A    between atoms: C_11  and  C_18
REMARK    8  A    between atoms: C_24  and  C_25
REMARK    9  A    between atoms: C_25  and  O_26
REMARK   10  A    between atoms: O_26  and  C_27
REMARK   11  A    between atoms: C_27  and  C_28
REMARK                            x       y       z     vdW  Elec       q    Type
REMARK                         _______ _______ _______ _____ _____    ______ ____
ROOT
ATOM      1  C   UNL     1       0.579  10.221  21.418  0.00  0.00    +0.000 C 
ATOM      2  C   UNL     1       1.097   8.806  20.931  0.00  0.00    +0.000 C 
ATOM      3  O   UNL     1       1.863   7.968  21.331  0.00  0.00    +0.000 OA
ATOM      4  N   UNL     1       0.469   9.013  19.712  0.00  0.00    +0.000 N 
ATOM      5  C   UNL     1       1.320   9.587  18.739  0.00  0.00    +0.000 C 
ATOM      6  C   UNL     1       1.247  10.904  18.387  0.00  0.00    +0.000 C 
ATOM      7  C   UNL     1       0.082  11.828  18.674  0.00  0.00    +0.000 C 
ATOM      8  S   UNL     1      -1.299  10.973  19.337  0.00  0.00    +0.000 S 
ATOM      9  O   UNL     1      -1.915  10.245  18.240  0.00  0.00    +0.000 OA
ATOM     10  O   UNL     1      -2.087  11.947  20.074  0.00  0.00    +0.000 OA
ATOM     11  C   UNL     1      -0.559   9.850  20.455  0.00  0.00    +0.000 C 
ENDROOT
BRANCH   1  13
ATOM     12  C   UNL     1      -0.998  10.435  23.223  0.00  0.00    +0.000 C 
ATOM     13  O   UNL     1       0.378  10.323  22.844  0.00  0.00    +0.000 OA
ENDBRANCH   1  13
BRANCH   5  14
ATOM     14  C   UNL     1       2.516   8.721  18.320  0.00  0.00    +0.000 C 
ATOM     15  O   UNL     1       3.642   9.141  18.114  0.00  0.00    +0.000 OA
BRANCH  14  16
ATOM     16  O   UNL     1       2.140   7.420  18.239  0.00  0.00    +0.000 OA
BRANCH  16  17
ATOM     17  C   UNL     1       3.039   6.463  18.850  0.00  0.00    +0.000 C 
BRANCH  17  18
ATOM     18  C   UNL     1       2.198   5.216  19.094  0.00  0.00    +0.000 A 
ATOM     19  C   UNL     1       1.821   4.844  20.397  0.00  0.00    +0.000 A 
ATOM     20  C   UNL     1       1.107   3.675  20.631  0.00  0.00    +0.000 A 
ATOM     21  C   UNL     1       0.751   2.852  19.561  0.00  0.00    +0.000 A 
ATOM     22  C   UNL     1       1.107   3.210  18.263  0.00  0.00    +0.000 A 
ATOM     23  C   UNL     1       1.819   4.380  18.028  0.00  0.00    +0.000 A 
ENDBRANCH  17  18
BRANCH  17  24
ATOM     24  C   UNL     1       4.278   6.151  18.010  0.00  0.00    +0.000 A 
ATOM     25  C   UNL     1       4.345   6.407  16.634  0.00  0.00    +0.000 A 
ATOM     26  C   UNL     1       5.488   6.066  15.902  0.00  0.00    +0.000 A 
ATOM     27  C   UNL     1       6.579   5.468  16.532  0.00  0.00    +0.000 A 
ATOM     28  C   UNL     1       6.537   5.220  17.900  0.00  0.00    +0.000 A 
ATOM     29  C   UNL     1       5.398   5.563  18.633  0.00  0.00    +0.000 A 
ENDBRANCH  17  24
ENDBRANCH  16  17
ENDBRANCH  14  16
ENDBRANCH   5  14
BRANCH   6  30
ATOM     30  C   UNL     1       2.395  11.684  17.771  0.00  0.00    +0.000 C 
BRANCH  30  31
ATOM     31  O   UNL     1       2.143  13.101  17.884  0.00  0.00    +0.000 OA
BRANCH  31  32
ATOM     32  C   UNL     1       3.086  13.879  18.469  0.00  0.00    +0.000 C 
ATOM     33  C   UNL     1       2.557  14.528  19.712  0.00  0.00    +0.000 C 
ATOM     34  O   UNL     1       4.220  14.052  18.045  0.00  0.00    +0.000 OA
ENDBRANCH  31  32
ENDBRANCH  30  31
ENDBRANCH   6  30
TORSDOF 9
ENDMDL
MODEL 6
REMARK VINA RESULT:      -6.4      2.119      3.922
REMARK  Name = 
REMARK  11 active torsions:
REMARK  status: ('A' for Active; 'I' for Inactive)
REMARK    1  A    between atoms: C_1  and  O_2
REMARK    2  A    between atoms: O_2  and  C_3
REMARK    3  A    between atoms: C_7  and  C_8
REMARK    4  A    between atoms: C_8  and  O_10
REMARK    5  A    between atoms: O_10  and  C_11
REMARK    6  A    between atoms: C_11  and  C_12
REMARK    7  A    between atoms: C_11  and  C_18
REMARK    8  A    between atoms: C_24  and  C_25
REMARK    9  A    between atoms: C_25  and  O_26
REMARK   10  A    between atoms: O_26  and  C_27
REMARK   11  A    between atoms: C_27  and  C_28
REMARK                            x       y       z     vdW  Elec       q    Type
REMARK                         _______ _______ _______ _____ _____    ______ ____
ROOT
ATOM      1  C   UNL     1      -0.104  10.205  19.607  0.00  0.00    +0.000 C 
ATOM      2  C   UNL     1       1.194  10.034  18.717  0.00  0.00    +0.000 C 
ATOM      3  O   UNL     1       1.476  10.137  17.551  0.00  0.00    +0.000 OA
ATOM      4  N   UNL     1       1.852   9.485  19.807  0.00  0.00    +0.000 N 
ATOM      5  C   UNL     1       1.773   8.073  19.850  0.00  0.00    +0.000 C 
ATOM      6  C   UNL     1       0.940   7.411  20.704  0.00  0.00    +0.000 C 
ATOM      7  C   UNL     1       0.279   8.010  21.929  0.00  0.00    +0.000 C 
ATOM      8  S   UNL     1       0.866   9.625  22.281  0.00  0.00    +0.000 S 
ATOM      9  O   UNL     1       2.196   9.480  22.848  0.00  0.00    +0.000 OA
ATOM     10  O   UNL     1      -0.167  10.293  23.055  0.00  0.00    +0.000 OA
ATOM     11  C   UNL     1       0.973  10.352  20.694  0.00  0.00    +0.000 C 
ENDROOT
BRANCH   1  13
ATOM     12  C   UNL     1      -2.124  10.896  18.495  0.00  0.00    +0.000 C 
ATOM     13  O   UNL     1      -0.955  11.304  19.214  0.00  0.00    +0.000 OA
ENDBRANCH   1  13
BRANCH   5  14
ATOM     14  C   UNL     1       2.456   7.343  18.685  0.00  0.00    +0.000 C 
ATOM     15  O   UNL     1       2.196   7.515  17.507  0.00  0.00    +0.000 OA
BRANCH  14  16
ATOM     16  O   UNL     1       3.405   6.498  19.161  0.00  0.00    +0.000 OA
BRANCH  16  17
ATOM     17  C   UNL     1       4.100   5.705  18.168  0.00  0.00    +0.000 C 
BRANCH  17  18
ATOM     18  C   UNL     1       5.568   6.093  18.294  0.00  0.00    +0.000 A 
ATOM     19  C   UNL     1       6.146   7.022  17.410  0.00  0.00    +0.000 A 
ATOM     20  C   UNL     1       7.499   7.333  17.481  0.00  0.00    +0.000 A 
ATOM     21  C   UNL     1       8.303   6.722  18.445  0.00  0.00    +0.000 A 
ATOM     22  C   UNL     1       7.745   5.807  19.335  0.00  0.00    +0.000 A 
ATOM     23  C   UNL     1       6.392   5.498  19.266  0.00  0.00    +0.000 A 
ENDBRANCH  17  18
BRANCH  17  24
ATOM     24  C   UNL     1       3.900   4.198  18.328  0.00  0.00    +0.000 A 
ATOM     25  C   UNL     1       4.483   3.461  19.369  0.00  0.00    +0.000 A 
ATOM     26  C   UNL     1       4.302   2.077  19.448  0.00  0.00    +0.000 A 
ATOM     27  C   UNL     1       3.537   1.407  18.493  0.00  0.00    +0.000 A 
ATOM     28  C   UNL     1       2.940   2.122  17.461  0.00  0.00    +0.000 A 
ATOM     29  C   UNL     1       3.116   3.506  17.382  0.00  0.00    +0.000 A 
ENDBRANCH  17  24
ENDBRANCH  16  17
ENDBRANCH  14  16
ENDBRANCH   5  14
BRANCH   6  30
ATOM     30  C   UNL     1       0.433   5.998  20.473  0.00  0.00    +0.000 C 
BRANCH  30  31
ATOM     31  O   UNL     1       1.394   5.044  20.972  0.00  0.00    +0.000 OA
BRANCH  31  32
ATOM     32  C   UNL     1       1.177   3.727  20.735  0.00  0.00    +0.000 C 
ATOM     33  C   UNL     1       1.748   2.879  21.832  0.00  0.00    +0.000 C 
ATOM     34  O   UNL     1       0.605   3.271  19.755  0.00  0.00    +0.000 OA
ENDBRANCH  31  32
ENDBRANCH  30  31
ENDBRANCH   6  30
TORSDOF 9
ENDMDL
MODEL 7
REMARK VINA RESULT:      -6.3      1.740      3.684
REMARK  Name = 
REMARK  11 active torsions:
REMARK  status: ('A' for Active; 'I' for Inactive)
REMARK    1  A    between atoms: C_1  and  O_2
REMARK    2  A    between atoms: O_2  and  C_3
REMARK    3  A    between atoms: C_7  and  C_8
REMARK    4  A    between atoms: C_8  and  O_10
REMARK    5  A    between atoms: O_10  and  C_11
REMARK    6  A    between atoms: C_11  and  C_12
REMARK    7  A    between atoms: C_11  and  C_18
REMARK    8  A    between atoms: C_24  and  C_25
REMARK    9  A    between atoms: C_25  and  O_26
REMARK   10  A    between atoms: O_26  and  C_27
REMARK   11  A    between atoms: C_27  and  C_28
REMARK                            x       y       z     vdW  Elec       q    Type
REMARK                         _______ _______ _______ _____ _____    ______ ____
ROOT
ATOM      1  C   UNL     1       0.935   9.949  21.575  0.00  0.00    +0.000 C 
ATOM      2  C   UNL     1       1.289   8.550  20.923  0.00  0.00    +0.000 C 
ATOM      3  O   UNL     1       2.025   7.630  21.169  0.00  0.00    +0.000 OA
ATOM      4  N   UNL     1       0.558   8.905  19.800  0.00  0.00    +0.000 N 
ATOM      5  C   UNL     1       1.347   9.504  18.790  0.00  0.00    +0.000 C 
ATOM      6  C   UNL     1       1.340  10.848  18.554  0.00  0.00    +0.000 C 
ATOM      7  C   UNL     1       0.285  11.821  19.040  0.00  0.00    +0.000 C 
ATOM      8  S   UNL     1      -1.082  11.008  19.777  0.00  0.00    +0.000 S 
ATOM      9  O   UNL     1      -1.862  10.423  18.699  0.00  0.00    +0.000 OA
ATOM     10  O   UNL     1      -1.713  11.965  20.671  0.00  0.00    +0.000 OA
ATOM     11  C   UNL     1      -0.321   9.743  20.715  0.00  0.00    +0.000 C 
ENDROOT
BRANCH   1  13
ATOM     12  C   UNL     1      -0.404   9.630  23.550  0.00  0.00    +0.000 C 
ATOM     13  O   UNL     1       0.889   9.938  23.019  0.00  0.00    +0.000 OA
ENDBRANCH   1  13
BRANCH   5  14
ATOM     14  C   UNL     1       2.423   8.598  18.176  0.00  0.00    +0.000 C 
ATOM     15  O   UNL     1       3.115   8.891  17.216  0.00  0.00    +0.000 OA
BRANCH  14  16
ATOM     16  O   UNL     1       2.506   7.438  18.874  0.00  0.00    +0.000 OA
BRANCH  16  17
ATOM     17  C   UNL     1       2.736   6.243  18.089  0.00  0.00    +0.000 C 
BRANCH  17  18
ATOM     18  C   UNL     1       4.248   6.062  18.058  0.00  0.00    +0.000 A 
ATOM     19  C   UNL     1       4.971   6.241  16.865  0.00  0.00    +0.000 A 
ATOM     20  C   UNL     1       6.342   6.017  16.817  0.00  0.00    +0.000 A 
ATOM     21  C   UNL     1       7.021   5.613  17.967  0.00  0.00    +0.000 A 
ATOM     22  C   UNL     1       6.323   5.440  19.159  0.00  0.00    +0.000 A 
ATOM     23  C   UNL     1       4.952   5.666  19.209  0.00  0.00    +0.000 A 
ENDBRANCH  17  18
BRANCH  17  24
ATOM     24  C   UNL     1       2.031   4.999  18.632  0.00  0.00    +0.000 A 
ATOM     25  C   UNL     1       1.507   4.930  19.930  0.00  0.00    +0.000 A 
ATOM     26  C   UNL     1       0.907   3.755  20.393  0.00  0.00    +0.000 A 
ATOM     27  C   UNL     1       0.819   2.633  19.569  0.00  0.00    +0.000 A 
ATOM     28  C   UNL     1       1.321   2.687  18.273  0.00  0.00    +0.000 A 
ATOM     29  C   UNL     1       1.917   3.860  17.807  0.00  0.00    +0.000 A 
ENDBRANCH  17  24
ENDBRANCH  16  17
ENDBRANCH  14  16
ENDBRANCH   5  14
BRANCH   6  30
ATOM     30  C   UNL     1       2.476  11.599  17.882  0.00  0.00    +0.000 C 
BRANCH  30  31
ATOM     31  O   UNL     1       2.234  13.020  17.951  0.00  0.00    +0.000 OA
BRANCH  31  32
ATOM     32  C   UNL     1       3.192  13.813  18.492  0.00  0.00    +0.000 C 
ATOM     33  C   UNL     1       2.738  14.398  19.795  0.00  0.00    +0.000 C 
ATOM     34  O   UNL     1       4.283  14.042  17.990  0.00  0.00    +0.000 OA
ENDBRANCH  31  32
ENDBRANCH  30  31
ENDBRANCH   6  30
TORSDOF 9
ENDMDL
MODEL 8
REMARK VINA RESULT:      -6.3      3.122      7.007
REMARK  Name = 
REMARK  11 active torsions:
REMARK  status: ('A' for Active; 'I' for Inactive)
REMARK    1  A    between atoms: C_1  and  O_2
REMARK    2  A    between atoms: O_2  and  C_3
REMARK    3  A    between atoms: C_7  and  C_8
REMARK    4  A    between atoms: C_8  and  O_10
REMARK    5  A    between atoms: O_10  and  C_11
REMARK    6  A    between atoms: C_11  and  C_12
REMARK    7  A    between atoms: C_11  and  C_18
REMARK    8  A    between atoms: C_24  and  C_25
REMARK    9  A    between atoms: C_25  and  O_26
REMARK   10  A    between atoms: O_26  and  C_27
REMARK   11  A    between atoms: C_27  and  C_28
REMARK                            x       y       z     vdW  Elec       q    Type
REMARK                         _______ _______ _______ _____ _____    ______ ____
ROOT
ATOM      1  C   UNL     1       1.719  16.563  18.975  0.00  0.00    +0.000 C 
ATOM      2  C   UNL     1       0.900  15.254  18.626  0.00  0.00    +0.000 C 
ATOM      3  O   UNL     1      -0.257  14.918  18.625  0.00  0.00    +0.000 OA
ATOM      4  N   UNL     1       2.091  14.552  18.529  0.00  0.00    +0.000 N 
ATOM      5  C   UNL     1       2.463  13.919  19.738  0.00  0.00    +0.000 C 
ATOM      6  C   UNL     1       3.444  14.408  20.550  0.00  0.00    +0.000 C 
ATOM      7  C   UNL     1       4.492  15.426  20.148  0.00  0.00    +0.000 C 
ATOM      8  S   UNL     1       4.459  15.775  18.430  0.00  0.00    +0.000 S 
ATOM      9  O   UNL     1       5.051  14.634  17.752  0.00  0.00    +0.000 OA
ATOM     10  O   UNL     1       5.050  17.091  18.252  0.00  0.00    +0.000 OA
ATOM     11  C   UNL     1       2.746  15.849  18.083  0.00  0.00    +0.000 C 
ENDROOT
BRANCH   1  13
ATOM     12  C   UNL     1       0.212  18.340  19.578  0.00  0.00    +0.000 C 
ATOM     13  O   UNL     1       1.076  17.793  18.576  0.00  0.00    +0.000 OA
ENDBRANCH   1  13
BRANCH   5  14
ATOM     14  C   UNL     1       1.505  12.823  20.226  0.00  0.00    +0.000 C 
ATOM     15  O   UNL     1       1.073  12.731  21.362  0.00  0.00    +0.000 OA
BRANCH  14  16
ATOM     16  O   UNL     1       1.193  11.990  19.202  0.00  0.00    +0.000 OA
BRANCH  16  17
ATOM     17  C   UNL     1       0.481  10.782  19.563  0.00  0.00    +0.000 C 
BRANCH  17  18
ATOM     18  C   UNL     1      -0.845  10.855  18.816  0.00  0.00    +0.000 A 
ATOM     19  C   UNL     1      -1.840  11.772  19.200  0.00  0.00    +0.000 A 
ATOM     20  C   UNL     1      -3.074  11.800  18.562  0.00  0.00    +0.000 A 
ATOM     21  C   UNL     1      -3.338  10.910  17.519  0.00  0.00    +0.000 A 
ATOM     22  C   UNL     1      -2.361  10.002  17.119  0.00  0.00    +0.000 A 
ATOM     23  C   UNL     1      -1.125   9.975  17.755  0.00  0.00    +0.000 A 
ENDBRANCH  17  18
BRANCH  17  24
ATOM     24  C   UNL     1       1.239   9.495  19.241  0.00  0.00    +0.000 A 
ATOM     25  C   UNL     1       1.347   8.431  20.148  0.00  0.00    +0.000 A 
ATOM     26  C   UNL     1       2.087   7.290  19.821  0.00  0.00    +0.000 A 
ATOM     27  C   UNL     1       2.728   7.193  18.586  0.00  0.00    +0.000 A 
ATOM     28  C   UNL     1       2.622   8.231  17.668  0.00  0.00    +0.000 A 
ATOM     29  C   UNL     1       1.880   9.370  17.991  0.00  0.00    +0.000 A 
ENDBRANCH  17  24
ENDBRANCH  16  17
ENDBRANCH  14  16
ENDBRANCH   5  14
BRANCH   6  30
ATOM     30  C   UNL     1       3.548  14.107  22.035  0.00  0.00    +0.000 C 
BRANCH  30  31
ATOM     31  O   UNL     1       4.915  13.794  22.378  0.00  0.00    +0.000 OA
BRANCH  31  32
ATOM     32  C   UNL     1       5.351  14.093  23.627  0.00  0.00    +0.000 C 
ATOM     33  C   UNL     1       6.096  15.394  23.643  0.00  0.00    +0.000 C 
ATOM     34  O   UNL     1       5.181  13.398  24.618  0.00  0.00    +0.000 OA
ENDBRANCH  31  32
ENDBRANCH  30  31
ENDBRANCH   6  30
TORSDOF 9
ENDMDL
MODEL 9
REMARK VINA RESULT:      -6.3      1.715      3.832
REMARK  Name = 
REMARK  11 active torsions:
REMARK  status: ('A' for Active; 'I' for Inactive)
REMARK    1  A    between atoms: C_1  and  O_2
REMARK    2  A    between atoms: O_2  and  C_3
REMARK    3  A    between atoms: C_7  and  C_8
REMARK    4  A    between atoms: C_8  and  O_10
REMARK    5  A    between atoms: O_10  and  C_11
REMARK    6  A    between atoms: C_11  and  C_12
REMARK    7  A    between atoms: C_11  and  C_18
REMARK    8  A    between atoms: C_24  and  C_25
REMARK    9  A    between atoms: C_25  and  O_26
REMARK   10  A    between atoms: O_26  and  C_27
REMARK   11  A    between atoms: C_27  and  C_28
REMARK                            x       y       z     vdW  Elec       q    Type
REMARK                         _______ _______ _______ _____ _____    ______ ____
ROOT
ATOM      1  C   UNL     1       0.675  10.074  21.485  0.00  0.00    +0.000 C 
ATOM      2  C   UNL     1       1.168   8.663  20.964  0.00  0.00    +0.000 C 
ATOM      3  O   UNL     1       1.932   7.810  21.337  0.00  0.00    +0.000 OA
ATOM      4  N   UNL     1       0.521   8.897  19.760  0.00  0.00    +0.000 N 
ATOM      5  C   UNL     1       1.361   9.479  18.783  0.00  0.00    +0.000 C 
ATOM      6  C   UNL     1       1.297  10.802  18.454  0.00  0.00    +0.000 C 
ATOM      7  C   UNL     1       0.147  11.733  18.778  0.00  0.00    +0.000 C 
ATOM      8  S   UNL     1      -1.231  10.883  19.451  0.00  0.00    +0.000 S 
ATOM      9  O   UNL     1      -1.875  10.180  18.353  0.00  0.00    +0.000 OA
ATOM     10  O   UNL     1      -1.995  11.853  20.218  0.00  0.00    +0.000 OA
ATOM     11  C   UNL     1      -0.485   9.733  20.536  0.00  0.00    +0.000 C 
ENDROOT
BRANCH   1  13
ATOM     12  C   UNL     1      -0.849  10.420  23.316  0.00  0.00    +0.000 C 
ATOM     13  O   UNL     1       0.500  10.154  22.916  0.00  0.00    +0.000 OA
ENDBRANCH   1  13
BRANCH   5  14
ATOM     14  C   UNL     1       2.540   8.607  18.328  0.00  0.00    +0.000 C 
ATOM     15  O   UNL     1       3.392   8.951  17.527  0.00  0.00    +0.000 OA
BRANCH  14  16
ATOM     16  O   UNL     1       2.505   7.410  18.966  0.00  0.00    +0.000 OA
BRANCH  16  17
ATOM     17  C   UNL     1       2.684   6.242  18.130  0.00  0.00    +0.000 C 
BRANCH  17  18
ATOM     18  C   UNL     1       4.191   6.069  17.992  0.00  0.00    +0.000 A 
ATOM     19  C   UNL     1       4.975   5.673  19.091  0.00  0.00    +0.000 A 
ATOM     20  C   UNL     1       6.357   5.575  18.987  0.00  0.00    +0.000 A 
ATOM     21  C   UNL     1       6.986   5.867  17.776  0.00  0.00    +0.000 A 
ATOM     22  C   UNL     1       6.225   6.252  16.675  0.00  0.00    +0.000 A 
ATOM     23  C   UNL     1       4.842   6.348  16.777  0.00  0.00    +0.000 A 
ENDBRANCH  17  18
BRANCH  17  24
ATOM     24  C   UNL     1       2.020   4.979  18.679  0.00  0.00    +0.000 A 
ATOM     25  C   UNL     1       1.702   3.877  17.873  0.00  0.00    +0.000 A 
ATOM     26  C   UNL     1       1.058   2.761  18.416  0.00  0.00    +0.000 A 
ATOM     27  C   UNL     1       0.723   2.727  19.770  0.00  0.00    +0.000 A 
ATOM     28  C   UNL     1       1.041   3.804  20.588  0.00  0.00    +0.000 A 
ATOM     29  C   UNL     1       1.688   4.918  20.049  0.00  0.00    +0.000 A 
ENDBRANCH  17  24
ENDBRANCH  16  17
ENDBRANCH  14  16
ENDBRANCH   5  14
BRANCH   6  30
ATOM     30  C   UNL     1       2.442  11.580  17.831  0.00  0.00    +0.000 C 
BRANCH  30  31
ATOM     31  O   UNL     1       2.210  12.997  17.977  0.00  0.00    +0.000 OA
BRANCH  31  32
ATOM     32  C   UNL     1       3.168  13.750  18.572  0.00  0.00    +0.000 C 
ATOM     33  C   UNL     1       2.910  13.891  20.042  0.00  0.00    +0.000 C 
ATOM     34  O   UNL     1       4.117  14.266  17.998  0.00  0.00    +0.000 OA
ENDBRANCH  31  32
ENDBRANCH  30  31
ENDBRANCH   6  30
TORSDOF 9
ENDMDL
