MODEL 1
REMARK VINA RESULT:      -7.9      0.000      0.000
REMARK  Name = 
REMARK  9 active torsions:
REMARK  status: ('A' for Active; 'I' for Inactive)
REMARK    1  A    between atoms: C_1  and  C_2
REMARK    2  A    between atoms: C_2  and  C_3
REMARK    3  A    between atoms: C_2  and  N_16
REMARK    4  A    between atoms: C_3  and  C_4
REMARK    5  A    between atoms: C_9  and  C_10
REMARK    6  A    between atoms: C_10  and  C_11
REMARK    7  A    between atoms: C_11  and  O_13
REMARK    8  A    between atoms: C_17  and  C_19
REMARK    9  A    between atoms: C_22  and  C_23
REMARK                            x       y       z     vdW  Elec       q    Type
REMARK                         _______ _______ _______ _____ _____    ______ ____
ROOT
ATOM      1  C   UNL     1       8.042   5.702  19.721  0.00  0.00    +0.000 C 
ATOM      2  C   UNL     1       8.043   6.652  18.522  0.00  0.00    +0.000 C 
ENDROOT
BRANCH   2   3
ATOM      3  N   UNL     1       8.556   7.952  18.947  0.00  0.00    +0.000 N 
ATOM      4  C   UNL     1       8.433   9.091  18.183  0.00  0.00    +0.000 C 
ATOM      5  O   UNL     1       7.872   9.132  17.093  0.00  0.00    +0.000 OA
ATOM      6  H   UNL     1       9.187   7.945  19.738  0.00  0.00    +0.000 HD
BRANCH   4   7
ATOM      7  C   UNL     1       9.065  10.324  18.718  0.00  0.00    +0.000 A 
ATOM      8  C   UNL     1       9.260  10.414  20.103  0.00  0.00    +0.000 A 
ATOM      9  C   UNL     1       9.824  11.562  20.665  0.00  0.00    +0.000 A 
ATOM     10  C   UNL     1      10.218  12.621  19.840  0.00  0.00    +0.000 A 
ATOM     11  C   UNL     1      10.044  12.526  18.455  0.00  0.00    +0.000 A 
ATOM     12  C   UNL     1       9.473  11.377  17.893  0.00  0.00    +0.000 A 
BRANCH  10  13
ATOM     13  C   UNL     1      10.810  13.856  20.441  0.00  0.00    +0.000 C 
ATOM     14  N   UNL     1      10.383  14.385  21.537  0.00  0.00    +0.000 NA
ATOM     15  N   UNL     1      11.856  14.497  19.840  0.00  0.00    +0.000 N 
ATOM     16  H   UNL     1       9.569  13.888  21.914  0.00  0.00    +0.000 HD
ATOM     17  H   UNL     1      12.537  13.912  19.375  0.00  0.00    +0.000 HD
ATOM     18  H   UNL     1      12.283  15.160  20.482  0.00  0.00    +0.000 HD
ENDBRANCH  10  13
ENDBRANCH   4   7
ENDBRANCH   2   3
BRANCH   2  19
ATOM     19  C   UNL     1       6.657   6.723  17.863  0.00  0.00    +0.000 C 
BRANCH  19  20
ATOM     20  C   UNL     1       6.103   5.373  17.423  0.00  0.00    +0.000 C 
ATOM     21  O   UNL     1       6.660   4.695  16.558  0.00  0.00    +0.000 OA
ATOM     22  N   UNL     1       4.970   4.923  18.105  0.00  0.00    +0.000 N 
ATOM     23  C   UNL     1       4.488   3.563  17.859  0.00  0.00    +0.000 C 
ATOM     24  C   UNL     1       3.176   3.601  17.077  0.00  0.00    +0.000 C 
ATOM     25  C   UNL     1       2.108   4.455  17.787  0.00  0.00    +0.000 C 
ATOM     26  C   UNL     1       2.696   5.856  18.064  0.00  0.00    +0.000 C 
ATOM     27  C   UNL     1       4.033   5.799  18.811  0.00  0.00    +0.000 C 
BRANCH  25  28
ATOM     28  C   UNL     1       1.572   3.822  19.082  0.00  0.00    +0.000 C 
BRANCH  28  29
ATOM     29  C   UNL     1       1.111   2.398  18.898  0.00  0.00    +0.000 C 
ATOM     30  O   UNL     1       0.037   2.091  18.399  0.00  0.00    +0.000 OA
BRANCH  29  31
ATOM     31  O   UNL     1       1.990   1.482  19.354  0.00  0.00    +0.000 OA
ATOM     32  H   UNL     1       2.300   0.853  18.677  0.00  0.00    +0.000 HD
ENDBRANCH  29  31
ENDBRANCH  28  29
ENDBRANCH  25  28
ENDBRANCH  19  20
ENDBRANCH   2  19
TORSDOF 8
ENDMDL
MODEL 2
REMARK VINA RESULT:      -7.9      5.242      7.169
REMARK  Name = 
REMARK  9 active torsions:
REMARK  status: ('A' for Active; 'I' for Inactive)
REMARK    1  A    between atoms: C_1  and  C_2
REMARK    2  A    between atoms: C_2  and  C_3
REMARK    3  A    between atoms: C_2  and  N_16
REMARK    4  A    between atoms: C_3  and  C_4
REMARK    5  A    between atoms: C_9  and  C_10
REMARK    6  A    between atoms: C_10  and  C_11
REMARK    7  A    between atoms: C_11  and  O_13
REMARK    8  A    between atoms: C_17  and  C_19
REMARK    9  A    between atoms: C_22  and  C_23
REMARK                            x       y       z     vdW  Elec       q    Type
REMARK                         _______ _______ _______ _____ _____    ______ ____
ROOT
ATOM      1  C   UNL     1       2.022   2.805  18.316  0.00  0.00    +0.000 C 
ATOM      2  C   UNL     1       2.826   3.623  19.330  0.00  0.00    +0.000 C 
ENDROOT
BRANCH   2   3
ATOM      3  N   UNL     1       2.667   5.042  19.027  0.00  0.00    +0.000 N 
ATOM      4  C   UNL     1       2.169   5.950  19.936  0.00  0.00    +0.000 C 
ATOM      5  O   UNL     1       1.833   5.664  21.080  0.00  0.00    +0.000 OA
ATOM      6  H   UNL     1       2.747   5.302  18.053  0.00  0.00    +0.000 HD
BRANCH   4   7
ATOM      7  C   UNL     1       2.002   7.347  19.460  0.00  0.00    +0.000 A 
ATOM      8  C   UNL     1       1.403   8.269  20.330  0.00  0.00    +0.000 A 
ATOM      9  C   UNL     1       1.195   9.590  19.925  0.00  0.00    +0.000 A 
ATOM     10  C   UNL     1       1.606  10.003  18.653  0.00  0.00    +0.000 A 
ATOM     11  C   UNL     1       2.223   9.090  17.791  0.00  0.00    +0.000 A 
ATOM     12  C   UNL     1       2.427   7.764  18.195  0.00  0.00    +0.000 A 
BRANCH  10  13
ATOM     13  C   UNL     1       1.373  11.413  18.214  0.00  0.00    +0.000 C 
ATOM     14  N   UNL     1       2.284  12.144  17.667  0.00  0.00    +0.000 NA
ATOM     15  N   UNL     1       0.154  12.007  18.376  0.00  0.00    +0.000 N 
ATOM     16  H   UNL     1       3.187  11.661  17.615  0.00  0.00    +0.000 HD
ATOM     17  H   UNL     1      -0.657  11.413  18.263  0.00  0.00    +0.000 HD
ATOM     18  H   UNL     1       0.096  12.858  17.823  0.00  0.00    +0.000 HD
ENDBRANCH  10  13
ENDBRANCH   4   7
ENDBRANCH   2   3
BRANCH   2  19
ATOM     19  C   UNL     1       4.292   3.164  19.381  0.00  0.00    +0.000 C 
BRANCH  19  20
ATOM     20  C   UNL     1       5.299   4.247  19.014  0.00  0.00    +0.000 C 
ATOM     21  O   UNL     1       5.607   5.139  19.806  0.00  0.00    +0.000 OA
ATOM     22  N   UNL     1       5.899   4.128  17.759  0.00  0.00    +0.000 N 
ATOM     23  C   UNL     1       6.999   5.027  17.410  0.00  0.00    +0.000 C 
ATOM     24  C   UNL     1       6.546   6.032  16.353  0.00  0.00    +0.000 C 
ATOM     25  C   UNL     1       5.975   5.334  15.103  0.00  0.00    +0.000 C 
ATOM     26  C   UNL     1       4.858   4.363  15.543  0.00  0.00    +0.000 C 
ATOM     27  C   UNL     1       5.317   3.390  16.636  0.00  0.00    +0.000 C 
BRANCH  25  28
ATOM     28  C   UNL     1       7.037   4.600  14.266  0.00  0.00    +0.000 C 
BRANCH  28  29
ATOM     29  C   UNL     1       6.515   4.123  12.935  0.00  0.00    +0.000 C 
ATOM     30  O   UNL     1       5.449   3.540  12.792  0.00  0.00    +0.000 OA
BRANCH  29  31
ATOM     31  O   UNL     1       7.346   4.382  11.904  0.00  0.00    +0.000 OA
ATOM     32  H   UNL     1       7.647   3.589  11.423  0.00  0.00    +0.000 HD
ENDBRANCH  29  31
ENDBRANCH  28  29
ENDBRANCH  25  28
ENDBRANCH  19  20
ENDBRANCH   2  19
TORSDOF 8
ENDMDL
MODEL 3
REMARK VINA RESULT:      -7.8      5.215      7.174
REMARK  Name = 
REMARK  9 active torsions:
REMARK  status: ('A' for Active; 'I' for Inactive)
REMARK    1  A    between atoms: C_1  and  C_2
REMARK    2  A    between atoms: C_2  and  C_3
REMARK    3  A    between atoms: C_2  and  N_16
REMARK    4  A    between atoms: C_3  and  C_4
REMARK    5  A    between atoms: C_9  and  C_10
REMARK    6  A    between atoms: C_10  and  C_11
REMARK    7  A    between atoms: C_11  and  O_13
REMARK    8  A    between atoms: C_17  and  C_19
REMARK    9  A    between atoms: C_22  and  C_23
REMARK                            x       y       z     vdW  Elec       q    Type
REMARK                         _______ _______ _______ _____ _____    ______ ____
ROOT
ATOM      1  C   UNL     1       2.025   3.076  18.081  0.00  0.00    +0.000 C 
ATOM      2  C   UNL     1       2.681   3.827  19.242  0.00  0.00    +0.000 C 
ENDROOT
BRANCH   2   3
ATOM      3  N   UNL     1       2.513   5.262  19.034  0.00  0.00    +0.000 N 
ATOM      4  C   UNL     1       2.040   6.110  20.012  0.00  0.00    +0.000 C 
ATOM      5  O   UNL     1       1.737   5.752  21.144  0.00  0.00    +0.000 OA
ATOM      6  H   UNL     1       2.565   5.583  18.076  0.00  0.00    +0.000 HD
BRANCH   4   7
ATOM      7  C   UNL     1       1.859   7.533  19.629  0.00  0.00    +0.000 A 
ATOM      8  C   UNL     1       2.289   7.932  18.356  0.00  0.00    +0.000 A 
ATOM      9  C   UNL     1       2.170   9.264  17.953  0.00  0.00    +0.000 A 
ATOM     10  C   UNL     1       1.596  10.205  18.816  0.00  0.00    +0.000 A 
ATOM     11  C   UNL     1       1.147   9.806  20.080  0.00  0.00    +0.000 A 
ATOM     12  C   UNL     1       1.272   8.471  20.485  0.00  0.00    +0.000 A 
BRANCH  10  13
ATOM     13  C   UNL     1       1.479  11.633  18.392  0.00  0.00    +0.000 C 
ATOM     14  N   UNL     1       0.533  12.414  18.790  0.00  0.00    +0.000 NA
ATOM     15  N   UNL     1       2.390  12.191  17.541  0.00  0.00    +0.000 N 
ATOM     16  H   UNL     1      -0.144  11.928  19.387  0.00  0.00    +0.000 HD
ATOM     17  H   UNL     1       3.347  11.879  17.637  0.00  0.00    +0.000 HD
ATOM     18  H   UNL     1       2.306  13.204  17.543  0.00  0.00    +0.000 HD
ENDBRANCH  10  13
ENDBRANCH   4   7
ENDBRANCH   2   3
BRANCH   2  19
ATOM     19  C   UNL     1       4.146   3.399  19.428  0.00  0.00    +0.000 C 
BRANCH  19  20
ATOM     20  C   UNL     1       5.163   4.463  19.035  0.00  0.00    +0.000 C 
ATOM     21  O   UNL     1       5.434   5.406  19.779  0.00  0.00    +0.000 OA
ATOM     22  N   UNL     1       5.815   4.267  17.815  0.00  0.00    +0.000 N 
ATOM     23  C   UNL     1       6.926   5.149  17.455  0.00  0.00    +0.000 C 
ATOM     24  C   UNL     1       6.513   6.081  16.317  0.00  0.00    +0.000 C 
ATOM     25  C   UNL     1       5.998   5.299  15.093  0.00  0.00    +0.000 C 
ATOM     26  C   UNL     1       4.867   4.351  15.548  0.00  0.00    +0.000 C 
ATOM     27  C   UNL     1       5.284   3.454  16.719  0.00  0.00    +0.000 C 
BRANCH  25  28
ATOM     28  C   UNL     1       7.097   4.520  14.350  0.00  0.00    +0.000 C 
BRANCH  28  29
ATOM     29  C   UNL     1       6.700   4.126  12.950  0.00  0.00    +0.000 C 
ATOM     30  O   UNL     1       5.821   3.313  12.696  0.00  0.00    +0.000 OA
BRANCH  29  31
ATOM     31  O   UNL     1       7.420   4.741  11.990  0.00  0.00    +0.000 OA
ATOM     32  H   UNL     1       6.946   5.460  11.532  0.00  0.00    +0.000 HD
ENDBRANCH  29  31
ENDBRANCH  28  29
ENDBRANCH  25  28
ENDBRANCH  19  20
ENDBRANCH   2  19
TORSDOF 8
ENDMDL
MODEL 4
REMARK VINA RESULT:      -7.7      5.104      7.380
REMARK  Name = 
REMARK  9 active torsions:
REMARK  status: ('A' for Active; 'I' for Inactive)
REMARK    1  A    between atoms: C_1  and  C_2
REMARK    2  A    between atoms: C_2  and  C_3
REMARK    3  A    between atoms: C_2  and  N_16
REMARK    4  A    between atoms: C_3  and  C_4
REMARK    5  A    between atoms: C_9  and  C_10
REMARK    6  A    between atoms: C_10  and  C_11
REMARK    7  A    between atoms: C_11  and  O_13
REMARK    8  A    between atoms: C_17  and  C_19
REMARK    9  A    between atoms: C_22  and  C_23
REMARK                            x       y       z     vdW  Elec       q    Type
REMARK                         _______ _______ _______ _____ _____    ______ ____
ROOT
ATOM      1  C   UNL     1       2.542   2.922  17.540  0.00  0.00    +0.000 C 
ATOM      2  C   UNL     1       3.047   3.595  18.819  0.00  0.00    +0.000 C 
ENDROOT
BRANCH   2   3
ATOM      3  N   UNL     1       2.811   5.032  18.724  0.00  0.00    +0.000 N 
ATOM      4  C   UNL     1       2.193   5.757  19.719  0.00  0.00    +0.000 C 
ATOM      5  O   UNL     1       1.802   5.278  20.777  0.00  0.00    +0.000 OA
ATOM      6  H   UNL     1       2.937   5.445  17.808  0.00  0.00    +0.000 HD
BRANCH   4   7
ATOM      7  C   UNL     1       1.962   7.199  19.448  0.00  0.00    +0.000 A 
ATOM      8  C   UNL     1       1.439   7.986  20.484  0.00  0.00    +0.000 A 
ATOM      9  C   UNL     1       1.175   9.342  20.278  0.00  0.00    +0.000 A 
ATOM     10  C   UNL     1       1.455   9.927  19.038  0.00  0.00    +0.000 A 
ATOM     11  C   UNL     1       1.996   9.148  18.009  0.00  0.00    +0.000 A 
ATOM     12  C   UNL     1       2.255   7.788  18.214  0.00  0.00    +0.000 A 
BRANCH  10  13
ATOM     13  C   UNL     1       1.161  11.375  18.811  0.00  0.00    +0.000 C 
ATOM     14  N   UNL     1       0.165  11.989  19.353  0.00  0.00    +0.000 NA
ATOM     15  N   UNL     1       1.955  12.134  17.998  0.00  0.00    +0.000 N 
ATOM     16  H   UNL     1      -0.420  11.358  19.912  0.00  0.00    +0.000 HD
ATOM     17  H   UNL     1       2.943  11.922  18.008  0.00  0.00    +0.000 HD
ATOM     18  H   UNL     1       1.765  13.123  18.138  0.00  0.00    +0.000 HD
ENDBRANCH  10  13
ENDBRANCH   4   7
ENDBRANCH   2   3
BRANCH   2  19
ATOM     19  C   UNL     1       4.512   3.228  19.103  0.00  0.00    +0.000 C 
BRANCH  19  20
ATOM     20  C   UNL     1       5.502   4.356  18.839  0.00  0.00    +0.000 C 
ATOM     21  O   UNL     1       5.700   5.250  19.664  0.00  0.00    +0.000 OA
ATOM     22  N   UNL     1       6.214   4.279  17.640  0.00  0.00    +0.000 N 
ATOM     23  C   UNL     1       7.303   5.227  17.400  0.00  0.00    +0.000 C 
ATOM     24  C   UNL     1       6.903   6.227  16.316  0.00  0.00    +0.000 C 
ATOM     25  C   UNL     1       6.475   5.524  15.014  0.00  0.00    +0.000 C 
ATOM     26  C   UNL     1       5.365   4.501  15.344  0.00  0.00    +0.000 C 
ATOM     27  C   UNL     1       5.766   3.534  16.463  0.00  0.00    +0.000 C 
BRANCH  25  28
ATOM     28  C   UNL     1       7.637   4.845  14.268  0.00  0.00    +0.000 C 
BRANCH  28  29
ATOM     29  C   UNL     1       7.609   5.093  12.781  0.00  0.00    +0.000 C 
ATOM     30  O   UNL     1       8.118   6.068  12.244  0.00  0.00    +0.000 OA
BRANCH  29  31
ATOM     31  O   UNL     1       6.951   4.142  12.087  0.00  0.00    +0.000 OA
ATOM     32  H   UNL     1       7.528   3.561  11.556  0.00  0.00    +0.000 HD
ENDBRANCH  29  31
ENDBRANCH  28  29
ENDBRANCH  25  28
ENDBRANCH  19  20
ENDBRANCH   2  19
TORSDOF 8
ENDMDL
MODEL 5
REMARK VINA RESULT:      -7.5      5.839      7.364
REMARK  Name = 
REMARK  9 active torsions:
REMARK  status: ('A' for Active; 'I' for Inactive)
REMARK    1  A    between atoms: C_1  and  C_2
REMARK    2  A    between atoms: C_2  and  C_3
REMARK    3  A    between atoms: C_2  and  N_16
REMARK    4  A    between atoms: C_3  and  C_4
REMARK    5  A    between atoms: C_9  and  C_10
REMARK    6  A    between atoms: C_10  and  C_11
REMARK    7  A    between atoms: C_11  and  O_13
REMARK    8  A    between atoms: C_17  and  C_19
REMARK    9  A    between atoms: C_22  and  C_23
REMARK                            x       y       z     vdW  Elec       q    Type
REMARK                         _______ _______ _______ _____ _____    ______ ____
ROOT
ATOM      1  C   UNL     1       1.494   3.277  21.656  0.00  0.00    +0.000 C 
ATOM      2  C   UNL     1       2.423   3.917  20.620  0.00  0.00    +0.000 C 
ENDROOT
BRANCH   2   3
ATOM      3  N   UNL     1       1.897   5.230  20.258  0.00  0.00    +0.000 N 
ATOM      4  C   UNL     1       2.705   6.291  19.914  0.00  0.00    +0.000 C 
ATOM      5  O   UNL     1       3.929   6.234  19.859  0.00  0.00    +0.000 OA
ATOM      6  H   UNL     1       0.920   5.391  20.466  0.00  0.00    +0.000 HD
BRANCH   4   7
ATOM      7  C   UNL     1       2.028   7.583  19.637  0.00  0.00    +0.000 A 
ATOM      8  C   UNL     1       1.332   8.198  20.687  0.00  0.00    +0.000 A 
ATOM      9  C   UNL     1       0.652   9.400  20.476  0.00  0.00    +0.000 A 
ATOM     10  C   UNL     1       0.683  10.008  19.216  0.00  0.00    +0.000 A 
ATOM     11  C   UNL     1       1.395   9.406  18.172  0.00  0.00    +0.000 A 
ATOM     12  C   UNL     1       2.071   8.199  18.382  0.00  0.00    +0.000 A 
BRANCH  10  13
ATOM     13  C   UNL     1      -0.054  11.288  18.985  0.00  0.00    +0.000 C 
ATOM     14  N   UNL     1       0.396  12.239  18.239  0.00  0.00    +0.000 NA
ATOM     15  N   UNL     1      -1.268  11.515  19.569  0.00  0.00    +0.000 N 
ATOM     16  H   UNL     1       1.329  12.031  17.868  0.00  0.00    +0.000 HD
ATOM     17  H   UNL     1      -1.877  10.714  19.668  0.00  0.00    +0.000 HD
ATOM     18  H   UNL     1      -1.730  12.307  19.131  0.00  0.00    +0.000 HD
ENDBRANCH  10  13
ENDBRANCH   4   7
ENDBRANCH   2   3
BRANCH   2  19
ATOM     19  C   UNL     1       2.642   2.987  19.416  0.00  0.00    +0.000 C 
BRANCH  19  20
ATOM     20  C   UNL     1       4.088   2.907  18.942  0.00  0.00    +0.000 C 
ATOM     21  O   UNL     1       4.969   2.397  19.636  0.00  0.00    +0.000 OA
ATOM     22  N   UNL     1       4.339   3.386  17.655  0.00  0.00    +0.000 N 
ATOM     23  C   UNL     1       5.664   3.182  17.068  0.00  0.00    +0.000 C 
ATOM     24  C   UNL     1       6.413   4.510  16.980  0.00  0.00    +0.000 C 
ATOM     25  C   UNL     1       5.612   5.572  16.201  0.00  0.00    +0.000 C 
ATOM     26  C   UNL     1       4.209   5.700  16.835  0.00  0.00    +0.000 C 
ATOM     27  C   UNL     1       3.490   4.352  16.956  0.00  0.00    +0.000 C 
BRANCH  25  28
ATOM     28  C   UNL     1       5.505   5.281  14.694  0.00  0.00    +0.000 C 
BRANCH  28  29
ATOM     29  C   UNL     1       6.799   4.794  14.092  0.00  0.00    +0.000 C 
ATOM     30  O   UNL     1       7.820   5.467  14.041  0.00  0.00    +0.000 OA
BRANCH  29  31
ATOM     31  O   UNL     1       6.726   3.544  13.593  0.00  0.00    +0.000 OA
ATOM     32  H   UNL     1       6.793   2.840  14.264  0.00  0.00    +0.000 HD
ENDBRANCH  29  31
ENDBRANCH  28  29
ENDBRANCH  25  28
ENDBRANCH  19  20
ENDBRANCH   2  19
TORSDOF 8
ENDMDL
MODEL 6
REMARK VINA RESULT:      -7.5      5.091      7.276
REMARK  Name = 
REMARK  9 active torsions:
REMARK  status: ('A' for Active; 'I' for Inactive)
REMARK    1  A    between atoms: C_1  and  C_2
REMARK    2  A    between atoms: C_2  and  C_3
REMARK    3  A    between atoms: C_2  and  N_16
REMARK    4  A    between atoms: C_3  and  C_4
REMARK    5  A    between atoms: C_9  and  C_10
REMARK    6  A    between atoms: C_10  and  C_11
REMARK    7  A    between atoms: C_11  and  O_13
REMARK    8  A    between atoms: C_17  and  C_19
REMARK    9  A    between atoms: C_22  and  C_23
REMARK                            x       y       z     vdW  Elec       q    Type
REMARK                         _______ _______ _______ _____ _____    ______ ____
ROOT
ATOM      1  C   UNL     1       1.721   3.421  20.529  0.00  0.00    +0.000 C 
ATOM      2  C   UNL     1       2.997   4.249  20.357  0.00  0.00    +0.000 C 
ENDROOT
BRANCH   2   3
ATOM      3  N   UNL     1       2.633   5.656  20.214  0.00  0.00    +0.000 N 
ATOM      4  C   UNL     1       2.179   6.195  19.030  0.00  0.00    +0.000 C 
ATOM      5  O   UNL     1       2.019   5.552  17.998  0.00  0.00    +0.000 OA
ATOM      6  H   UNL     1       2.919   6.269  20.966  0.00  0.00    +0.000 HD
BRANCH   4   7
ATOM      7  C   UNL     1       1.914   7.656  19.021  0.00  0.00    +0.000 A 
ATOM      8  C   UNL     1       2.134   8.357  17.827  0.00  0.00    +0.000 A 
ATOM      9  C   UNL     1       1.928   9.737  17.768  0.00  0.00    +0.000 A 
ATOM     10  C   UNL     1       1.477  10.424  18.901  0.00  0.00    +0.000 A 
ATOM     11  C   UNL     1       1.237   9.724  20.088  0.00  0.00    +0.000 A 
ATOM     12  C   UNL     1       1.449   8.341  20.148  0.00  0.00    +0.000 A 
BRANCH  10  13
ATOM     13  C   UNL     1       1.268  11.903  18.843  0.00  0.00    +0.000 C 
ATOM     14  N   UNL     1       0.164  12.476  19.185  0.00  0.00    +0.000 NA
ATOM     15  N   UNL     1       2.261  12.737  18.414  0.00  0.00    +0.000 N 
ATOM     16  H   UNL     1      -0.556  11.797  19.453  0.00  0.00    +0.000 HD
ATOM     17  H   UNL     1       3.207  12.476  18.657  0.00  0.00    +0.000 HD
ATOM     18  H   UNL     1       2.047  13.701  18.656  0.00  0.00    +0.000 HD
ENDBRANCH  10  13
ENDBRANCH   4   7
ENDBRANCH   2   3
BRANCH   2  19
ATOM     19  C   UNL     1       3.858   3.715  19.202  0.00  0.00    +0.000 C 
BRANCH  19  20
ATOM     20  C   UNL     1       5.134   4.510  18.953  0.00  0.00    +0.000 C 
ATOM     21  O   UNL     1       5.589   5.284  19.796  0.00  0.00    +0.000 OA
ATOM     22  N   UNL     1       5.787   4.260  17.744  0.00  0.00    +0.000 N 
ATOM     23  C   UNL     1       7.104   4.854  17.513  0.00  0.00    +0.000 C 
ATOM     24  C   UNL     1       7.010   5.956  16.459  0.00  0.00    +0.000 C 
ATOM     25  C   UNL     1       6.388   5.444  15.146  0.00  0.00    +0.000 C 
ATOM     26  C   UNL     1       5.029   4.783  15.464  0.00  0.00    +0.000 C 
ATOM     27  C   UNL     1       5.134   3.710  16.554  0.00  0.00    +0.000 C 
BRANCH  25  28
ATOM     28  C   UNL     1       7.297   4.476  14.369  0.00  0.00    +0.000 C 
BRANCH  28  29
ATOM     29  C   UNL     1       7.751   5.028  13.042  0.00  0.00    +0.000 C 
ATOM     30  O   UNL     1       7.374   4.595  11.961  0.00  0.00    +0.000 OA
BRANCH  29  31
ATOM     31  O   UNL     1       8.635   6.040  13.152  0.00  0.00    +0.000 OA
ATOM     32  H   UNL     1       8.617   6.496  14.014  0.00  0.00    +0.000 HD
ENDBRANCH  29  31
ENDBRANCH  28  29
ENDBRANCH  25  28
ENDBRANCH  19  20
ENDBRANCH   2  19
TORSDOF 8
ENDMDL
MODEL 7
REMARK VINA RESULT:      -7.5      4.299      6.203
REMARK  Name = 
REMARK  9 active torsions:
REMARK  status: ('A' for Active; 'I' for Inactive)
REMARK    1  A    between atoms: C_1  and  C_2
REMARK    2  A    between atoms: C_2  and  C_3
REMARK    3  A    between atoms: C_2  and  N_16
REMARK    4  A    between atoms: C_3  and  C_4
REMARK    5  A    between atoms: C_9  and  C_10
REMARK    6  A    between atoms: C_10  and  C_11
REMARK    7  A    between atoms: C_11  and  O_13
REMARK    8  A    between atoms: C_17  and  C_19
REMARK    9  A    between atoms: C_22  and  C_23
REMARK                            x       y       z     vdW  Elec       q    Type
REMARK                         _______ _______ _______ _____ _____    ______ ____
ROOT
ATOM      1  C   UNL     1       7.591   7.440  17.489  0.00  0.00    +0.000 C 
ATOM      2  C   UNL     1       6.361   6.640  17.053  0.00  0.00    +0.000 C 
ENDROOT
BRANCH   2   3
ATOM      3  N   UNL     1       5.208   7.081  17.832  0.00  0.00    +0.000 N 
ATOM      4  C   UNL     1       4.020   7.472  17.255  0.00  0.00    +0.000 C 
ATOM      5  O   UNL     1       3.809   7.469  16.047  0.00  0.00    +0.000 OA
ATOM      6  H   UNL     1       5.380   7.284  18.808  0.00  0.00    +0.000 HD
BRANCH   4   7
ATOM      7  C   UNL     1       2.960   7.960  18.174  0.00  0.00    +0.000 A 
ATOM      8  C   UNL     1       2.158   9.027  17.744  0.00  0.00    +0.000 A 
ATOM      9  C   UNL     1       1.165   9.545  18.577  0.00  0.00    +0.000 A 
ATOM     10  C   UNL     1       0.951   8.984  19.841  0.00  0.00    +0.000 A 
ATOM     11  C   UNL     1       1.736   7.905  20.264  0.00  0.00    +0.000 A 
ATOM     12  C   UNL     1       2.736   7.389  19.431  0.00  0.00    +0.000 A 
BRANCH  10  13
ATOM     13  C   UNL     1      -0.103   9.546  20.740  0.00  0.00    +0.000 C 
ATOM     14  N   UNL     1      -0.671  10.686  20.538  0.00  0.00    +0.000 NA
ATOM     15  N   UNL     1      -0.522   8.861  21.845  0.00  0.00    +0.000 N 
ATOM     16  H   UNL     1      -0.283  11.173  19.724  0.00  0.00    +0.000 HD
ATOM     17  H   UNL     1      -0.561   7.854  21.764  0.00  0.00    +0.000 HD
ATOM     18  H   UNL     1      -1.387   9.258  22.203  0.00  0.00    +0.000 HD
ENDBRANCH  10  13
ENDBRANCH   4   7
ENDBRANCH   2   3
BRANCH   2  19
ATOM     19  C   UNL     1       6.620   5.127  17.138  0.00  0.00    +0.000 C 
BRANCH  19  20
ATOM     20  C   UNL     1       5.484   4.268  16.596  0.00  0.00    +0.000 C 
ATOM     21  O   UNL     1       5.256   4.183  15.389  0.00  0.00    +0.000 OA
ATOM     22  N   UNL     1       4.765   3.534  17.542  0.00  0.00    +0.000 N 
ATOM     23  C   UNL     1       3.779   2.556  17.082  0.00  0.00    +0.000 C 
ATOM     24  C   UNL     1       2.365   3.050  17.380  0.00  0.00    +0.000 C 
ATOM     25  C   UNL     1       2.174   3.378  18.874  0.00  0.00    +0.000 C 
ATOM     26  C   UNL     1       3.274   4.370  19.310  0.00  0.00    +0.000 C 
ATOM     27  C   UNL     1       4.684   3.878  18.963  0.00  0.00    +0.000 C 
BRANCH  25  28
ATOM     28  C   UNL     1       2.168   2.136  19.782  0.00  0.00    +0.000 C 
BRANCH  28  29
ATOM     29  C   UNL     1       1.961   2.470  21.238  0.00  0.00    +0.000 C 
ATOM     30  O   UNL     1       2.829   2.351  22.093  0.00  0.00    +0.000 OA
BRANCH  29  31
ATOM     31  O   UNL     1       0.715   2.899  21.523  0.00  0.00    +0.000 OA
ATOM     32  H   UNL     1       0.241   3.287  20.763  0.00  0.00    +0.000 HD
ENDBRANCH  29  31
ENDBRANCH  28  29
ENDBRANCH  25  28
ENDBRANCH  19  20
ENDBRANCH   2  19
TORSDOF 8
ENDMDL
MODEL 8
REMARK VINA RESULT:      -7.4      7.441     10.037
REMARK  Name = 
REMARK  9 active torsions:
REMARK  status: ('A' for Active; 'I' for Inactive)
REMARK    1  A    between atoms: C_1  and  C_2
REMARK    2  A    between atoms: C_2  and  C_3
REMARK    3  A    between atoms: C_2  and  N_16
REMARK    4  A    between atoms: C_3  and  C_4
REMARK    5  A    between atoms: C_9  and  C_10
REMARK    6  A    between atoms: C_10  and  C_11
REMARK    7  A    between atoms: C_11  and  O_13
REMARK    8  A    between atoms: C_17  and  C_19
REMARK    9  A    between atoms: C_22  and  C_23
REMARK                            x       y       z     vdW  Elec       q    Type
REMARK                         _______ _______ _______ _____ _____    ______ ____
ROOT
ATOM      1  C   UNL     1      -0.253   8.492  21.752  0.00  0.00    +0.000 C 
ATOM      2  C   UNL     1       0.427   9.187  20.570  0.00  0.00    +0.000 C 
ENDROOT
BRANCH   2   3
ATOM      3  N   UNL     1       1.501   8.332  20.072  0.00  0.00    +0.000 N 
ATOM      4  C   UNL     1       1.885   8.306  18.749  0.00  0.00    +0.000 C 
ATOM      5  O   UNL     1       1.382   9.003  17.874  0.00  0.00    +0.000 OA
ATOM      6  H   UNL     1       1.821   7.607  20.700  0.00  0.00    +0.000 HD
BRANCH   4   7
ATOM      7  C   UNL     1       2.947   7.336  18.381  0.00  0.00    +0.000 A 
ATOM      8  C   UNL     1       3.098   6.193  19.180  0.00  0.00    +0.000 A 
ATOM      9  C   UNL     1       4.099   5.261  18.898  0.00  0.00    +0.000 A 
ATOM     10  C   UNL     1       4.943   5.454  17.800  0.00  0.00    +0.000 A 
ATOM     11  C   UNL     1       4.782   6.583  16.989  0.00  0.00    +0.000 A 
ATOM     12  C   UNL     1       3.782   7.520  17.275  0.00  0.00    +0.000 A 
BRANCH  10  13
ATOM     13  C   UNL     1       6.023   4.464  17.504  0.00  0.00    +0.000 C 
ATOM     14  N   UNL     1       7.081   4.332  18.230  0.00  0.00    +0.000 NA
ATOM     15  N   UNL     1       5.938   3.632  16.423  0.00  0.00    +0.000 N 
ATOM     16  H   UNL     1       7.112   5.013  18.996  0.00  0.00    +0.000 HD
ATOM     17  H   UNL     1       5.013   3.301  16.181  0.00  0.00    +0.000 HD
ATOM     18  H   UNL     1       6.616   2.879  16.499  0.00  0.00    +0.000 HD
ENDBRANCH  10  13
ENDBRANCH   4   7
ENDBRANCH   2   3
BRANCH   2  19
ATOM     19  C   UNL     1       0.890  10.603  20.945  0.00  0.00    +0.000 C 
BRANCH  19  20
ATOM     20  C   UNL     1       0.048  11.718  20.336  0.00  0.00    +0.000 C 
ATOM     21  O   UNL     1       0.376  12.278  19.288  0.00  0.00    +0.000 OA
ATOM     22  N   UNL     1      -1.144  12.019  20.997  0.00  0.00    +0.000 N 
ATOM     23  C   UNL     1      -2.084  12.953  20.377  0.00  0.00    +0.000 C 
ATOM     24  C   UNL     1      -2.108  14.270  21.149  0.00  0.00    +0.000 C 
ATOM     25  C   UNL     1      -2.432  14.056  22.641  0.00  0.00    +0.000 C 
ATOM     26  C   UNL     1      -1.442  13.024  23.222  0.00  0.00    +0.000 C 
ATOM     27  C   UNL     1      -1.398  11.725  22.409  0.00  0.00    +0.000 C 
BRANCH  25  28
ATOM     28  C   UNL     1      -3.886  13.624  22.900  0.00  0.00    +0.000 C 
BRANCH  28  29
ATOM     29  C   UNL     1      -4.125  13.174  24.320  0.00  0.00    +0.000 C 
ATOM     30  O   UNL     1      -4.475  12.042  24.625  0.00  0.00    +0.000 OA
BRANCH  29  31
ATOM     31  O   UNL     1      -3.932  14.147  25.234  0.00  0.00    +0.000 OA
ATOM     32  H   UNL     1      -3.208  13.969  25.862  0.00  0.00    +0.000 HD
ENDBRANCH  29  31
ENDBRANCH  28  29
ENDBRANCH  25  28
ENDBRANCH  19  20
ENDBRANCH   2  19
TORSDOF 8
ENDMDL
MODEL 9
REMARK VINA RESULT:      -7.3      7.219     10.401
REMARK  Name = 
REMARK  9 active torsions:
REMARK  status: ('A' for Active; 'I' for Inactive)
REMARK    1  A    between atoms: C_1  and  C_2
REMARK    2  A    between atoms: C_2  and  C_3
REMARK    3  A    between atoms: C_2  and  N_16
REMARK    4  A    between atoms: C_3  and  C_4
REMARK    5  A    between atoms: C_9  and  C_10
REMARK    6  A    between atoms: C_10  and  C_11
REMARK    7  A    between atoms: C_11  and  O_13
REMARK    8  A    between atoms: C_17  and  C_19
REMARK    9  A    between atoms: C_22  and  C_23
REMARK                            x       y       z     vdW  Elec       q    Type
REMARK                         _______ _______ _______ _____ _____    ______ ____
ROOT
ATOM      1  C   UNL     1      -0.176   9.802  17.980  0.00  0.00    +0.000 C 
ATOM      2  C   UNL     1       1.159   9.870  18.724  0.00  0.00    +0.000 C 
ENDROOT
BRANCH   2   3
ATOM      3  N   UNL     1       1.692   8.518  18.866  0.00  0.00    +0.000 N 
ATOM      4  C   UNL     1       2.618   7.983  17.997  0.00  0.00    +0.000 C 
ATOM      5  O   UNL     1       3.096   8.588  17.044  0.00  0.00    +0.000 OA
ATOM      6  H   UNL     1       1.203   7.911  19.512  0.00  0.00    +0.000 HD
BRANCH   4   7
ATOM      7  C   UNL     1       3.015   6.571  18.231  0.00  0.00    +0.000 A 
ATOM      8  C   UNL     1       2.544   5.940  19.391  0.00  0.00    +0.000 A 
ATOM      9  C   UNL     1       2.908   4.622  19.677  0.00  0.00    +0.000 A 
ATOM     10  C   UNL     1       3.730   3.917  18.791  0.00  0.00    +0.000 A 
ATOM     11  C   UNL     1       4.184   4.538  17.622  0.00  0.00    +0.000 A 
ATOM     12  C   UNL     1       3.824   5.861  17.338  0.00  0.00    +0.000 A 
BRANCH  10  13
ATOM     13  C   UNL     1       4.131   2.511  19.101  0.00  0.00    +0.000 C 
ATOM     14  N   UNL     1       4.791   2.180  20.158  0.00  0.00    +0.000 NA
ATOM     15  N   UNL     1       3.809   1.487  18.257  0.00  0.00    +0.000 N 
ATOM     16  H   UNL     1       5.044   2.995  20.727  0.00  0.00    +0.000 HD
ATOM     17  H   UNL     1       2.917   1.554  17.785  0.00  0.00    +0.000 HD
ATOM     18  H   UNL     1       3.941   0.591  18.719  0.00  0.00    +0.000 HD
ENDBRANCH  10  13
ENDBRANCH   4   7
ENDBRANCH   2   3
BRANCH   2  19
ATOM     19  C   UNL     1       1.019  10.620  20.058  0.00  0.00    +0.000 C 
BRANCH  19  20
ATOM     20  C   UNL     1       0.325  11.971  19.946  0.00  0.00    +0.000 C 
ATOM     21  O   UNL     1       0.775  12.873  19.237  0.00  0.00    +0.000 OA
ATOM     22  N   UNL     1      -0.881  12.102  20.638  0.00  0.00    +0.000 N 
ATOM     23  C   UNL     1      -1.689  13.305  20.437  0.00  0.00    +0.000 C 
ATOM     24  C   UNL     1      -1.653  14.182  21.687  0.00  0.00    +0.000 C 
ATOM     25  C   UNL     1      -2.101  13.409  22.943  0.00  0.00    +0.000 C 
ATOM     26  C   UNL     1      -1.249  12.127  23.069  0.00  0.00    +0.000 C 
ATOM     27  C   UNL     1      -1.261  11.282  21.790  0.00  0.00    +0.000 C 
BRANCH  25  28
ATOM     28  C   UNL     1      -3.602  13.071  22.956  0.00  0.00    +0.000 C 
BRANCH  28  29
ATOM     29  C   UNL     1      -4.158  12.902  24.348  0.00  0.00    +0.000 C 
ATOM     30  O   UNL     1      -4.786  11.918  24.714  0.00  0.00    +0.000 OA
BRANCH  29  31
ATOM     31  O   UNL     1      -3.914  13.952  25.158  0.00  0.00    +0.000 OA
ATOM     32  H   UNL     1      -3.209  14.547  24.842  0.00  0.00    +0.000 HD
ENDBRANCH  29  31
ENDBRANCH  28  29
ENDBRANCH  25  28
ENDBRANCH  19  20
ENDBRANCH   2  19
TORSDOF 8
ENDMDL
