MODEL 1
REMARK VINA RESULT:      -7.5      0.000      0.000
REMARK  Name = 
REMARK  5 active torsions:
REMARK  status: ('A' for Active; 'I' for Inactive)
REMARK    1  A    between atoms: C_1  and  C_2
REMARK    2  A    between atoms: C_6  and  N_7
REMARK    3  A    between atoms: C_8  and  C_10
REMARK    4  A    between atoms: C_10  and  N_11
REMARK    5  A    between atoms: C_15  and  C_16
REMARK                            x       y       z     vdW  Elec       q    Type
REMARK                         _______ _______ _______ _____ _____    ______ ____
ROOT
ATOM      1  N   UNL     1       5.993   4.455  15.878  0.00  0.00    +0.000 N 
ATOM      2  C   UNL     1       6.797   4.490  17.004  0.00  0.00    +0.000 C 
ATOM      3  O   UNL     1       8.016   4.338  17.051  0.00  0.00    +0.000 OA
ATOM      4  H   UNL     1       4.989   4.302  15.992  0.00  0.00    +0.000 HD
ENDROOT
BRANCH   1  10
ATOM      5  C   UNL     1       5.437   2.388  11.420  0.00  0.00    +0.000 C 
ATOM      6  C   UNL     1       6.131   3.367  12.321  0.00  0.00    +0.000 A 
ATOM      7  C   UNL     1       7.133   4.200  11.817  0.00  0.00    +0.000 A 
ATOM      8  C   UNL     1       7.768   5.115  12.654  0.00  0.00    +0.000 A 
ATOM      9  C   UNL     1       7.408   5.214  13.999  0.00  0.00    +0.000 A 
ATOM     10  C   UNL     1       6.417   4.389  14.529  0.00  0.00    +0.000 A 
ATOM     11  C   UNL     1       5.786   3.462  13.679  0.00  0.00    +0.000 A 
ENDBRANCH   1  10
BRANCH   2  12
ATOM     12  C   UNL     1       6.058   4.839  18.277  0.00  0.00    +0.000 C 
BRANCH  12  13
ATOM     13  N   UNL     1       4.588   4.715  18.211  0.00  0.00    +0.000 N 
ATOM     14  C   UNL     1       3.849   5.837  18.091  0.00  0.00    +0.000 A 
ATOM     15  C   UNL     1       2.467   5.802  18.179  0.00  0.00    +0.000 A 
ATOM     16  C   UNL     1       1.834   4.593  18.428  0.00  0.00    +0.000 A 
ATOM     17  C   UNL     1       2.596   3.431  18.542  0.00  0.00    +0.000 A 
ATOM     18  C   UNL     1       1.948   2.118  18.872  0.00  0.00    +0.000 C 
ATOM     19  C   UNL     1       3.985   3.518  18.391  0.00  0.00    +0.000 A 
ENDBRANCH  12  13
ENDBRANCH   2  12
TORSDOF 3
ENDMDL
MODEL 2
REMARK VINA RESULT:      -7.4      1.344      1.632
REMARK  Name = 
REMARK  5 active torsions:
REMARK  status: ('A' for Active; 'I' for Inactive)
REMARK    1  A    between atoms: C_1  and  C_2
REMARK    2  A    between atoms: C_6  and  N_7
REMARK    3  A    between atoms: C_8  and  C_10
REMARK    4  A    between atoms: C_10  and  N_11
REMARK    5  A    between atoms: C_15  and  C_16
REMARK                            x       y       z     vdW  Elec       q    Type
REMARK                         _______ _______ _______ _____ _____    ______ ____
ROOT
ATOM      1  N   UNL     1       6.510   4.799  15.867  0.00  0.00    +0.000 N 
ATOM      2  C   UNL     1       5.764   5.799  16.468  0.00  0.00    +0.000 C 
ATOM      3  O   UNL     1       5.300   6.803  15.932  0.00  0.00    +0.000 OA
ATOM      4  H   UNL     1       7.076   4.185  16.454  0.00  0.00    +0.000 HD
ENDROOT
BRANCH   1  10
ATOM      5  C   UNL     1       5.397   2.479  11.644  0.00  0.00    +0.000 C 
ATOM      6  C   UNL     1       6.207   3.496  12.394  0.00  0.00    +0.000 A 
ATOM      7  C   UNL     1       7.153   4.276  11.724  0.00  0.00    +0.000 A 
ATOM      8  C   UNL     1       7.896   5.225  12.421  0.00  0.00    +0.000 A 
ATOM      9  C   UNL     1       7.701   5.413  13.791  0.00  0.00    +0.000 A 
ATOM     10  C   UNL     1       6.769   4.643  14.485  0.00  0.00    +0.000 A 
ATOM     11  C   UNL     1       6.028   3.680  13.775  0.00  0.00    +0.000 A 
ENDBRANCH   1  10
BRANCH   2  12
ATOM     12  C   UNL     1       5.442   5.535  17.923  0.00  0.00    +0.000 C 
BRANCH  12  13
ATOM     13  N   UNL     1       4.191   4.792  18.170  0.00  0.00    +0.000 N 
ATOM     14  C   UNL     1       3.723   3.974  17.205  0.00  0.00    +0.000 A 
ATOM     15  C   UNL     1       2.481   3.371  17.312  0.00  0.00    +0.000 A 
ATOM     16  C   UNL     1       1.690   3.639  18.419  0.00  0.00    +0.000 A 
ATOM     17  C   UNL     1       2.176   4.476  19.422  0.00  0.00    +0.000 A 
ATOM     18  C   UNL     1       1.323   4.835  20.603  0.00  0.00    +0.000 C 
ATOM     19  C   UNL     1       3.461   5.016  19.287  0.00  0.00    +0.000 A 
ENDBRANCH  12  13
ENDBRANCH   2  12
TORSDOF 3
ENDMDL
MODEL 3
REMARK VINA RESULT:      -7.4      1.356      1.393
REMARK  Name = 
REMARK  5 active torsions:
REMARK  status: ('A' for Active; 'I' for Inactive)
REMARK    1  A    between atoms: C_1  and  C_2
REMARK    2  A    between atoms: C_6  and  N_7
REMARK    3  A    between atoms: C_8  and  C_10
REMARK    4  A    between atoms: C_10  and  N_11
REMARK    5  A    between atoms: C_15  and  C_16
REMARK                            x       y       z     vdW  Elec       q    Type
REMARK                         _______ _______ _______ _____ _____    ______ ____
ROOT
ATOM      1  N   UNL     1       6.350   4.135  16.277  0.00  0.00    +0.000 N 
ATOM      2  C   UNL     1       5.410   4.845  17.005  0.00  0.00    +0.000 C 
ATOM      3  O   UNL     1       4.721   5.784  16.611  0.00  0.00    +0.000 OA
ATOM      4  H   UNL     1       7.052   3.588  16.779  0.00  0.00    +0.000 HD
ENDROOT
BRANCH   1  10
ATOM      5  C   UNL     1       5.147   2.742  11.688  0.00  0.00    +0.000 C 
ATOM      6  C   UNL     1       6.003   3.550  12.618  0.00  0.00    +0.000 A 
ATOM      7  C   UNL     1       6.993   4.395  12.109  0.00  0.00    +0.000 A 
ATOM      8  C   UNL     1       7.779   5.152  12.975  0.00  0.00    +0.000 A 
ATOM      9  C   UNL     1       7.585   5.079  14.356  0.00  0.00    +0.000 A 
ATOM     10  C   UNL     1       6.609   4.238  14.890  0.00  0.00    +0.000 A 
ATOM     11  C   UNL     1       5.825   3.471  14.009  0.00  0.00    +0.000 A 
ENDBRANCH   1  10
BRANCH   2  12
ATOM     12  C   UNL     1       5.185   4.313  18.403  0.00  0.00    +0.000 C 
BRANCH  12  13
ATOM     13  N   UNL     1       3.792   4.372  18.887  0.00  0.00    +0.000 N 
ATOM     14  C   UNL     1       3.466   5.298  19.811  0.00  0.00    +0.000 A 
ATOM     15  C   UNL     1       2.220   5.305  20.417  0.00  0.00    +0.000 A 
ATOM     16  C   UNL     1       1.302   4.319  20.089  0.00  0.00    +0.000 A 
ATOM     17  C   UNL     1       1.633   3.366  19.126  0.00  0.00    +0.000 A 
ATOM     18  C   UNL     1       0.687   2.251  18.793  0.00  0.00    +0.000 C 
ATOM     19  C   UNL     1       2.887   3.440  18.508  0.00  0.00    +0.000 A 
ENDBRANCH  12  13
ENDBRANCH   2  12
TORSDOF 3
ENDMDL
MODEL 4
REMARK VINA RESULT:      -7.3      1.509      6.658
REMARK  Name = 
REMARK  5 active torsions:
REMARK  status: ('A' for Active; 'I' for Inactive)
REMARK    1  A    between atoms: C_1  and  C_2
REMARK    2  A    between atoms: C_6  and  N_7
REMARK    3  A    between atoms: C_8  and  C_10
REMARK    4  A    between atoms: C_10  and  N_11
REMARK    5  A    between atoms: C_15  and  C_16
REMARK                            x       y       z     vdW  Elec       q    Type
REMARK                         _______ _______ _______ _____ _____    ______ ____
ROOT
ATOM      1  N   UNL     1       4.732   3.492  17.282  0.00  0.00    +0.000 N 
ATOM      2  C   UNL     1       5.220   4.618  16.640  0.00  0.00    +0.000 C 
ATOM      3  O   UNL     1       4.636   5.687  16.470  0.00  0.00    +0.000 OA
ATOM      4  H   UNL     1       5.180   2.591  17.107  0.00  0.00    +0.000 HD
ENDROOT
BRANCH   1  10
ATOM      5  C   UNL     1       2.531   2.758  21.649  0.00  0.00    +0.000 C 
ATOM      6  C   UNL     1       2.437   3.025  20.176  0.00  0.00    +0.000 A 
ATOM      7  C   UNL     1       1.191   3.192  19.567  0.00  0.00    +0.000 A 
ATOM      8  C   UNL     1       1.108   3.451  18.202  0.00  0.00    +0.000 A 
ATOM      9  C   UNL     1       2.266   3.551  17.427  0.00  0.00    +0.000 A 
ATOM     10  C   UNL     1       3.522   3.382  18.007  0.00  0.00    +0.000 A 
ATOM     11  C   UNL     1       3.597   3.112  19.387  0.00  0.00    +0.000 A 
ENDBRANCH   1  10
BRANCH   2  12
ATOM     12  C   UNL     1       6.660   4.495  16.194  0.00  0.00    +0.000 C 
BRANCH  12  13
ATOM     13  N   UNL     1       6.864   4.383  14.737  0.00  0.00    +0.000 N 
ATOM     14  C   UNL     1       7.762   5.197  14.144  0.00  0.00    +0.000 A 
ATOM     15  C   UNL     1       7.888   5.249  12.766  0.00  0.00    +0.000 A 
ATOM     16  C   UNL     1       7.052   4.471  11.979  0.00  0.00    +0.000 A 
ATOM     17  C   UNL     1       6.130   3.621  12.590  0.00  0.00    +0.000 A 
ATOM     18  C   UNL     1       5.170   2.812  11.768  0.00  0.00    +0.000 C 
ATOM     19  C   UNL     1       6.084   3.570  13.988  0.00  0.00    +0.000 A 
ENDBRANCH  12  13
ENDBRANCH   2  12
TORSDOF 3
ENDMDL
MODEL 5
REMARK VINA RESULT:      -7.3      2.850      6.996
REMARK  Name = 
REMARK  5 active torsions:
REMARK  status: ('A' for Active; 'I' for Inactive)
REMARK    1  A    between atoms: C_1  and  C_2
REMARK    2  A    between atoms: C_6  and  N_7
REMARK    3  A    between atoms: C_8  and  C_10
REMARK    4  A    between atoms: C_10  and  N_11
REMARK    5  A    between atoms: C_15  and  C_16
REMARK                            x       y       z     vdW  Elec       q    Type
REMARK                         _______ _______ _______ _____ _____    ______ ____
ROOT
ATOM      1  N   UNL     1       3.289   6.088  19.311  0.00  0.00    +0.000 N 
ATOM      2  C   UNL     1       2.940   4.820  18.875  0.00  0.00    +0.000 C 
ATOM      3  O   UNL     1       1.858   4.466  18.412  0.00  0.00    +0.000 OA
ATOM      4  H   UNL     1       4.092   6.192  19.933  0.00  0.00    +0.000 HD
ENDROOT
BRANCH   1  10
ATOM      5  C   UNL     1       0.265   9.377  21.430  0.00  0.00    +0.000 C 
ATOM      6  C   UNL     1       1.038   8.905  20.234  0.00  0.00    +0.000 A 
ATOM      7  C   UNL     1       1.025   9.645  19.049  0.00  0.00    +0.000 A 
ATOM      8  C   UNL     1       1.752   9.210  17.944  0.00  0.00    +0.000 A 
ATOM      9  C   UNL     1       2.504   8.036  18.008  0.00  0.00    +0.000 A 
ATOM     10  C   UNL     1       2.530   7.274  19.176  0.00  0.00    +0.000 A 
ATOM     11  C   UNL     1       1.786   7.716  20.285  0.00  0.00    +0.000 A 
ENDBRANCH   1  10
BRANCH   2  12
ATOM     12  C   UNL     1       4.076   3.821  18.918  0.00  0.00    +0.000 C 
BRANCH  12  13
ATOM     13  N   UNL     1       5.152   4.043  17.932  0.00  0.00    +0.000 N 
ATOM     14  C   UNL     1       6.325   4.552  18.360  0.00  0.00    +0.000 A 
ATOM     15  C   UNL     1       7.316   4.927  17.467  0.00  0.00    +0.000 A 
ATOM     16  C   UNL     1       7.082   4.805  16.105  0.00  0.00    +0.000 A 
ATOM     17  C   UNL     1       5.873   4.270  15.662  0.00  0.00    +0.000 A 
ATOM     18  C   UNL     1       5.564   4.182  14.196  0.00  0.00    +0.000 C 
ATOM     19  C   UNL     1       4.930   3.859  16.611  0.00  0.00    +0.000 A 
ENDBRANCH  12  13
ENDBRANCH   2  12
TORSDOF 3
ENDMDL
MODEL 6
REMARK VINA RESULT:      -7.2      1.038      1.678
REMARK  Name = 
REMARK  5 active torsions:
REMARK  status: ('A' for Active; 'I' for Inactive)
REMARK    1  A    between atoms: C_1  and  C_2
REMARK    2  A    between atoms: C_6  and  N_7
REMARK    3  A    between atoms: C_8  and  C_10
REMARK    4  A    between atoms: C_10  and  N_11
REMARK    5  A    between atoms: C_15  and  C_16
REMARK                            x       y       z     vdW  Elec       q    Type
REMARK                         _______ _______ _______ _____ _____    ______ ____
ROOT
ATOM      1  N   UNL     1       5.929   5.109  15.787  0.00  0.00    +0.000 N 
ATOM      2  C   UNL     1       6.636   5.007  16.973  0.00  0.00    +0.000 C 
ATOM      3  O   UNL     1       7.744   4.499  17.136  0.00  0.00    +0.000 OA
ATOM      4  H   UNL     1       4.923   5.278  15.826  0.00  0.00    +0.000 HD
ENDROOT
BRANCH   1  10
ATOM      5  C   UNL     1       5.320   2.431  11.675  0.00  0.00    +0.000 C 
ATOM      6  C   UNL     1       6.080   3.467  12.451  0.00  0.00    +0.000 A 
ATOM      7  C   UNL     1       7.182   4.107  11.878  0.00  0.00    +0.000 A 
ATOM      8  C   UNL     1       7.879   5.075  12.597  0.00  0.00    +0.000 A 
ATOM      9  C   UNL     1       7.483   5.419  13.891  0.00  0.00    +0.000 A 
ATOM     10  C   UNL     1       6.392   4.791  14.489  0.00  0.00    +0.000 A 
ATOM     11  C   UNL     1       5.698   3.808  13.759  0.00  0.00    +0.000 A 
ENDBRANCH   1  10
BRANCH   2  12
ATOM     12  C   UNL     1       5.965   5.682  18.149  0.00  0.00    +0.000 C 
BRANCH  12  13
ATOM     13  N   UNL     1       4.970   4.863  18.868  0.00  0.00    +0.000 N 
ATOM     14  C   UNL     1       5.027   3.521  18.744  0.00  0.00    +0.000 A 
ATOM     15  C   UNL     1       4.034   2.707  19.264  0.00  0.00    +0.000 A 
ATOM     16  C   UNL     1       2.945   3.286  19.897  0.00  0.00    +0.000 A 
ATOM     17  C   UNL     1       2.890   4.673  20.036  0.00  0.00    +0.000 A 
ATOM     18  C   UNL     1       1.698   5.335  20.661  0.00  0.00    +0.000 C 
ATOM     19  C   UNL     1       3.947   5.442  19.537  0.00  0.00    +0.000 A 
ENDBRANCH  12  13
ENDBRANCH   2  12
TORSDOF 3
ENDMDL
MODEL 7
REMARK VINA RESULT:      -7.1      2.693      6.500
REMARK  Name = 
REMARK  5 active torsions:
REMARK  status: ('A' for Active; 'I' for Inactive)
REMARK    1  A    between atoms: C_1  and  C_2
REMARK    2  A    between atoms: C_6  and  N_7
REMARK    3  A    between atoms: C_8  and  C_10
REMARK    4  A    between atoms: C_10  and  N_11
REMARK    5  A    between atoms: C_15  and  C_16
REMARK                            x       y       z     vdW  Elec       q    Type
REMARK                         _______ _______ _______ _____ _____    ______ ____
ROOT
ATOM      1  N   UNL     1       4.823   3.336  17.691  0.00  0.00    +0.000 N 
ATOM      2  C   UNL     1       5.062   3.925  16.461  0.00  0.00    +0.000 C 
ATOM      3  O   UNL     1       4.225   4.318  15.651  0.00  0.00    +0.000 OA
ATOM      4  H   UNL     1       5.569   2.796  18.133  0.00  0.00    +0.000 HD
ENDROOT
BRANCH   1  10
ATOM      5  C   UNL     1       1.459   5.311  20.730  0.00  0.00    +0.000 C 
ATOM      6  C   UNL     1       1.908   4.187  19.843  0.00  0.00    +0.000 A 
ATOM      7  C   UNL     1       1.090   3.070  19.651  0.00  0.00    +0.000 A 
ATOM      8  C   UNL     1       1.505   2.034  18.819  0.00  0.00    +0.000 A 
ATOM      9  C   UNL     1       2.736   2.100  18.164  0.00  0.00    +0.000 A 
ATOM     10  C   UNL     1       3.575   3.200  18.342  0.00  0.00    +0.000 A 
ATOM     11  C   UNL     1       3.152   4.239  19.192  0.00  0.00    +0.000 A 
ENDBRANCH   1  10
BRANCH   2  12
ATOM     12  C   UNL     1       6.527   4.163  16.167  0.00  0.00    +0.000 C 
BRANCH  12  13
ATOM     13  N   UNL     1       7.215   5.091  17.086  0.00  0.00    +0.000 N 
ATOM     14  C   UNL     1       7.705   4.608  18.246  0.00  0.00    +0.000 A 
ATOM     15  C   UNL     1       8.221   5.451  19.217  0.00  0.00    +0.000 A 
ATOM     16  C   UNL     1       8.203   6.821  19.004  0.00  0.00    +0.000 A 
ATOM     17  C   UNL     1       7.705   7.322  17.801  0.00  0.00    +0.000 A 
ATOM     18  C   UNL     1       7.616   8.801  17.564  0.00  0.00    +0.000 C 
ATOM     19  C   UNL     1       7.246   6.420  16.834  0.00  0.00    +0.000 A 
ENDBRANCH  12  13
ENDBRANCH   2  12
TORSDOF 3
ENDMDL
MODEL 8
REMARK VINA RESULT:      -7.0      1.329      1.794
REMARK  Name = 
REMARK  5 active torsions:
REMARK  status: ('A' for Active; 'I' for Inactive)
REMARK    1  A    between atoms: C_1  and  C_2
REMARK    2  A    between atoms: C_6  and  N_7
REMARK    3  A    between atoms: C_8  and  C_10
REMARK    4  A    between atoms: C_10  and  N_11
REMARK    5  A    between atoms: C_15  and  C_16
REMARK                            x       y       z     vdW  Elec       q    Type
REMARK                         _______ _______ _______ _____ _____    ______ ____
ROOT
ATOM      1  N   UNL     1       6.766   5.163  15.779  0.00  0.00    +0.000 N 
ATOM      2  C   UNL     1       5.926   6.113  16.336  0.00  0.00    +0.000 C 
ATOM      3  O   UNL     1       5.264   6.960  15.740  0.00  0.00    +0.000 OA
ATOM      4  H   UNL     1       7.471   4.721  16.371  0.00  0.00    +0.000 HD
ENDROOT
BRANCH   1  10
ATOM      5  C   UNL     1       5.287   2.502  11.883  0.00  0.00    +0.000 C 
ATOM      6  C   UNL     1       6.182   3.551  12.476  0.00  0.00    +0.000 A 
ATOM      7  C   UNL     1       7.106   4.225  11.674  0.00  0.00    +0.000 A 
ATOM      8  C   UNL     1       7.927   5.205  12.226  0.00  0.00    +0.000 A 
ATOM      9  C   UNL     1       7.833   5.529  13.581  0.00  0.00    +0.000 A 
ATOM     10  C   UNL     1       6.924   4.867  14.405  0.00  0.00    +0.000 A 
ATOM     11  C   UNL     1       6.104   3.872  13.841  0.00  0.00    +0.000 A 
ENDBRANCH   1  10
BRANCH   2  12
ATOM     12  C   UNL     1       5.778   5.998  17.838  0.00  0.00    +0.000 C 
BRANCH  12  13
ATOM     13  N   UNL     1       4.780   5.016  18.303  0.00  0.00    +0.000 N 
ATOM     14  C   UNL     1       5.200   3.963  19.035  0.00  0.00    +0.000 A 
ATOM     15  C   UNL     1       4.341   2.929  19.368  0.00  0.00    +0.000 A 
ATOM     16  C   UNL     1       3.032   2.962  18.914  0.00  0.00    +0.000 A 
ATOM     17  C   UNL     1       2.593   4.054  18.166  0.00  0.00    +0.000 A 
ATOM     18  C   UNL     1       1.200   4.092  17.608  0.00  0.00    +0.000 C 
ATOM     19  C   UNL     1       3.490   5.096  17.904  0.00  0.00    +0.000 A 
ENDBRANCH  12  13
ENDBRANCH   2  12
TORSDOF 3
ENDMDL
MODEL 9
REMARK VINA RESULT:      -7.0      0.981      1.980
REMARK  Name = 
REMARK  5 active torsions:
REMARK  status: ('A' for Active; 'I' for Inactive)
REMARK    1  A    between atoms: C_1  and  C_2
REMARK    2  A    between atoms: C_6  and  N_7
REMARK    3  A    between atoms: C_8  and  C_10
REMARK    4  A    between atoms: C_10  and  N_11
REMARK    5  A    between atoms: C_15  and  C_16
REMARK                            x       y       z     vdW  Elec       q    Type
REMARK                         _______ _______ _______ _____ _____    ______ ____
ROOT
ATOM      1  N   UNL     1       6.626   4.400  15.889  0.00  0.00    +0.000 N 
ATOM      2  C   UNL     1       6.900   5.452  16.747  0.00  0.00    +0.000 C 
ATOM      3  O   UNL     1       7.449   6.515  16.465  0.00  0.00    +0.000 OA
ATOM      4  H   UNL     1       6.442   3.476  16.284  0.00  0.00    +0.000 HD
ENDROOT
BRANCH   1  10
ATOM      5  C   UNL     1       5.089   2.625  11.537  0.00  0.00    +0.000 C 
ATOM      6  C   UNL     1       6.009   3.507  12.329  0.00  0.00    +0.000 A 
ATOM      7  C   UNL     1       6.954   4.305  11.678  0.00  0.00    +0.000 A 
ATOM      8  C   UNL     1       7.799   5.130  12.415  0.00  0.00    +0.000 A 
ATOM      9  C   UNL     1       7.709   5.175  13.808  0.00  0.00    +0.000 A 
ATOM     10  C   UNL     1       6.781   4.384  14.483  0.00  0.00    +0.000 A 
ATOM     11  C   UNL     1       5.936   3.546  13.731  0.00  0.00    +0.000 A 
ENDBRANCH   1  10
BRANCH   2  12
ATOM     12  C   UNL     1       6.372   5.255  18.151  0.00  0.00    +0.000 C 
BRANCH  12  13
ATOM     13  N   UNL     1       4.909   5.380  18.300  0.00  0.00    +0.000 N 
ATOM     14  C   UNL     1       4.171   4.256  18.409  0.00  0.00    +0.000 A 
ATOM     15  C   UNL     1       2.786   4.299  18.396  0.00  0.00    +0.000 A 
ATOM     16  C   UNL     1       2.148   5.519  18.235  0.00  0.00    +0.000 A 
ATOM     17  C   UNL     1       2.909   6.683  18.133  0.00  0.00    +0.000 A 
ATOM     18  C   UNL     1       2.251   8.012  17.898  0.00  0.00    +0.000 C 
ATOM     19  C   UNL     1       4.303   6.586  18.206  0.00  0.00    +0.000 A 
ENDBRANCH  12  13
ENDBRANCH   2  12
TORSDOF 3
ENDMDL
