MODEL 1
REMARK VINA RESULT:      -8.3      0.000      0.000
REMARK  Name = 
REMARK  4 active torsions:
REMARK  status: ('A' for Active; 'I' for Inactive)
REMARK    1  A    between atoms: C_1  and  N_2
REMARK    2  A    between atoms: C_4  and  C_5
REMARK    3  A    between atoms: C_5  and  N_6
REMARK    4  A    between atoms: C_18  and  C_19
REMARK                            x       y       z     vdW  Elec       q    Type
REMARK                         _______ _______ _______ _____ _____    ______ ____
ROOT
ATOM      1  C   UNL     1       1.278   2.751  20.961  0.00  0.00    +0.000 C 
ATOM      2  N   UNL     1       1.995   3.952  20.612  0.00  0.00    +0.000 N 
ATOM      3  C   UNL     1       3.339   4.072  20.473  0.00  0.00    +0.000 A 
ATOM      4  C   UNL     1       3.570   5.317  19.915  0.00  0.00    +0.000 A 
ATOM      5  C   UNL     1       2.275   5.949  19.937  0.00  0.00    +0.000 A 
ATOM      6  N   UNL     1       1.326   5.080  20.332  0.00  0.00    +0.000 NA
ENDROOT
BRANCH   5   7
ATOM      7  C   UNL     1       1.913   7.326  19.563  0.00  0.00    +0.000 A 
ATOM      8  C   UNL     1       2.143   7.786  18.258  0.00  0.00    +0.000 A 
ATOM      9  C   UNL     1       1.830   9.101  17.893  0.00  0.00    +0.000 A 
ATOM     10  C   UNL     1       1.291   9.976  18.832  0.00  0.00    +0.000 A 
ATOM     11  C   UNL     1       1.034   9.528  20.120  0.00  0.00    +0.000 A 
ATOM     12 CL   UNL     1       0.377  10.601  21.293  0.00  0.00    +0.000 Cl
ATOM     13  C   UNL     1       1.316   8.208  20.477  0.00  0.00    +0.000 A 
ENDBRANCH   5   7
BRANCH   4  14
ATOM     14  C   UNL     1       4.848   5.901  19.406  0.00  0.00    +0.000 C 
BRANCH  14  15
ATOM     15  N   UNL     1       5.470   5.134  18.333  0.00  0.00    +0.000 NA
ATOM     16  C   UNL     1       6.481   5.970  17.639  0.00  0.00    +0.000 C 
ATOM     17  C   UNL     1       7.351   5.088  16.728  0.00  0.00    +0.000 C 
ATOM     18  N   UNL     1       6.501   4.359  15.792  0.00  0.00    +0.000 N 
ATOM     19  C   UNL     1       6.743   4.407  14.448  0.00  0.00    +0.000 A 
ATOM     20  N   UNL     1       7.763   5.163  14.008  0.00  0.00    +0.000 NA
ATOM     21  C   UNL     1       7.981   5.219  12.683  0.00  0.00    +0.000 A 
ATOM     22  C   UNL     1       7.225   4.540  11.767  0.00  0.00    +0.000 A 
ATOM     23  C   UNL     1       6.212   3.787  12.298  0.00  0.00    +0.000 A 
ATOM     24  N   UNL     1       5.953   3.709  13.616  0.00  0.00    +0.000 NA
ATOM     25  C   UNL     1       5.330   3.677  16.338  0.00  0.00    +0.000 C 
ATOM     26  C   UNL     1       4.554   4.621  17.291  0.00  0.00    +0.000 C 
ENDBRANCH  14  15
ENDBRANCH   4  14
TORSDOF 3
ENDMDL
MODEL 2
REMARK VINA RESULT:      -8.1      0.890      1.332
REMARK  Name = 
REMARK  4 active torsions:
REMARK  status: ('A' for Active; 'I' for Inactive)
REMARK    1  A    between atoms: C_1  and  N_2
REMARK    2  A    between atoms: C_4  and  C_5
REMARK    3  A    between atoms: C_5  and  N_6
REMARK    4  A    between atoms: C_18  and  C_19
REMARK                            x       y       z     vdW  Elec       q    Type
REMARK                         _______ _______ _______ _____ _____    ______ ____
ROOT
ATOM      1  C   UNL     1       1.359   2.463  20.854  0.00  0.00    +0.000 C 
ATOM      2  N   UNL     1       1.981   3.741  20.612  0.00  0.00    +0.000 N 
ATOM      3  C   UNL     1       3.269   3.949  20.239  0.00  0.00    +0.000 A 
ATOM      4  C   UNL     1       3.372   5.286  19.899  0.00  0.00    +0.000 A 
ATOM      5  C   UNL     1       2.102   5.840  20.295  0.00  0.00    +0.000 A 
ATOM      6  N   UNL     1       1.259   4.869  20.692  0.00  0.00    +0.000 NA
ENDROOT
BRANCH   5   7
ATOM      7  C   UNL     1       1.660   7.244  20.273  0.00  0.00    +0.000 A 
ATOM      8  C   UNL     1       0.955   7.779  21.362  0.00  0.00    +0.000 A 
ATOM      9  C   UNL     1       0.504   9.104  21.345  0.00  0.00    +0.000 A 
ATOM     10  C   UNL     1       0.744   9.909  20.235  0.00  0.00    +0.000 A 
ATOM     11  C   UNL     1       1.462   9.402  19.162  0.00  0.00    +0.000 A 
ATOM     12 CL   UNL     1       1.759  10.384  17.780  0.00  0.00    +0.000 Cl
ATOM     13  C   UNL     1       1.941   8.092  19.189  0.00  0.00    +0.000 A 
ENDBRANCH   5   7
BRANCH   4  14
ATOM     14  C   UNL     1       4.517   6.015  19.273  0.00  0.00    +0.000 C 
BRANCH  14  15
ATOM     15  N   UNL     1       5.231   5.249  18.258  0.00  0.00    +0.000 NA
ATOM     16  C   UNL     1       6.230   6.115  17.586  0.00  0.00    +0.000 C 
ATOM     17  C   UNL     1       7.189   5.253  16.749  0.00  0.00    +0.000 C 
ATOM     18  N   UNL     1       6.426   4.450  15.798  0.00  0.00    +0.000 N 
ATOM     19  C   UNL     1       6.732   4.468  14.467  0.00  0.00    +0.000 A 
ATOM     20  N   UNL     1       7.732   5.263  14.050  0.00  0.00    +0.000 NA
ATOM     21  C   UNL     1       8.012   5.288  12.737  0.00  0.00    +0.000 A 
ATOM     22  C   UNL     1       7.340   4.540  11.810  0.00  0.00    +0.000 A 
ATOM     23  C   UNL     1       6.342   3.751  12.317  0.00  0.00    +0.000 A 
ATOM     24  N   UNL     1       6.022   3.701  13.623  0.00  0.00    +0.000 NA
ATOM     25  C   UNL     1       5.267   3.724  16.311  0.00  0.00    +0.000 C 
ATOM     26  C   UNL     1       4.395   4.654  17.192  0.00  0.00    +0.000 C 
ENDBRANCH  14  15
ENDBRANCH   4  14
TORSDOF 3
ENDMDL
MODEL 3
REMARK VINA RESULT:      -8.0      3.730      8.191
REMARK  Name = 
REMARK  4 active torsions:
REMARK  status: ('A' for Active; 'I' for Inactive)
REMARK    1  A    between atoms: C_1  and  N_2
REMARK    2  A    between atoms: C_4  and  C_5
REMARK    3  A    between atoms: C_5  and  N_6
REMARK    4  A    between atoms: C_18  and  C_19
REMARK                            x       y       z     vdW  Elec       q    Type
REMARK                         _______ _______ _______ _____ _____    ______ ____
ROOT
ATOM      1  C   UNL     1       0.725   2.253  18.749  0.00  0.00    +0.000 C 
ATOM      2  N   UNL     1       1.655   3.311  18.437  0.00  0.00    +0.000 N 
ATOM      3  C   UNL     1       1.513   4.623  18.753  0.00  0.00    +0.000 A 
ATOM      4  C   UNL     1       2.724   5.230  18.471  0.00  0.00    +0.000 A 
ATOM      5  C   UNL     1       3.477   4.201  17.798  0.00  0.00    +0.000 A 
ATOM      6  N   UNL     1       2.814   3.030  17.824  0.00  0.00    +0.000 NA
ENDROOT
BRANCH   5   7
ATOM      7  C   UNL     1       4.806   4.290  17.171  0.00  0.00    +0.000 A 
ATOM      8  C   UNL     1       5.938   4.562  17.953  0.00  0.00    +0.000 A 
ATOM      9  C   UNL     1       7.205   4.677  17.369  0.00  0.00    +0.000 A 
ATOM     10  C   UNL     1       7.354   4.530  15.992  0.00  0.00    +0.000 A 
ATOM     11  C   UNL     1       6.248   4.235  15.209  0.00  0.00    +0.000 A 
ATOM     12 CL   UNL     1       6.417   4.059  13.506  0.00  0.00    +0.000 Cl
ATOM     13  C   UNL     1       4.989   4.088  15.794  0.00  0.00    +0.000 A 
ENDBRANCH   5   7
BRANCH   4  14
ATOM     14  C   UNL     1       3.174   6.623  18.774  0.00  0.00    +0.000 C 
BRANCH  14  15
ATOM     15  N   UNL     1       2.085   7.575  18.959  0.00  0.00    +0.000 NA
ATOM     16  C   UNL     1       2.294   8.752  18.080  0.00  0.00    +0.000 C 
ATOM     17  C   UNL     1       1.013   9.602  18.033  0.00  0.00    +0.000 C 
ATOM     18  N   UNL     1       0.628   9.987  19.388  0.00  0.00    +0.000 N 
ATOM     19  C   UNL     1       0.399  11.296  19.702  0.00  0.00    +0.000 A 
ATOM     20  N   UNL     1       0.564  12.223  18.744  0.00  0.00    +0.000 NA
ATOM     21  C   UNL     1       0.353  13.510  19.068  0.00  0.00    +0.000 A 
ATOM     22  C   UNL     1      -0.027  13.918  20.317  0.00  0.00    +0.000 A 
ATOM     23  C   UNL     1      -0.180  12.912  21.233  0.00  0.00    +0.000 A 
ATOM     24  N   UNL     1       0.028  11.612  20.954  0.00  0.00    +0.000 NA
ATOM     25  C   UNL     1       0.610   8.937  20.404  0.00  0.00    +0.000 C 
ATOM     26  C   UNL     1       1.909   8.095  20.333  0.00  0.00    +0.000 C 
ENDBRANCH  14  15
ENDBRANCH   4  14
TORSDOF 3
ENDMDL
MODEL 4
REMARK VINA RESULT:      -7.9      3.680      8.751
REMARK  Name = 
REMARK  4 active torsions:
REMARK  status: ('A' for Active; 'I' for Inactive)
REMARK    1  A    between atoms: C_1  and  N_2
REMARK    2  A    between atoms: C_4  and  C_5
REMARK    3  A    between atoms: C_5  and  N_6
REMARK    4  A    between atoms: C_18  and  C_19
REMARK                            x       y       z     vdW  Elec       q    Type
REMARK                         _______ _______ _______ _____ _____    ______ ____
ROOT
ATOM      1  C   UNL     1       1.584   2.865  21.611  0.00  0.00    +0.000 C 
ATOM      2  N   UNL     1       2.118   3.892  20.750  0.00  0.00    +0.000 N 
ATOM      3  C   UNL     1       1.594   5.128  20.555  0.00  0.00    +0.000 A 
ATOM      4  C   UNL     1       2.536   5.849  19.844  0.00  0.00    +0.000 A 
ATOM      5  C   UNL     1       3.531   4.866  19.494  0.00  0.00    +0.000 A 
ATOM      6  N   UNL     1       3.269   3.689  20.092  0.00  0.00    +0.000 NA
ENDROOT
BRANCH   5   7
ATOM      7  C   UNL     1       4.726   5.022  18.650  0.00  0.00    +0.000 A 
ATOM      8  C   UNL     1       5.968   5.315  19.232  0.00  0.00    +0.000 A 
ATOM      9  C   UNL     1       7.110   5.493  18.441  0.00  0.00    +0.000 A 
ATOM     10  C   UNL     1       7.021   5.389  17.055  0.00  0.00    +0.000 A 
ATOM     11  C   UNL     1       5.805   5.073  16.467  0.00  0.00    +0.000 A 
ATOM     12 CL   UNL     1       5.680   4.949  14.755  0.00  0.00    +0.000 Cl
ATOM     13  C   UNL     1       4.673   4.864  17.255  0.00  0.00    +0.000 A 
ENDBRANCH   5   7
BRANCH   4  14
ATOM     14  C   UNL     1       2.547   7.303  19.497  0.00  0.00    +0.000 C 
BRANCH  14  15
ATOM     15  N   UNL     1       1.372   8.036  19.956  0.00  0.00    +0.000 NA
ATOM     16  C   UNL     1       1.220   9.284  19.168  0.00  0.00    +0.000 C 
ATOM     17  C   UNL     1      -0.167   9.896  19.423  0.00  0.00    +0.000 C 
ATOM     18  N   UNL     1      -0.351  10.120  20.853  0.00  0.00    +0.000 N 
ATOM     19  C   UNL     1      -0.727  11.346  21.324  0.00  0.00    +0.000 A 
ATOM     20  N   UNL     1      -0.896  12.347  20.443  0.00  0.00    +0.000 NA
ATOM     21  C   UNL     1      -1.248  13.553  20.917  0.00  0.00    +0.000 A 
ATOM     22  C   UNL     1      -1.450  13.809  22.246  0.00  0.00    +0.000 A 
ATOM     23  C   UNL     1      -1.265  12.735  23.076  0.00  0.00    +0.000 A 
ATOM     24  N   UNL     1      -0.906  11.513  22.645  0.00  0.00    +0.000 NA
ATOM     25  C   UNL     1      -0.010   9.022  21.754  0.00  0.00    +0.000 C 
ATOM     26  C   UNL     1       1.372   8.429  21.382  0.00  0.00    +0.000 C 
ENDBRANCH  14  15
ENDBRANCH   4  14
TORSDOF 3
ENDMDL
MODEL 5
REMARK VINA RESULT:      -7.8      3.612      8.729
REMARK  Name = 
REMARK  4 active torsions:
REMARK  status: ('A' for Active; 'I' for Inactive)
REMARK    1  A    between atoms: C_1  and  N_2
REMARK    2  A    between atoms: C_4  and  C_5
REMARK    3  A    between atoms: C_5  and  N_6
REMARK    4  A    between atoms: C_18  and  C_19
REMARK                            x       y       z     vdW  Elec       q    Type
REMARK                         _______ _______ _______ _____ _____    ______ ____
ROOT
ATOM      1  C   UNL     1       1.857   2.984  21.566  0.00  0.00    +0.000 C 
ATOM      2  N   UNL     1       2.227   4.028  20.643  0.00  0.00    +0.000 N 
ATOM      3  C   UNL     1       1.719   5.286  20.610  0.00  0.00    +0.000 A 
ATOM      4  C   UNL     1       2.509   6.008  19.734  0.00  0.00    +0.000 A 
ATOM      5  C   UNL     1       3.366   5.012  19.141  0.00  0.00    +0.000 A 
ATOM      6  N   UNL     1       3.198   3.819  19.742  0.00  0.00    +0.000 NA
ENDROOT
BRANCH   5   7
ATOM      7  C   UNL     1       4.352   5.167  18.060  0.00  0.00    +0.000 A 
ATOM      8  C   UNL     1       4.255   4.386  16.899  0.00  0.00    +0.000 A 
ATOM      9  C   UNL     1       5.200   4.502  15.873  0.00  0.00    +0.000 A 
ATOM     10  C   UNL     1       6.261   5.394  15.999  0.00  0.00    +0.000 A 
ATOM     11  C   UNL     1       6.356   6.192  17.130  0.00  0.00    +0.000 A 
ATOM     12 CL   UNL     1       7.667   7.294  17.302  0.00  0.00    +0.000 Cl
ATOM     13  C   UNL     1       5.397   6.102  18.140  0.00  0.00    +0.000 A 
ENDBRANCH   5   7
BRANCH   4  14
ATOM     14  C   UNL     1       2.498   7.474  19.442  0.00  0.00    +0.000 C 
BRANCH  14  15
ATOM     15  N   UNL     1       1.317   8.173  19.936  0.00  0.00    +0.000 NA
ATOM     16  C   UNL     1       1.121   9.429  19.171  0.00  0.00    +0.000 C 
ATOM     17  C   UNL     1      -0.275  10.006  19.464  0.00  0.00    +0.000 C 
ATOM     18  N   UNL     1      -0.433  10.204  20.901  0.00  0.00    +0.000 N 
ATOM     19  C   UNL     1      -0.827  11.414  21.398  0.00  0.00    +0.000 A 
ATOM     20  N   UNL     1      -1.036  12.424  20.536  0.00  0.00    +0.000 NA
ATOM     21  C   UNL     1      -1.405  13.614  21.037  0.00  0.00    +0.000 A 
ATOM     22  C   UNL     1      -1.586  13.845  22.373  0.00  0.00    +0.000 A 
ATOM     23  C   UNL     1      -1.360  12.764  23.182  0.00  0.00    +0.000 A 
ATOM     24  N   UNL     1      -0.982  11.556  22.725  0.00  0.00    +0.000 NA
ATOM     25  C   UNL     1      -0.050   9.101  21.778  0.00  0.00    +0.000 C 
ATOM     26  C   UNL     1       1.338   8.544  21.368  0.00  0.00    +0.000 C 
ENDBRANCH  14  15
ENDBRANCH   4  14
TORSDOF 3
ENDMDL
MODEL 6
REMARK VINA RESULT:      -7.7      3.384      8.668
REMARK  Name = 
REMARK  4 active torsions:
REMARK  status: ('A' for Active; 'I' for Inactive)
REMARK    1  A    between atoms: C_1  and  N_2
REMARK    2  A    between atoms: C_4  and  C_5
REMARK    3  A    between atoms: C_5  and  N_6
REMARK    4  A    between atoms: C_18  and  C_19
REMARK                            x       y       z     vdW  Elec       q    Type
REMARK                         _______ _______ _______ _____ _____    ______ ____
ROOT
ATOM      1  C   UNL     1       7.188   6.777  17.197  0.00  0.00    +0.000 C 
ATOM      2  N   UNL     1       5.828   6.524  17.604  0.00  0.00    +0.000 N 
ATOM      3  C   UNL     1       4.833   7.442  17.690  0.00  0.00    +0.000 A 
ATOM      4  C   UNL     1       3.660   6.737  17.892  0.00  0.00    +0.000 A 
ATOM      5  C   UNL     1       4.105   5.382  18.104  0.00  0.00    +0.000 A 
ATOM      6  N   UNL     1       5.429   5.275  17.886  0.00  0.00    +0.000 NA
ENDROOT
BRANCH   5   7
ATOM      7  C   UNL     1       3.313   4.196  18.468  0.00  0.00    +0.000 A 
ATOM      8  C   UNL     1       3.053   3.202  17.514  0.00  0.00    +0.000 A 
ATOM      9  C   UNL     1       2.278   2.081  17.836  0.00  0.00    +0.000 A 
ATOM     10  C   UNL     1       1.746   1.945  19.115  0.00  0.00    +0.000 A 
ATOM     11  C   UNL     1       2.017   2.907  20.077  0.00  0.00    +0.000 A 
ATOM     12 CL   UNL     1       1.359   2.756  21.660  0.00  0.00    +0.000 Cl
ATOM     13  C   UNL     1       2.815   4.009  19.768  0.00  0.00    +0.000 A 
ENDBRANCH   5   7
BRANCH   4  14
ATOM     14  C   UNL     1       2.250   7.232  17.900  0.00  0.00    +0.000 C 
BRANCH  14  15
ATOM     15  N   UNL     1       2.030   8.395  18.752  0.00  0.00    +0.000 NA
ATOM     16  C   UNL     1       1.501   7.960  20.069  0.00  0.00    +0.000 C 
ATOM     17  C   UNL     1       1.564   9.127  21.068  0.00  0.00    +0.000 C 
ATOM     18  N   UNL     1       0.836  10.273  20.532  0.00  0.00    +0.000 N 
ATOM     19  C   UNL     1      -0.137  10.887  21.268  0.00  0.00    +0.000 A 
ATOM     20  N   UNL     1      -0.427  10.394  22.485  0.00  0.00    +0.000 NA
ATOM     21  C   UNL     1      -1.398  10.993  23.193  0.00  0.00    +0.000 A 
ATOM     22  C   UNL     1      -2.096  12.081  22.744  0.00  0.00    +0.000 A 
ATOM     23  C   UNL     1      -1.734  12.525  21.499  0.00  0.00    +0.000 A 
ATOM     24  N   UNL     1      -0.774  11.951  20.753  0.00  0.00    +0.000 NA
ATOM     25  C   UNL     1       1.112  10.657  19.150  0.00  0.00    +0.000 C 
ATOM     26  C   UNL     1       1.090   9.410  18.230  0.00  0.00    +0.000 C 
ENDBRANCH  14  15
ENDBRANCH   4  14
TORSDOF 3
ENDMDL
MODEL 7
REMARK VINA RESULT:      -7.6      3.403      7.898
REMARK  Name = 
REMARK  4 active torsions:
REMARK  status: ('A' for Active; 'I' for Inactive)
REMARK    1  A    between atoms: C_1  and  N_2
REMARK    2  A    between atoms: C_4  and  C_5
REMARK    3  A    between atoms: C_5  and  N_6
REMARK    4  A    between atoms: C_18  and  C_19
REMARK                            x       y       z     vdW  Elec       q    Type
REMARK                         _______ _______ _______ _____ _____    ______ ____
ROOT
ATOM      1  C   UNL     1       0.765   2.138  18.647  0.00  0.00    +0.000 C 
ATOM      2  N   UNL     1       1.596   3.309  18.512  0.00  0.00    +0.000 N 
ATOM      3  C   UNL     1       1.414   4.498  19.139  0.00  0.00    +0.000 A 
ATOM      4  C   UNL     1       2.553   5.247  18.904  0.00  0.00    +0.000 A 
ATOM      5  C   UNL     1       3.289   4.462  17.945  0.00  0.00    +0.000 A 
ATOM      6  N   UNL     1       2.701   3.268  17.753  0.00  0.00    +0.000 NA
ENDROOT
BRANCH   5   7
ATOM      7  C   UNL     1       4.540   4.796  17.244  0.00  0.00    +0.000 A 
ATOM      8  C   UNL     1       4.919   4.081  16.098  0.00  0.00    +0.000 A 
ATOM      9  C   UNL     1       6.118   4.368  15.435  0.00  0.00    +0.000 A 
ATOM     10  C   UNL     1       6.958   5.368  15.915  0.00  0.00    +0.000 A 
ATOM     11  C   UNL     1       6.584   6.102  17.032  0.00  0.00    +0.000 A 
ATOM     12 CL   UNL     1       7.618   7.336  17.640  0.00  0.00    +0.000 Cl
ATOM     13  C   UNL     1       5.375   5.840  17.675  0.00  0.00    +0.000 A 
ENDBRANCH   5   7
BRANCH   4  14
ATOM     14  C   UNL     1       2.953   6.565  19.485  0.00  0.00    +0.000 C 
BRANCH  14  15
ATOM     15  N   UNL     1       1.897   7.572  19.465  0.00  0.00    +0.000 NA
ATOM     16  C   UNL     1       2.229   8.626  18.474  0.00  0.00    +0.000 C 
ATOM     17  C   UNL     1       0.997   9.509  18.220  0.00  0.00    +0.000 C 
ATOM     18  N   UNL     1       0.523  10.068  19.483  0.00  0.00    +0.000 N 
ATOM     19  C   UNL     1       0.330  11.413  19.621  0.00  0.00    +0.000 A 
ATOM     20  N   UNL     1       0.613  12.211  18.578  0.00  0.00    +0.000 NA
ATOM     21  C   UNL     1       0.437  13.534  18.730  0.00  0.00    +0.000 A 
ATOM     22  C   UNL     1      -0.023  14.104  19.886  0.00  0.00    +0.000 A 
ATOM     23  C   UNL     1      -0.295  13.221  20.897  0.00  0.00    +0.000 A 
ATOM     24  N   UNL     1      -0.126  11.891  20.791  0.00  0.00    +0.000 NA
ATOM     25  C   UNL     1       0.375   9.150  20.610  0.00  0.00    +0.000 C 
ATOM     26  C   UNL     1       1.636   8.259  20.748  0.00  0.00    +0.000 C 
ENDBRANCH  14  15
ENDBRANCH   4  14
TORSDOF 3
ENDMDL
MODEL 8
REMARK VINA RESULT:      -7.6      2.370      7.556
REMARK  Name = 
REMARK  4 active torsions:
REMARK  status: ('A' for Active; 'I' for Inactive)
REMARK    1  A    between atoms: C_1  and  N_2
REMARK    2  A    between atoms: C_4  and  C_5
REMARK    3  A    between atoms: C_5  and  N_6
REMARK    4  A    between atoms: C_18  and  C_19
REMARK                            x       y       z     vdW  Elec       q    Type
REMARK                         _______ _______ _______ _____ _____    ______ ____
ROOT
ATOM      1  C   UNL     1       6.851   3.751  12.382  0.00  0.00    +0.000 C 
ATOM      2  N   UNL     1       6.413   4.137  13.700  0.00  0.00    +0.000 N 
ATOM      3  C   UNL     1       5.206   3.864  14.257  0.00  0.00    +0.000 A 
ATOM      4  C   UNL     1       5.298   4.214  15.592  0.00  0.00    +0.000 A 
ATOM      5  C   UNL     1       6.573   4.878  15.687  0.00  0.00    +0.000 A 
ATOM      6  N   UNL     1       7.248   4.784  14.526  0.00  0.00    +0.000 NA
ENDROOT
BRANCH   5   7
ATOM      7  C   UNL     1       7.176   5.559  16.844  0.00  0.00    +0.000 A 
ATOM      8  C   UNL     1       7.579   4.820  17.966  0.00  0.00    +0.000 A 
ATOM      9  C   UNL     1       8.129   5.454  19.086  0.00  0.00    +0.000 A 
ATOM     10  C   UNL     1       8.275   6.839  19.102  0.00  0.00    +0.000 A 
ATOM     11  C   UNL     1       7.905   7.581  17.989  0.00  0.00    +0.000 A 
ATOM     12 CL   UNL     1       8.073   9.293  17.998  0.00  0.00    +0.000 Cl
ATOM     13  C   UNL     1       7.387   6.947  16.859  0.00  0.00    +0.000 A 
ENDBRANCH   5   7
BRANCH   4  14
ATOM     14  C   UNL     1       4.321   3.979  16.698  0.00  0.00    +0.000 C 
BRANCH  14  15
ATOM     15  N   UNL     1       4.128   5.126  17.579  0.00  0.00    +0.000 NA
ATOM     16  C   UNL     1       3.235   4.751  18.703  0.00  0.00    +0.000 C 
ATOM     17  C   UNL     1       3.278   5.839  19.789  0.00  0.00    +0.000 C 
ATOM     18  N   UNL     1       2.922   7.130  19.207  0.00  0.00    +0.000 N 
ATOM     19  C   UNL     1       1.935   7.895  19.760  0.00  0.00    +0.000 A 
ATOM     20  N   UNL     1       1.282   7.421  20.835  0.00  0.00    +0.000 NA
ATOM     21  C   UNL     1       0.302   8.173  21.361  0.00  0.00    +0.000 A 
ATOM     22  C   UNL     1      -0.056   9.396  20.864  0.00  0.00    +0.000 A 
ATOM     23  C   UNL     1       0.662   9.811  19.774  0.00  0.00    +0.000 A 
ATOM     24  N   UNL     1       1.646   9.086  19.211  0.00  0.00    +0.000 NA
ATOM     25  C   UNL     1       3.579   7.508  17.958  0.00  0.00    +0.000 C 
ATOM     26  C   UNL     1       3.542   6.330  16.951  0.00  0.00    +0.000 C 
ENDBRANCH  14  15
ENDBRANCH   4  14
TORSDOF 3
ENDMDL
MODEL 9
REMARK VINA RESULT:      -7.5      3.568      8.429
REMARK  Name = 
REMARK  4 active torsions:
REMARK  status: ('A' for Active; 'I' for Inactive)
REMARK    1  A    between atoms: C_1  and  N_2
REMARK    2  A    between atoms: C_4  and  C_5
REMARK    3  A    between atoms: C_5  and  N_6
REMARK    4  A    between atoms: C_18  and  C_19
REMARK                            x       y       z     vdW  Elec       q    Type
REMARK                         _______ _______ _______ _____ _____    ______ ____
ROOT
ATOM      1  C   UNL     1       2.140   2.866  21.662  0.00  0.00    +0.000 C 
ATOM      2  N   UNL     1       2.526   3.644  20.511  0.00  0.00    +0.000 N 
ATOM      3  C   UNL     1       1.807   4.643  19.940  0.00  0.00    +0.000 A 
ATOM      4  C   UNL     1       2.641   5.256  19.023  0.00  0.00    +0.000 A 
ATOM      5  C   UNL     1       3.802   4.404  18.990  0.00  0.00    +0.000 A 
ATOM      6  N   UNL     1       3.721   3.449  19.935  0.00  0.00    +0.000 NA
ENDROOT
BRANCH   5   7
ATOM      7  C   UNL     1       4.988   4.491  18.122  0.00  0.00    +0.000 A 
ATOM      8  C   UNL     1       6.217   4.916  18.648  0.00  0.00    +0.000 A 
ATOM      9  C   UNL     1       7.348   5.031  17.831  0.00  0.00    +0.000 A 
ATOM     10  C   UNL     1       7.261   4.732  16.473  0.00  0.00    +0.000 A 
ATOM     11  C   UNL     1       6.059   4.286  15.944  0.00  0.00    +0.000 A 
ATOM     12 CL   UNL     1       5.935   3.921  14.267  0.00  0.00    +0.000 Cl
ATOM     13  C   UNL     1       4.939   4.140  16.763  0.00  0.00    +0.000 A 
ENDBRANCH   5   7
BRANCH   4  14
ATOM     14  C   UNL     1       2.417   6.504  18.231  0.00  0.00    +0.000 C 
BRANCH  14  15
ATOM     15  N   UNL     1       2.244   7.704  19.042  0.00  0.00    +0.000 NA
ATOM     16  C   UNL     1       1.578   7.352  20.321  0.00  0.00    +0.000 C 
ATOM     17  C   UNL     1       1.674   8.534  21.301  0.00  0.00    +0.000 C 
ATOM     18  N   UNL     1       1.101   9.728  20.690  0.00  0.00    +0.000 N 
ATOM     19  C   UNL     1       0.137  10.448  21.337  0.00  0.00    +0.000 A 
ATOM     20  N   UNL     1      -0.290  10.015  22.535  0.00  0.00    +0.000 NA
ATOM     21  C   UNL     1      -1.251  10.720  23.155  0.00  0.00    +0.000 A 
ATOM     22  C   UNL     1      -1.806  11.856  22.633  0.00  0.00    +0.000 A 
ATOM     23  C   UNL     1      -1.311  12.233  21.413  0.00  0.00    +0.000 A 
ATOM     24  N   UNL     1      -0.356  11.553  20.754  0.00  0.00    +0.000 NA
ATOM     25  C   UNL     1       1.516  10.050  19.327  0.00  0.00    +0.000 C 
ATOM     26  C   UNL     1       1.447   8.788  18.430  0.00  0.00    +0.000 C 
ENDBRANCH  14  15
ENDBRANCH   4  14
TORSDOF 3
ENDMDL
