MODEL 1
REMARK VINA RESULT:      -7.6      0.000      0.000
REMARK  Name = 
REMARK  8 active torsions:
REMARK  status: ('A' for Active; 'I' for Inactive)
REMARK    1  A    between atoms: C_1  and  O_2
REMARK    2  A    between atoms: O_2  and  C_3
REMARK    3  A    between atoms: C_8  and  O_9
REMARK    4  A    between atoms: O_9  and  C_10
REMARK    5  A    between atoms: C_10  and  C_11
REMARK    6  A    between atoms: N_13  and  C_14
REMARK    7  A    between atoms: C_16  and  C_17
REMARK    8  A    between atoms: C_20  and  C_21
REMARK                            x       y       z     vdW  Elec       q    Type
REMARK                         _______ _______ _______ _____ _____    ______ ____
ROOT
ATOM      1  C   UNL     1       5.100   4.066  16.453  0.00  0.00    +0.000 C 
ATOM      2  O   UNL     1       5.874   3.580  15.623  0.00  0.00    +0.000 OA
ATOM      3  N   UNL     1       5.468   5.220  17.109  0.00  0.00    +0.000 N 
ATOM      4  H   UNL     1       6.212   5.715  16.638  0.00  0.00    +0.000 HD
ENDROOT
BRANCH   3   5
ATOM      5  C   UNL     1       4.554   5.935  17.831  0.00  0.00    +0.000 A 
ATOM      6  C   UNL     1       3.751   7.007  17.535  0.00  0.00    +0.000 A 
ATOM      7  C   UNL     1       2.985   7.215  18.718  0.00  0.00    +0.000 A 
ATOM      8  N   UNL     1       3.348   6.337  19.667  0.00  0.00    +0.000 NA
ATOM      9  O   UNL     1       4.321   5.537  19.104  0.00  0.00    +0.000 OA
BRANCH   7  10
ATOM     10  C   UNL     1       1.939   8.208  18.954  0.00  0.00    +0.000 A 
ATOM     11  C   UNL     1       1.422   8.412  20.242  0.00  0.00    +0.000 A 
ATOM     12  C   UNL     1       0.437   9.379  20.473  0.00  0.00    +0.000 A 
ATOM     13  C   UNL     1      -0.044  10.160  19.418  0.00  0.00    +0.000 A 
ATOM     14  C   UNL     1      -1.070  11.229  19.649  0.00  0.00    +0.000 C 
ATOM     15  C   UNL     1       0.461   9.950  18.130  0.00  0.00    +0.000 A 
ATOM     16  C   UNL     1       1.441   8.983  17.901  0.00  0.00    +0.000 A 
ENDBRANCH   7  10
ENDBRANCH   3   5
BRANCH   1  17
ATOM     17  C   UNL     1       3.715   3.463  16.721  0.00  0.00    +0.000 C 
BRANCH  17  18
ATOM     18  O   UNL     1       3.777   2.407  17.661  0.00  0.00    +0.000 OA
BRANCH  18  24
ATOM     19  C   UNL     1       3.609   2.492  20.159  0.00  0.00    +0.000 A 
ATOM     20  C   UNL     1       2.748   2.716  21.242  0.00  0.00    +0.000 A 
ATOM     21  C   UNL     1       1.384   2.891  21.050  0.00  0.00    +0.000 A 
ATOM     22  C   UNL     1       0.865   2.889  19.757  0.00  0.00    +0.000 A 
ATOM     23  C   UNL     1       1.725   2.736  18.668  0.00  0.00    +0.000 A 
ATOM     24  C   UNL     1       3.103   2.551  18.851  0.00  0.00    +0.000 A 
BRANCH  19  26
ATOM     25  C   UNL     1       5.246   1.108  21.153  0.00  0.00    +0.000 C 
ATOM     26  O   UNL     1       4.944   2.278  20.386  0.00  0.00    +0.000 OA
ENDBRANCH  19  26
ENDBRANCH  18  24
ENDBRANCH  17  18
ENDBRANCH   1  17
TORSDOF 6
ENDMDL
MODEL 2
REMARK VINA RESULT:      -7.4      2.355      6.733
REMARK  Name = 
REMARK  8 active torsions:
REMARK  status: ('A' for Active; 'I' for Inactive)
REMARK    1  A    between atoms: C_1  and  O_2
REMARK    2  A    between atoms: O_2  and  C_3
REMARK    3  A    between atoms: C_8  and  O_9
REMARK    4  A    between atoms: O_9  and  C_10
REMARK    5  A    between atoms: C_10  and  C_11
REMARK    6  A    between atoms: N_13  and  C_14
REMARK    7  A    between atoms: C_16  and  C_17
REMARK    8  A    between atoms: C_20  and  C_21
REMARK                            x       y       z     vdW  Elec       q    Type
REMARK                         _______ _______ _______ _____ _____    ______ ____
ROOT
ATOM      1  C   UNL     1       2.002   3.395  20.582  0.00  0.00    +0.000 C 
ATOM      2  O   UNL     1       1.152   2.824  21.271  0.00  0.00    +0.000 OA
ATOM      3  N   UNL     1       3.263   2.846  20.492  0.00  0.00    +0.000 N 
ATOM      4  H   UNL     1       3.285   1.874  20.768  0.00  0.00    +0.000 HD
ENDROOT
BRANCH   3   5
ATOM      5  C   UNL     1       4.151   3.284  19.550  0.00  0.00    +0.000 A 
ATOM      6  C   UNL     1       4.173   3.227  18.180  0.00  0.00    +0.000 A 
ATOM      7  C   UNL     1       5.353   3.937  17.813  0.00  0.00    +0.000 A 
ATOM      8  N   UNL     1       6.005   4.352  18.911  0.00  0.00    +0.000 NA
ATOM      9  O   UNL     1       5.245   3.948  19.990  0.00  0.00    +0.000 OA
BRANCH   7  10
ATOM     10  C   UNL     1       5.856   4.221  16.471  0.00  0.00    +0.000 A 
ATOM     11  C   UNL     1       6.961   5.066  16.284  0.00  0.00    +0.000 A 
ATOM     12  C   UNL     1       7.458   5.319  15.001  0.00  0.00    +0.000 A 
ATOM     13  C   UNL     1       6.859   4.729  13.884  0.00  0.00    +0.000 A 
ATOM     14  C   UNL     1       7.400   4.955  12.503  0.00  0.00    +0.000 C 
ATOM     15  C   UNL     1       5.750   3.896  14.066  0.00  0.00    +0.000 A 
ATOM     16  C   UNL     1       5.253   3.646  15.347  0.00  0.00    +0.000 A 
ENDBRANCH   7  10
ENDBRANCH   3   5
BRANCH   1  17
ATOM     17  C   UNL     1       1.676   4.655  19.769  0.00  0.00    +0.000 C 
BRANCH  17  18
ATOM     18  O   UNL     1       2.292   5.805  20.316  0.00  0.00    +0.000 OA
BRANCH  18  24
ATOM     19  C   UNL     1       1.447   8.141  19.986  0.00  0.00    +0.000 A 
ATOM     20  C   UNL     1       1.505   9.274  19.163  0.00  0.00    +0.000 A 
ATOM     21  C   UNL     1       2.186   9.248  17.953  0.00  0.00    +0.000 A 
ATOM     22  C   UNL     1       2.862   8.092  17.568  0.00  0.00    +0.000 A 
ATOM     23  C   UNL     1       2.867   6.981  18.414  0.00  0.00    +0.000 A 
ATOM     24  C   UNL     1       2.177   6.994  19.635  0.00  0.00    +0.000 A 
BRANCH  19  26
ATOM     25  C   UNL     1       1.302   8.993  22.185  0.00  0.00    +0.000 C 
ATOM     26  O   UNL     1       0.729   8.185  21.153  0.00  0.00    +0.000 OA
ENDBRANCH  19  26
ENDBRANCH  18  24
ENDBRANCH  17  18
ENDBRANCH   1  17
TORSDOF 6
ENDMDL
MODEL 3
REMARK VINA RESULT:      -7.4      4.809      5.869
REMARK  Name = 
REMARK  8 active torsions:
REMARK  status: ('A' for Active; 'I' for Inactive)
REMARK    1  A    between atoms: C_1  and  O_2
REMARK    2  A    between atoms: O_2  and  C_3
REMARK    3  A    between atoms: C_8  and  O_9
REMARK    4  A    between atoms: O_9  and  C_10
REMARK    5  A    between atoms: C_10  and  C_11
REMARK    6  A    between atoms: N_13  and  C_14
REMARK    7  A    between atoms: C_16  and  C_17
REMARK    8  A    between atoms: C_20  and  C_21
REMARK                            x       y       z     vdW  Elec       q    Type
REMARK                         _______ _______ _______ _____ _____    ______ ____
ROOT
ATOM      1  C   UNL     1       6.431   5.029  18.056  0.00  0.00    +0.000 C 
ATOM      2  O   UNL     1       6.197   3.873  17.688  0.00  0.00    +0.000 OA
ATOM      3  N   UNL     1       7.601   5.632  17.649  0.00  0.00    +0.000 N 
ATOM      4  H   UNL     1       8.020   5.171  16.853  0.00  0.00    +0.000 HD
ENDROOT
BRANCH   3   5
ATOM      5  C   UNL     1       7.786   6.977  17.805  0.00  0.00    +0.000 A 
ATOM      6  C   UNL     1       8.535   7.729  18.673  0.00  0.00    +0.000 A 
ATOM      7  C   UNL     1       8.332   9.073  18.246  0.00  0.00    +0.000 A 
ATOM      8  N   UNL     1       7.480   9.106  17.209  0.00  0.00    +0.000 NA
ATOM      9  O   UNL     1       7.150   7.795  16.934  0.00  0.00    +0.000 OA
BRANCH   7  10
ATOM     10  C   UNL     1       8.922  10.293  18.792  0.00  0.00    +0.000 A 
ATOM     11  C   UNL     1       9.064  11.439  17.995  0.00  0.00    +0.000 A 
ATOM     12  C   UNL     1       9.606  12.615  18.524  0.00  0.00    +0.000 A 
ATOM     13  C   UNL     1      10.012  12.665  19.860  0.00  0.00    +0.000 A 
ATOM     14  C   UNL     1      10.559  13.927  20.459  0.00  0.00    +0.000 C 
ATOM     15  C   UNL     1       9.883  11.521  20.654  0.00  0.00    +0.000 A 
ATOM     16  C   UNL     1       9.345  10.347  20.125  0.00  0.00    +0.000 A 
ENDBRANCH   7  10
ENDBRANCH   3   5
BRANCH   1  17
ATOM     17  C   UNL     1       5.427   5.833  18.890  0.00  0.00    +0.000 C 
BRANCH  17  18
ATOM     18  O   UNL     1       4.139   5.833  18.303  0.00  0.00    +0.000 OA
BRANCH  18  24
ATOM     19  C   UNL     1       2.652   3.855  18.698  0.00  0.00    +0.000 A 
ATOM     20  C   UNL     1       1.635   3.331  19.507  0.00  0.00    +0.000 A 
ATOM     21  C   UNL     1       1.018   4.109  20.478  0.00  0.00    +0.000 A 
ATOM     22  C   UNL     1       1.445   5.418  20.685  0.00  0.00    +0.000 A 
ATOM     23  C   UNL     1       2.505   5.927  19.932  0.00  0.00    +0.000 A 
ATOM     24  C   UNL     1       3.129   5.153  18.943  0.00  0.00    +0.000 A 
BRANCH  19  26
ATOM     25  C   UNL     1       3.453   1.717  18.092  0.00  0.00    +0.000 C 
ATOM     26  O   UNL     1       3.210   3.077  17.717  0.00  0.00    +0.000 OA
ENDBRANCH  19  26
ENDBRANCH  18  24
ENDBRANCH  17  18
ENDBRANCH   1  17
TORSDOF 6
ENDMDL
MODEL 4
REMARK VINA RESULT:      -7.4      2.120      6.584
REMARK  Name = 
REMARK  8 active torsions:
REMARK  status: ('A' for Active; 'I' for Inactive)
REMARK    1  A    between atoms: C_1  and  O_2
REMARK    2  A    between atoms: O_2  and  C_3
REMARK    3  A    between atoms: C_8  and  O_9
REMARK    4  A    between atoms: O_9  and  C_10
REMARK    5  A    between atoms: C_10  and  C_11
REMARK    6  A    between atoms: N_13  and  C_14
REMARK    7  A    between atoms: C_16  and  C_17
REMARK    8  A    between atoms: C_20  and  C_21
REMARK                            x       y       z     vdW  Elec       q    Type
REMARK                         _______ _______ _______ _____ _____    ______ ____
ROOT
ATOM      1  C   UNL     1       2.034   3.274  21.376  0.00  0.00    +0.000 C 
ATOM      2  O   UNL     1       1.557   2.816  22.419  0.00  0.00    +0.000 OA
ATOM      3  N   UNL     1       3.047   2.583  20.749  0.00  0.00    +0.000 N 
ATOM      4  H   UNL     1       3.105   1.619  21.049  0.00  0.00    +0.000 HD
ENDROOT
BRANCH   3   5
ATOM      5  C   UNL     1       3.426   2.899  19.474  0.00  0.00    +0.000 A 
ATOM      6  C   UNL     1       4.534   3.510  18.947  0.00  0.00    +0.000 A 
ATOM      7  C   UNL     1       4.329   3.464  17.538  0.00  0.00    +0.000 A 
ATOM      8  N   UNL     1       3.146   2.892  17.259  0.00  0.00    +0.000 NA
ATOM      9  O   UNL     1       2.593   2.535  18.472  0.00  0.00    +0.000 OA
BRANCH   7  10
ATOM     10  C   UNL     1       5.216   3.941  16.479  0.00  0.00    +0.000 A 
ATOM     11  C   UNL     1       6.437   4.558  16.791  0.00  0.00    +0.000 A 
ATOM     12  C   UNL     1       7.298   4.992  15.778  0.00  0.00    +0.000 A 
ATOM     13  C   UNL     1       6.953   4.814  14.435  0.00  0.00    +0.000 A 
ATOM     14  C   UNL     1       7.879   5.236  13.332  0.00  0.00    +0.000 C 
ATOM     15  C   UNL     1       5.731   4.210  14.121  0.00  0.00    +0.000 A 
ATOM     16  C   UNL     1       4.871   3.780  15.133  0.00  0.00    +0.000 A 
ENDBRANCH   7  10
ENDBRANCH   3   5
BRANCH   1  17
ATOM     17  C   UNL     1       1.484   4.549  20.724  0.00  0.00    +0.000 C 
BRANCH  17  18
ATOM     18  O   UNL     1       2.431   5.600  20.748  0.00  0.00    +0.000 OA
BRANCH  18  24
ATOM     19  C   UNL     1       2.460   7.301  18.909  0.00  0.00    +0.000 A 
ATOM     20  C   UNL     1       1.959   8.540  18.487  0.00  0.00    +0.000 A 
ATOM     21  C   UNL     1       1.189   9.328  19.333  0.00  0.00    +0.000 A 
ATOM     22  C   UNL     1       0.870   8.863  20.607  0.00  0.00    +0.000 A 
ATOM     23  C   UNL     1       1.307   7.599  21.010  0.00  0.00    +0.000 A 
ATOM     24  C   UNL     1       2.091   6.799  20.167  0.00  0.00    +0.000 A 
BRANCH  19  26
ATOM     25  C   UNL     1       4.052   7.340  17.163  0.00  0.00    +0.000 C 
ATOM     26  O   UNL     1       3.255   6.568  18.066  0.00  0.00    +0.000 OA
ENDBRANCH  19  26
ENDBRANCH  18  24
ENDBRANCH  17  18
ENDBRANCH   1  17
TORSDOF 6
ENDMDL
MODEL 5
REMARK VINA RESULT:      -7.3      2.380      6.810
REMARK  Name = 
REMARK  8 active torsions:
REMARK  status: ('A' for Active; 'I' for Inactive)
REMARK    1  A    between atoms: C_1  and  O_2
REMARK    2  A    between atoms: O_2  and  C_3
REMARK    3  A    between atoms: C_8  and  O_9
REMARK    4  A    between atoms: O_9  and  C_10
REMARK    5  A    between atoms: C_10  and  C_11
REMARK    6  A    between atoms: N_13  and  C_14
REMARK    7  A    between atoms: C_16  and  C_17
REMARK    8  A    between atoms: C_20  and  C_21
REMARK                            x       y       z     vdW  Elec       q    Type
REMARK                         _______ _______ _______ _____ _____    ______ ____
ROOT
ATOM      1  C   UNL     1       2.093   3.361  20.480  0.00  0.00    +0.000 C 
ATOM      2  O   UNL     1       1.247   2.769  21.158  0.00  0.00    +0.000 OA
ATOM      3  N   UNL     1       3.356   2.821  20.373  0.00  0.00    +0.000 N 
ATOM      4  H   UNL     1       3.384   1.843  20.627  0.00  0.00    +0.000 HD
ENDROOT
BRANCH   3   5
ATOM      5  C   UNL     1       4.238   3.285  19.438  0.00  0.00    +0.000 A 
ATOM      6  C   UNL     1       4.307   3.175  18.073  0.00  0.00    +0.000 A 
ATOM      7  C   UNL     1       5.442   3.955  17.709  0.00  0.00    +0.000 A 
ATOM      8  N   UNL     1       6.027   4.462  18.806  0.00  0.00    +0.000 NA
ATOM      9  O   UNL     1       5.266   4.047  19.880  0.00  0.00    +0.000 OA
BRANCH   7  10
ATOM     10  C   UNL     1       5.964   4.221  16.371  0.00  0.00    +0.000 A 
ATOM     11  C   UNL     1       5.280   3.770  15.231  0.00  0.00    +0.000 A 
ATOM     12  C   UNL     1       5.768   4.046  13.949  0.00  0.00    +0.000 A 
ATOM     13  C   UNL     1       6.946   4.779  13.786  0.00  0.00    +0.000 A 
ATOM     14  C   UNL     1       7.465   5.121  12.420  0.00  0.00    +0.000 C 
ATOM     15  C   UNL     1       7.637   5.220  14.920  0.00  0.00    +0.000 A 
ATOM     16  C   UNL     1       7.151   4.941  16.199  0.00  0.00    +0.000 A 
ENDBRANCH   7  10
ENDBRANCH   3   5
BRANCH   1  17
ATOM     17  C   UNL     1       1.757   4.637  19.697  0.00  0.00    +0.000 C 
BRANCH  17  18
ATOM     18  O   UNL     1       2.230   5.795  20.357  0.00  0.00    +0.000 OA
BRANCH  18  24
ATOM     19  C   UNL     1       1.479   8.180  20.185  0.00  0.00    +0.000 A 
ATOM     20  C   UNL     1       1.499   9.332  19.387  0.00  0.00    +0.000 A 
ATOM     21  C   UNL     1       2.029   9.307  18.103  0.00  0.00    +0.000 A 
ATOM     22  C   UNL     1       2.590   8.130  17.613  0.00  0.00    +0.000 A 
ATOM     23  C   UNL     1       2.637   6.996  18.427  0.00  0.00    +0.000 A 
ATOM     24  C   UNL     1       2.099   7.008  19.721  0.00  0.00    +0.000 A 
BRANCH  19  26
ATOM     25  C   UNL     1       0.239   9.451  21.743  0.00  0.00    +0.000 C 
ATOM     26  O   UNL     1       0.909   8.226  21.430  0.00  0.00    +0.000 OA
ENDBRANCH  19  26
ENDBRANCH  18  24
ENDBRANCH  17  18
ENDBRANCH   1  17
TORSDOF 6
ENDMDL
MODEL 6
REMARK VINA RESULT:      -7.3      1.324      1.519
REMARK  Name = 
REMARK  8 active torsions:
REMARK  status: ('A' for Active; 'I' for Inactive)
REMARK    1  A    between atoms: C_1  and  O_2
REMARK    2  A    between atoms: O_2  and  C_3
REMARK    3  A    between atoms: C_8  and  O_9
REMARK    4  A    between atoms: O_9  and  C_10
REMARK    5  A    between atoms: C_10  and  C_11
REMARK    6  A    between atoms: N_13  and  C_14
REMARK    7  A    between atoms: C_16  and  C_17
REMARK    8  A    between atoms: C_20  and  C_21
REMARK                            x       y       z     vdW  Elec       q    Type
REMARK                         _______ _______ _______ _____ _____    ______ ____
ROOT
ATOM      1  C   UNL     1       4.426   4.265  17.011  0.00  0.00    +0.000 C 
ATOM      2  O   UNL     1       5.307   3.562  16.505  0.00  0.00    +0.000 OA
ATOM      3  N   UNL     1       4.797   5.374  17.740  0.00  0.00    +0.000 N 
ATOM      4  H   UNL     1       5.746   5.666  17.548  0.00  0.00    +0.000 HD
ENDROOT
BRANCH   3   5
ATOM      5  C   UNL     1       3.876   6.319  18.094  0.00  0.00    +0.000 A 
ATOM      6  C   UNL     1       3.177   6.565  19.248  0.00  0.00    +0.000 A 
ATOM      7  C   UNL     1       2.434   7.749  18.968  0.00  0.00    +0.000 A 
ATOM      8  N   UNL     1       2.658   8.150  17.706  0.00  0.00    +0.000 NA
ATOM      9  O   UNL     1       3.565   7.258  17.170  0.00  0.00    +0.000 OA
BRANCH   7  10
ATOM     10  C   UNL     1       1.541   8.486  19.859  0.00  0.00    +0.000 A 
ATOM     11  C   UNL     1       1.334   8.061  21.180  0.00  0.00    +0.000 A 
ATOM     12  C   UNL     1       0.498   8.780  22.040  0.00  0.00    +0.000 A 
ATOM     13  C   UNL     1      -0.143   9.939  21.593  0.00  0.00    +0.000 A 
ATOM     14  C   UNL     1      -1.013  10.749  22.510  0.00  0.00    +0.000 C 
ATOM     15  C   UNL     1       0.052  10.360  20.273  0.00  0.00    +0.000 A 
ATOM     16  C   UNL     1       0.884   9.639  19.415  0.00  0.00    +0.000 A 
ENDBRANCH   7  10
ENDBRANCH   3   5
BRANCH   1  17
ATOM     17  C   UNL     1       2.935   3.980  16.793  0.00  0.00    +0.000 C 
BRANCH  17  18
ATOM     18  O   UNL     1       2.508   2.841  17.516  0.00  0.00    +0.000 OA
BRANCH  18  24
ATOM     19  C   UNL     1       3.138   2.425  19.905  0.00  0.00    +0.000 A 
ATOM     20  C   UNL     1       2.813   2.704  21.240  0.00  0.00    +0.000 A 
ATOM     21  C   UNL     1       1.660   3.406  21.567  0.00  0.00    +0.000 A 
ATOM     22  C   UNL     1       0.833   3.882  20.551  0.00  0.00    +0.000 A 
ATOM     23  C   UNL     1       1.185   3.669  19.217  0.00  0.00    +0.000 A 
ATOM     24  C   UNL     1       2.342   2.955  18.876  0.00  0.00    +0.000 A 
BRANCH  19  26
ATOM     25  C   UNL     1       5.147   1.488  20.721  0.00  0.00    +0.000 C 
ATOM     26  O   UNL     1       4.259   1.691  19.618  0.00  0.00    +0.000 OA
ENDBRANCH  19  26
ENDBRANCH  18  24
ENDBRANCH  17  18
ENDBRANCH   1  17
TORSDOF 6
ENDMDL
MODEL 7
REMARK VINA RESULT:      -7.3      4.306      5.345
REMARK  Name = 
REMARK  8 active torsions:
REMARK  status: ('A' for Active; 'I' for Inactive)
REMARK    1  A    between atoms: C_1  and  O_2
REMARK    2  A    between atoms: O_2  and  C_3
REMARK    3  A    between atoms: C_8  and  O_9
REMARK    4  A    between atoms: O_9  and  C_10
REMARK    5  A    between atoms: C_10  and  C_11
REMARK    6  A    between atoms: N_13  and  C_14
REMARK    7  A    between atoms: C_16  and  C_17
REMARK    8  A    between atoms: C_20  and  C_21
REMARK                            x       y       z     vdW  Elec       q    Type
REMARK                         _______ _______ _______ _____ _____    ______ ____
ROOT
ATOM      1  C   UNL     1       5.228   5.231  17.061  0.00  0.00    +0.000 C 
ATOM      2  O   UNL     1       4.549   4.507  16.327  0.00  0.00    +0.000 OA
ATOM      3  N   UNL     1       6.521   5.530  16.690  0.00  0.00    +0.000 N 
ATOM      4  H   UNL     1       6.693   5.360  15.709  0.00  0.00    +0.000 HD
ENDROOT
BRANCH   3   5
ATOM      5  C   UNL     1       7.218   6.522  17.320  0.00  0.00    +0.000 A 
ATOM      6  C   UNL     1       7.405   7.855  17.054  0.00  0.00    +0.000 A 
ATOM      7  C   UNL     1       8.183   8.330  18.149  0.00  0.00    +0.000 A 
ATOM      8  N   UNL     1       8.467   7.322  18.989  0.00  0.00    +0.000 NA
ATOM      9  O   UNL     1       7.855   6.199  18.470  0.00  0.00    +0.000 OA
BRANCH   7  10
ATOM     10  C   UNL     1       8.646   9.692  18.404  0.00  0.00    +0.000 A 
ATOM     11  C   UNL     1       8.282  10.745  17.551  0.00  0.00    +0.000 A 
ATOM     12  C   UNL     1       8.705  12.053  17.808  0.00  0.00    +0.000 A 
ATOM     13  C   UNL     1       9.497  12.330  18.926  0.00  0.00    +0.000 A 
ATOM     14  C   UNL     1       9.929  13.731  19.244  0.00  0.00    +0.000 C 
ATOM     15  C   UNL     1       9.871  11.281  19.773  0.00  0.00    +0.000 A 
ATOM     16  C   UNL     1       9.451   9.975  19.513  0.00  0.00    +0.000 A 
ENDBRANCH   7  10
ENDBRANCH   3   5
BRANCH   1  17
ATOM     17  C   UNL     1       4.651   5.863  18.334  0.00  0.00    +0.000 C 
BRANCH  17  18
ATOM     18  O   UNL     1       4.668   4.959  19.422  0.00  0.00    +0.000 OA
BRANCH  18  24
ATOM     19  C   UNL     1       3.192   2.972  19.813  0.00  0.00    +0.000 A 
ATOM     20  C   UNL     1       1.931   2.553  20.257  0.00  0.00    +0.000 A 
ATOM     21  C   UNL     1       0.936   3.472  20.564  0.00  0.00    +0.000 A 
ATOM     22  C   UNL     1       1.206   4.835  20.473  0.00  0.00    +0.000 A 
ATOM     23  C   UNL     1       2.482   5.263  20.098  0.00  0.00    +0.000 A 
ATOM     24  C   UNL     1       3.491   4.344  19.779  0.00  0.00    +0.000 A 
BRANCH  19  26
ATOM     25  C   UNL     1       4.958   1.591  20.558  0.00  0.00    +0.000 C 
ATOM     26  O   UNL     1       4.138   2.040  19.474  0.00  0.00    +0.000 OA
ENDBRANCH  19  26
ENDBRANCH  18  24
ENDBRANCH  17  18
ENDBRANCH   1  17
TORSDOF 6
ENDMDL
MODEL 8
REMARK VINA RESULT:      -7.3      2.162      4.384
REMARK  Name = 
REMARK  8 active torsions:
REMARK  status: ('A' for Active; 'I' for Inactive)
REMARK    1  A    between atoms: C_1  and  O_2
REMARK    2  A    between atoms: O_2  and  C_3
REMARK    3  A    between atoms: C_8  and  O_9
REMARK    4  A    between atoms: O_9  and  C_10
REMARK    5  A    between atoms: C_10  and  C_11
REMARK    6  A    between atoms: N_13  and  C_14
REMARK    7  A    between atoms: C_16  and  C_17
REMARK    8  A    between atoms: C_20  and  C_21
REMARK                            x       y       z     vdW  Elec       q    Type
REMARK                         _______ _______ _______ _____ _____    ______ ____
ROOT
ATOM      1  C   UNL     1       3.622   2.461  18.681  0.00  0.00    +0.000 C 
ATOM      2  O   UNL     1       3.702   1.235  18.556  0.00  0.00    +0.000 OA
ATOM      3  N   UNL     1       2.375   3.046  18.720  0.00  0.00    +0.000 N 
ATOM      4  H   UNL     1       1.641   2.384  18.930  0.00  0.00    +0.000 HD
ENDROOT
BRANCH   3   5
ATOM      5  C   UNL     1       2.224   4.345  19.115  0.00  0.00    +0.000 A 
ATOM      6  C   UNL     1       2.191   5.537  18.437  0.00  0.00    +0.000 A 
ATOM      7  C   UNL     1       1.931   6.511  19.443  0.00  0.00    +0.000 A 
ATOM      8  N   UNL     1       1.855   5.925  20.649  0.00  0.00    +0.000 NA
ATOM      9  O   UNL     1       2.030   4.573  20.435  0.00  0.00    +0.000 OA
BRANCH   7  10
ATOM     10  C   UNL     1       1.757   7.953  19.281  0.00  0.00    +0.000 A 
ATOM     11  C   UNL     1       2.121   8.589  18.084  0.00  0.00    +0.000 A 
ATOM     12  C   UNL     1       1.931   9.965  17.920  0.00  0.00    +0.000 A 
ATOM     13  C   UNL     1       1.372  10.728  18.949  0.00  0.00    +0.000 A 
ATOM     14  C   UNL     1       1.123  12.197  18.780  0.00  0.00    +0.000 C 
ATOM     15  C   UNL     1       1.019  10.099  20.148  0.00  0.00    +0.000 A 
ATOM     16  C   UNL     1       1.211   8.726  20.312  0.00  0.00    +0.000 A 
ENDBRANCH   7  10
ENDBRANCH   3   5
BRANCH   1  17
ATOM     17  C   UNL     1       4.866   3.340  18.867  0.00  0.00    +0.000 C 
BRANCH  17  18
ATOM     18  O   UNL     1       5.244   3.974  17.660  0.00  0.00    +0.000 OA
BRANCH  18  24
ATOM     19  C   UNL     1       6.519   5.907  16.701  0.00  0.00    +0.000 A 
ATOM     20  C   UNL     1       7.405   6.951  16.995  0.00  0.00    +0.000 A 
ATOM     21  C   UNL     1       7.985   7.070  18.252  0.00  0.00    +0.000 A 
ATOM     22  C   UNL     1       7.647   6.162  19.253  0.00  0.00    +0.000 A 
ATOM     23  C   UNL     1       6.712   5.159  18.990  0.00  0.00    +0.000 A 
ATOM     24  C   UNL     1       6.127   5.026  17.723  0.00  0.00    +0.000 A 
BRANCH  19  26
ATOM     25  C   UNL     1       6.780   5.006  14.533  0.00  0.00    +0.000 C 
ATOM     26  O   UNL     1       5.999   5.791  15.439  0.00  0.00    +0.000 OA
ENDBRANCH  19  26
ENDBRANCH  18  24
ENDBRANCH  17  18
ENDBRANCH   1  17
TORSDOF 6
ENDMDL
MODEL 9
REMARK VINA RESULT:      -7.3      4.243      5.496
REMARK  Name = 
REMARK  8 active torsions:
REMARK  status: ('A' for Active; 'I' for Inactive)
REMARK    1  A    between atoms: C_1  and  O_2
REMARK    2  A    between atoms: O_2  and  C_3
REMARK    3  A    between atoms: C_8  and  O_9
REMARK    4  A    between atoms: O_9  and  C_10
REMARK    5  A    between atoms: C_10  and  C_11
REMARK    6  A    between atoms: N_13  and  C_14
REMARK    7  A    between atoms: C_16  and  C_17
REMARK    8  A    between atoms: C_20  and  C_21
REMARK                            x       y       z     vdW  Elec       q    Type
REMARK                         _______ _______ _______ _____ _____    ______ ____
ROOT
ATOM      1  C   UNL     1       5.354   5.039  16.715  0.00  0.00    +0.000 C 
ATOM      2  O   UNL     1       4.776   4.294  15.918  0.00  0.00    +0.000 OA
ATOM      3  N   UNL     1       6.686   5.326  16.510  0.00  0.00    +0.000 N 
ATOM      4  H   UNL     1       6.986   5.128  15.565  0.00  0.00    +0.000 HD
ENDROOT
BRANCH   3   5
ATOM      5  C   UNL     1       7.298   6.337  17.197  0.00  0.00    +0.000 A 
ATOM      6  C   UNL     1       7.490   7.669  16.936  0.00  0.00    +0.000 A 
ATOM      7  C   UNL     1       8.142   8.169  18.101  0.00  0.00    +0.000 A 
ATOM      8  N   UNL     1       8.354   7.174  18.977  0.00  0.00    +0.000 NA
ATOM      9  O   UNL     1       7.817   6.036  18.410  0.00  0.00    +0.000 OA
BRANCH   7  10
ATOM     10  C   UNL     1       8.555   9.541  18.387  0.00  0.00    +0.000 A 
ATOM     11  C   UNL     1       9.324   9.836  19.523  0.00  0.00    +0.000 A 
ATOM     12  C   UNL     1       9.740  11.146  19.784  0.00  0.00    +0.000 A 
ATOM     13  C   UNL     1       9.394  12.182  18.912  0.00  0.00    +0.000 A 
ATOM     14  C   UNL     1       9.862  13.587  19.152  0.00  0.00    +0.000 C 
ATOM     15  C   UNL     1       8.617  11.893  17.785  0.00  0.00    +0.000 A 
ATOM     16  C   UNL     1       8.200  10.586  17.527  0.00  0.00    +0.000 A 
ENDBRANCH   7  10
ENDBRANCH   3   5
BRANCH   1  17
ATOM     17  C   UNL     1       4.617   5.709  17.881  0.00  0.00    +0.000 C 
BRANCH  17  18
ATOM     18  O   UNL     1       3.218   5.733  17.672  0.00  0.00    +0.000 OA
BRANCH  18  24
ATOM     19  C   UNL     1       2.062   5.201  19.831  0.00  0.00    +0.000 A 
ATOM     20  C   UNL     1       1.192   4.310  20.474  0.00  0.00    +0.000 A 
ATOM     21  C   UNL     1       0.762   3.148  19.848  0.00  0.00    +0.000 A 
ATOM     22  C   UNL     1       1.165   2.881  18.541  0.00  0.00    +0.000 A 
ATOM     23  C   UNL     1       1.976   3.796  17.867  0.00  0.00    +0.000 A 
ATOM     24  C   UNL     1       2.421   4.969  18.493  0.00  0.00    +0.000 A 
BRANCH  19  26
ATOM     25  C   UNL     1       1.816   7.527  20.162  0.00  0.00    +0.000 C 
ATOM     26  O   UNL     1       2.504   6.317  20.493  0.00  0.00    +0.000 OA
ENDBRANCH  19  26
ENDBRANCH  18  24
ENDBRANCH  17  18
ENDBRANCH   1  17
TORSDOF 6
ENDMDL
