MODEL 1
REMARK VINA RESULT:      -7.3      0.000      0.000
REMARK  Name = 
REMARK  3 active torsions:
REMARK  status: ('A' for Active; 'I' for Inactive)
REMARK    1  A    between atoms: C_1  and  C_2
REMARK    2  A    between atoms: C_4  and  C_5
REMARK    3  A    between atoms: C_6  and  C_7
REMARK                            x       y       z     vdW  Elec       q    Type
REMARK                         _______ _______ _______ _____ _____    ______ ____
ROOT
ATOM      1  C   UNL     1       2.558   6.434  19.278  0.00  0.00    +0.000 C 
ATOM      2  O   UNL     1       2.267   5.975  20.377  0.00  0.00    +0.000 OA
ATOM      3  N   UNL     1       2.266   7.729  18.885  0.00  0.00    +0.000 N 
ATOM      4  C   UNL     1       1.626   8.571  19.757  0.00  0.00    +0.000 A 
ATOM      5  N   UNL     1       1.450   8.412  21.044  0.00  0.00    +0.000 NA
ATOM      6  C   UNL     1       0.651   9.413  21.530  0.00  0.00    +0.000 A 
ATOM      7  C   UNL     1       0.242  10.344  20.598  0.00  0.00    +0.000 A 
ATOM      8  S   UNL     1       0.941   9.987  19.077  0.00  0.00    +0.000 S 
ATOM      9  C   UNL     1      -0.713  11.453  20.871  0.00  0.00    +0.000 C 
ATOM     10  C   UNL     1      -0.878  11.661  22.392  0.00  0.00    +0.000 C 
ATOM     11  C   UNL     1      -0.989  10.333  23.164  0.00  0.00    +0.000 C 
ATOM     12  C   UNL     1       0.255   9.453  22.965  0.00  0.00    +0.000 C 
ATOM     13  H   UNL     1       2.393   8.027  17.932  0.00  0.00    +0.000 HD
ENDROOT
BRANCH   1  19
ATOM     14  C   UNL     1       5.733   3.967  15.809  0.00  0.00    +0.000 C 
ATOM     15  C   UNL     1       4.631   4.419  16.701  0.00  0.00    +0.000 A 
ATOM     16  N   UNL     1       3.522   3.740  16.875  0.00  0.00    +0.000 NA
ATOM     17  C   UNL     1       2.704   4.386  17.783  0.00  0.00    +0.000 A 
ATOM     18  C   UNL     1       1.398   3.751  18.117  0.00  0.00    +0.000 C 
ATOM     19  C   UNL     1       3.207   5.580  18.288  0.00  0.00    +0.000 A 
ATOM     20  S   UNL     1       4.741   5.891  17.585  0.00  0.00    +0.000 S 
ENDBRANCH   1  19
TORSDOF 1
ENDMDL
MODEL 2
REMARK VINA RESULT:      -7.0      2.219      7.692
REMARK  Name = 
REMARK  3 active torsions:
REMARK  status: ('A' for Active; 'I' for Inactive)
REMARK    1  A    between atoms: C_1  and  C_2
REMARK    2  A    between atoms: C_4  and  C_5
REMARK    3  A    between atoms: C_6  and  C_7
REMARK                            x       y       z     vdW  Elec       q    Type
REMARK                         _______ _______ _______ _____ _____    ______ ____
ROOT
ATOM      1  C   UNL     1       1.545   9.315  18.565  0.00  0.00    +0.000 C 
ATOM      2  O   UNL     1       2.043   9.732  17.525  0.00  0.00    +0.000 OA
ATOM      3  N   UNL     1       1.841   8.080  19.116  0.00  0.00    +0.000 N 
ATOM      4  C   UNL     1       2.745   7.260  18.492  0.00  0.00    +0.000 A 
ATOM      5  N   UNL     1       3.589   7.572  17.542  0.00  0.00    +0.000 NA
ATOM      6  C   UNL     1       4.228   6.444  17.101  0.00  0.00    +0.000 A 
ATOM      7  C   UNL     1       3.872   5.277  17.744  0.00  0.00    +0.000 A 
ATOM      8  S   UNL     1       2.749   5.620  18.990  0.00  0.00    +0.000 S 
ATOM      9  C   UNL     1       4.352   3.919  17.364  0.00  0.00    +0.000 C 
ATOM     10  C   UNL     1       5.578   4.023  16.430  0.00  0.00    +0.000 C 
ATOM     11  C   UNL     1       5.417   5.118  15.359  0.00  0.00    +0.000 C 
ATOM     12  C   UNL     1       5.217   6.505  15.989  0.00  0.00    +0.000 C 
ATOM     13  H   UNL     1       1.311   7.714  19.891  0.00  0.00    +0.000 HD
ENDROOT
BRANCH   1  19
ATOM     14  C   UNL     1      -1.316  12.435  21.771  0.00  0.00    +0.000 C 
ATOM     15  C   UNL     1      -0.793  11.549  20.696  0.00  0.00    +0.000 A 
ATOM     16  N   UNL     1      -1.477  11.245  19.619  0.00  0.00    +0.000 NA
ATOM     17  C   UNL     1      -0.722  10.437  18.787  0.00  0.00    +0.000 A 
ATOM     18  C   UNL     1      -1.335   9.999  17.501  0.00  0.00    +0.000 C 
ATOM     19  C   UNL     1       0.546  10.121  19.260  0.00  0.00    +0.000 A 
ATOM     20  S   UNL     1       0.778  10.853  20.794  0.00  0.00    +0.000 S 
ENDBRANCH   1  19
TORSDOF 1
ENDMDL
MODEL 3
REMARK VINA RESULT:      -6.7      1.261      1.453
REMARK  Name = 
REMARK  3 active torsions:
REMARK  status: ('A' for Active; 'I' for Inactive)
REMARK    1  A    between atoms: C_1  and  C_2
REMARK    2  A    between atoms: C_4  and  C_5
REMARK    3  A    between atoms: C_6  and  C_7
REMARK                            x       y       z     vdW  Elec       q    Type
REMARK                         _______ _______ _______ _____ _____    ______ ____
ROOT
ATOM      1  C   UNL     1       3.483   6.239  18.260  0.00  0.00    +0.000 C 
ATOM      2  O   UNL     1       3.305   5.716  19.355  0.00  0.00    +0.000 OA
ATOM      3  N   UNL     1       2.971   7.476  17.907  0.00  0.00    +0.000 N 
ATOM      4  C   UNL     1       2.228   8.184  18.816  0.00  0.00    +0.000 A 
ATOM      5  N   UNL     1       2.120   7.972  20.102  0.00  0.00    +0.000 NA
ATOM      6  C   UNL     1       1.183   8.818  20.634  0.00  0.00    +0.000 A 
ATOM      7  C   UNL     1       0.599   9.687  19.736  0.00  0.00    +0.000 A 
ATOM      8  S   UNL     1       1.300   9.481  18.189  0.00  0.00    +0.000 S 
ATOM      9  C   UNL     1      -0.517  10.619  20.062  0.00  0.00    +0.000 C 
ATOM     10  C   UNL     1      -0.667  10.766  21.592  0.00  0.00    +0.000 C 
ATOM     11  C   UNL     1      -0.536   9.422  22.333  0.00  0.00    +0.000 C 
ATOM     12  C   UNL     1       0.829   8.764  22.080  0.00  0.00    +0.000 C 
ATOM     13  H   UNL     1       3.018   7.809  16.958  0.00  0.00    +0.000 HD
ENDROOT
BRANCH   1  19
ATOM     14  C   UNL     1       6.669   4.559  14.358  0.00  0.00    +0.000 C 
ATOM     15  C   UNL     1       5.679   4.714  15.458  0.00  0.00    +0.000 A 
ATOM     16  N   UNL     1       5.041   3.704  15.999  0.00  0.00    +0.000 NA
ATOM     17  C   UNL     1       4.218   4.149  17.017  0.00  0.00    +0.000 A 
ATOM     18  C   UNL     1       3.419   3.134  17.760  0.00  0.00    +0.000 C 
ATOM     19  C   UNL     1       4.233   5.523  17.232  0.00  0.00    +0.000 A 
ATOM     20  S   UNL     1       5.302   6.261  16.112  0.00  0.00    +0.000 S 
ENDBRANCH   1  19
TORSDOF 1
ENDMDL
MODEL 4
REMARK VINA RESULT:      -6.7      2.063      2.889
REMARK  Name = 
REMARK  3 active torsions:
REMARK  status: ('A' for Active; 'I' for Inactive)
REMARK    1  A    between atoms: C_1  and  C_2
REMARK    2  A    between atoms: C_4  and  C_5
REMARK    3  A    between atoms: C_6  and  C_7
REMARK                            x       y       z     vdW  Elec       q    Type
REMARK                         _______ _______ _______ _____ _____    ______ ____
ROOT
ATOM      1  C   UNL     1       4.286   6.288  17.758  0.00  0.00    +0.000 C 
ATOM      2  O   UNL     1       4.034   5.621  18.756  0.00  0.00    +0.000 OA
ATOM      3  N   UNL     1       3.711   7.520  17.493  0.00  0.00    +0.000 N 
ATOM      4  C   UNL     1       2.815   8.053  18.383  0.00  0.00    +0.000 A 
ATOM      5  N   UNL     1       2.586   7.675  19.614  0.00  0.00    +0.000 NA
ATOM      6  C   UNL     1       1.527   8.378  20.126  0.00  0.00    +0.000 A 
ATOM      7  C   UNL     1       0.973   9.309  19.272  0.00  0.00    +0.000 A 
ATOM      8  S   UNL     1       1.854   9.349  17.805  0.00  0.00    +0.000 S 
ATOM      9  C   UNL     1      -0.247  10.111  19.568  0.00  0.00    +0.000 C 
ATOM     10  C   UNL     1      -0.576  10.054  21.077  0.00  0.00    +0.000 C 
ATOM     11  C   UNL     1      -0.412   8.641  21.667  0.00  0.00    +0.000 C 
ATOM     12  C   UNL     1       1.023   8.119  21.503  0.00  0.00    +0.000 C 
ATOM     13  H   UNL     1       3.834   7.972  16.601  0.00  0.00    +0.000 HD
ENDROOT
BRANCH   1  19
ATOM     14  C   UNL     1       6.758   3.953  13.680  0.00  0.00    +0.000 C 
ATOM     15  C   UNL     1       6.367   4.717  14.895  0.00  0.00    +0.000 A 
ATOM     16  N   UNL     1       7.199   5.483  15.561  0.00  0.00    +0.000 NA
ATOM     17  C   UNL     1       6.546   6.091  16.618  0.00  0.00    +0.000 A 
ATOM     18  C   UNL     1       7.334   7.013  17.484  0.00  0.00    +0.000 C 
ATOM     19  C   UNL     1       5.202   5.762  16.751  0.00  0.00    +0.000 A 
ATOM     20  S   UNL     1       4.765   4.651  15.519  0.00  0.00    +0.000 S 
ENDBRANCH   1  19
TORSDOF 1
ENDMDL
MODEL 5
REMARK VINA RESULT:      -6.5      2.073      7.695
REMARK  Name = 
REMARK  3 active torsions:
REMARK  status: ('A' for Active; 'I' for Inactive)
REMARK    1  A    between atoms: C_1  and  C_2
REMARK    2  A    between atoms: C_4  and  C_5
REMARK    3  A    between atoms: C_6  and  C_7
REMARK                            x       y       z     vdW  Elec       q    Type
REMARK                         _______ _______ _______ _____ _____    ______ ____
ROOT
ATOM      1  C   UNL     1       1.634   9.186  18.596  0.00  0.00    +0.000 C 
ATOM      2  O   UNL     1       2.152   9.643  17.583  0.00  0.00    +0.000 OA
ATOM      3  N   UNL     1       1.899   7.918  19.088  0.00  0.00    +0.000 N 
ATOM      4  C   UNL     1       2.794   7.112  18.432  0.00  0.00    +0.000 A 
ATOM      5  N   UNL     1       3.653   7.454  17.507  0.00  0.00    +0.000 NA
ATOM      6  C   UNL     1       4.274   6.337  17.016  0.00  0.00    +0.000 A 
ATOM      7  C   UNL     1       3.888   5.146  17.597  0.00  0.00    +0.000 A 
ATOM      8  S   UNL     1       2.760   5.450  18.847  0.00  0.00    +0.000 S 
ATOM      9  C   UNL     1       4.344   3.799  17.153  0.00  0.00    +0.000 C 
ATOM     10  C   UNL     1       5.582   3.924  16.237  0.00  0.00    +0.000 C 
ATOM     11  C   UNL     1       5.455   5.075  15.221  0.00  0.00    +0.000 C 
ATOM     12  C   UNL     1       5.277   6.432  15.918  0.00  0.00    +0.000 C 
ATOM     13  H   UNL     1       1.354   7.525  19.838  0.00  0.00    +0.000 HD
ENDROOT
BRANCH   1  19
ATOM     14  C   UNL     1      -2.297  12.332  20.282  0.00  0.00    +0.000 C 
ATOM     15  C   UNL     1      -1.148  11.399  20.132  0.00  0.00    +0.000 A 
ATOM     16  N   UNL     1      -0.600  10.765  21.142  0.00  0.00    +0.000 NA
ATOM     17  C   UNL     1       0.419   9.944  20.693  0.00  0.00    +0.000 A 
ATOM     18  C   UNL     1       1.153   9.131  21.704  0.00  0.00    +0.000 C 
ATOM     19  C   UNL     1       0.645   9.976  19.321  0.00  0.00    +0.000 A 
ATOM     20  S   UNL     1      -0.450  11.078  18.592  0.00  0.00    +0.000 S 
ENDBRANCH   1  19
TORSDOF 1
ENDMDL
MODEL 6
REMARK VINA RESULT:      -6.5      1.573      2.033
REMARK  Name = 
REMARK  3 active torsions:
REMARK  status: ('A' for Active; 'I' for Inactive)
REMARK    1  A    between atoms: C_1  and  C_2
REMARK    2  A    between atoms: C_4  and  C_5
REMARK    3  A    between atoms: C_6  and  C_7
REMARK                            x       y       z     vdW  Elec       q    Type
REMARK                         _______ _______ _______ _____ _____    ______ ____
ROOT
ATOM      1  C   UNL     1       2.785   7.585  18.131  0.00  0.00    +0.000 C 
ATOM      2  O   UNL     1       2.524   8.498  17.355  0.00  0.00    +0.000 OA
ATOM      3  N   UNL     1       2.270   7.496  19.413  0.00  0.00    +0.000 N 
ATOM      4  C   UNL     1       1.410   8.463  19.864  0.00  0.00    +0.000 A 
ATOM      5  N   UNL     1       0.784   9.372  19.161  0.00  0.00    +0.000 NA
ATOM      6  C   UNL     1       0.119  10.229  19.998  0.00  0.00    +0.000 A 
ATOM      7  C   UNL     1       0.233   9.943  21.343  0.00  0.00    +0.000 A 
ATOM      8  S   UNL     1       1.147   8.513  21.557  0.00  0.00    +0.000 S 
ATOM      9  C   UNL     1      -0.311  10.793  22.438  0.00  0.00    +0.000 C 
ATOM     10  C   UNL     1      -1.336  11.805  21.878  0.00  0.00    +0.000 C 
ATOM     11  C   UNL     1      -0.875  12.444  20.555  0.00  0.00    +0.000 C 
ATOM     12  C   UNL     1      -0.647  11.388  19.462  0.00  0.00    +0.000 C 
ATOM     13  H   UNL     1       2.614   6.812  20.067  0.00  0.00    +0.000 HD
ENDROOT
BRANCH   1  19
ATOM     14  C   UNL     1       6.914   4.550  16.738  0.00  0.00    +0.000 C 
ATOM     15  C   UNL     1       5.587   5.120  17.096  0.00  0.00    +0.000 A 
ATOM     16  N   UNL     1       4.507   4.390  17.241  0.00  0.00    +0.000 NA
ATOM     17  C   UNL     1       3.438   5.187  17.609  0.00  0.00    +0.000 A 
ATOM     18  C   UNL     1       2.121   4.525  17.832  0.00  0.00    +0.000 C 
ATOM     19  C   UNL     1       3.724   6.542  17.728  0.00  0.00    +0.000 A 
ATOM     20  S   UNL     1       5.377   6.808  17.354  0.00  0.00    +0.000 S 
ENDBRANCH   1  19
TORSDOF 1
ENDMDL
MODEL 7
REMARK VINA RESULT:      -6.5      2.703      7.468
REMARK  Name = 
REMARK  3 active torsions:
REMARK  status: ('A' for Active; 'I' for Inactive)
REMARK    1  A    between atoms: C_1  and  C_2
REMARK    2  A    between atoms: C_4  and  C_5
REMARK    3  A    between atoms: C_6  and  C_7
REMARK                            x       y       z     vdW  Elec       q    Type
REMARK                         _______ _______ _______ _____ _____    ______ ____
ROOT
ATOM      1  C   UNL     1       1.435   9.580  18.486  0.00  0.00    +0.000 C 
ATOM      2  O   UNL     1       1.904   9.481  17.357  0.00  0.00    +0.000 OA
ATOM      3  N   UNL     1       1.575   8.608  19.462  0.00  0.00    +0.000 N 
ATOM      4  C   UNL     1       2.280   7.466  19.183  0.00  0.00    +0.000 A 
ATOM      5  N   UNL     1       3.079   7.243  18.172  0.00  0.00    +0.000 NA
ATOM      6  C   UNL     1       3.489   5.937  18.184  0.00  0.00    +0.000 A 
ATOM      7  C   UNL     1       3.007   5.179  19.231  0.00  0.00    +0.000 A 
ATOM      8  S   UNL     1       2.064   6.159  20.270  0.00  0.00    +0.000 S 
ATOM      9  C   UNL     1       3.228   3.714  19.390  0.00  0.00    +0.000 C 
ATOM     10  C   UNL     1       4.372   3.239  18.467  0.00  0.00    +0.000 C 
ATOM     11  C   UNL     1       4.298   3.865  17.061  0.00  0.00    +0.000 C 
ATOM     12  C   UNL     1       4.378   5.398  17.117  0.00  0.00    +0.000 C 
ATOM     13  H   UNL     1       1.061   8.660  20.327  0.00  0.00    +0.000 HD
ENDROOT
BRANCH   1  19
ATOM     14  C   UNL     1      -0.557  14.208  20.161  0.00  0.00    +0.000 C 
ATOM     15  C   UNL     1      -0.306  12.861  19.581  0.00  0.00    +0.000 A 
ATOM     16  N   UNL     1      -1.197  12.202  18.879  0.00  0.00    +0.000 NA
ATOM     17  C   UNL     1      -0.668  11.001  18.443  0.00  0.00    +0.000 A 
ATOM     18  C   UNL     1      -1.539  10.119  17.615  0.00  0.00    +0.000 C 
ATOM     19  C   UNL     1       0.641  10.753  18.837  0.00  0.00    +0.000 A 
ATOM     20  S   UNL     1       1.204  12.063  19.791  0.00  0.00    +0.000 S 
ENDBRANCH   1  19
TORSDOF 1
ENDMDL
MODEL 8
REMARK VINA RESULT:      -6.3      2.618      7.639
REMARK  Name = 
REMARK  3 active torsions:
REMARK  status: ('A' for Active; 'I' for Inactive)
REMARK    1  A    between atoms: C_1  and  C_2
REMARK    2  A    between atoms: C_4  and  C_5
REMARK    3  A    between atoms: C_6  and  C_7
REMARK                            x       y       z     vdW  Elec       q    Type
REMARK                         _______ _______ _______ _____ _____    ______ ____
ROOT
ATOM      1  C   UNL     1       1.505   9.552  18.467  0.00  0.00    +0.000 C 
ATOM      2  O   UNL     1       1.960   9.462  17.331  0.00  0.00    +0.000 OA
ATOM      3  N   UNL     1       1.641   8.565  19.428  0.00  0.00    +0.000 N 
ATOM      4  C   UNL     1       2.328   7.417  19.126  0.00  0.00    +0.000 A 
ATOM      5  N   UNL     1       3.113   7.198  18.103  0.00  0.00    +0.000 NA
ATOM      6  C   UNL     1       3.506   5.886  18.093  0.00  0.00    +0.000 A 
ATOM      7  C   UNL     1       3.024   5.120  19.135  0.00  0.00    +0.000 A 
ATOM      8  S   UNL     1       2.105   6.098  20.197  0.00  0.00    +0.000 S 
ATOM      9  C   UNL     1       3.227   3.651  19.272  0.00  0.00    +0.000 C 
ATOM     10  C   UNL     1       4.354   3.173  18.330  0.00  0.00    +0.000 C 
ATOM     11  C   UNL     1       4.274   3.819  16.934  0.00  0.00    +0.000 C 
ATOM     12  C   UNL     1       4.376   5.350  17.009  0.00  0.00    +0.000 C 
ATOM     13  H   UNL     1       1.137   8.611  20.299  0.00  0.00    +0.000 HD
ENDROOT
BRANCH   1  19
ATOM     14  C   UNL     1      -1.996  13.145  20.208  0.00  0.00    +0.000 C 
ATOM     15  C   UNL     1      -0.841  12.404  19.633  0.00  0.00    +0.000 A 
ATOM     16  N   UNL     1       0.254  12.993  19.213  0.00  0.00    +0.000 NA
ATOM     17  C   UNL     1       1.162  12.050  18.767  0.00  0.00    +0.000 A 
ATOM     18  C   UNL     1       2.477  12.536  18.261  0.00  0.00    +0.000 C 
ATOM     19  C   UNL     1       0.731  10.730  18.843  0.00  0.00    +0.000 A 
ATOM     20  S   UNL     1      -0.862  10.690  19.481  0.00  0.00    +0.000 S 
ENDBRANCH   1  19
TORSDOF 1
ENDMDL
MODEL 9
REMARK VINA RESULT:      -6.3      2.517      7.844
REMARK  Name = 
REMARK  3 active torsions:
REMARK  status: ('A' for Active; 'I' for Inactive)
REMARK    1  A    between atoms: C_1  and  C_2
REMARK    2  A    between atoms: C_4  and  C_5
REMARK    3  A    between atoms: C_6  and  C_7
REMARK                            x       y       z     vdW  Elec       q    Type
REMARK                         _______ _______ _______ _____ _____    ______ ____
ROOT
ATOM      1  C   UNL     1       1.690   9.684  18.326  0.00  0.00    +0.000 C 
ATOM      2  O   UNL     1       2.258   9.938  17.269  0.00  0.00    +0.000 OA
ATOM      3  N   UNL     1       1.839   8.488  19.008  0.00  0.00    +0.000 N 
ATOM      4  C   UNL     1       2.668   7.520  18.502  0.00  0.00    +0.000 A 
ATOM      5  N   UNL     1       3.565   7.645  17.558  0.00  0.00    +0.000 NA
ATOM      6  C   UNL     1       4.092   6.418  17.254  0.00  0.00    +0.000 A 
ATOM      7  C   UNL     1       3.598   5.366  17.997  0.00  0.00    +0.000 A 
ATOM      8  S   UNL     1       2.485   5.948  19.159  0.00  0.00    +0.000 S 
ATOM      9  C   UNL     1       3.941   3.934  17.771  0.00  0.00    +0.000 C 
ATOM     10  C   UNL     1       5.196   3.815  16.878  0.00  0.00    +0.000 C 
ATOM     11  C   UNL     1       5.180   4.805  15.698  0.00  0.00    +0.000 C 
ATOM     12  C   UNL     1       5.112   6.262  16.180  0.00  0.00    +0.000 C 
ATOM     13  H   UNL     1       1.253   8.259  19.794  0.00  0.00    +0.000 HD
ENDROOT
BRANCH   1  19
ATOM     14  C   UNL     1      -2.276  12.381  20.605  0.00  0.00    +0.000 C 
ATOM     15  C   UNL     1      -1.024  11.922  19.944  0.00  0.00    +0.000 A 
ATOM     16  N   UNL     1      -0.005  12.714  19.706  0.00  0.00    +0.000 NA
ATOM     17  C   UNL     1       1.025  12.003  19.117  0.00  0.00    +0.000 A 
ATOM     18  C   UNL     1       2.277  12.740  18.784  0.00  0.00    +0.000 C 
ATOM     19  C   UNL     1       0.764  10.655  18.900  0.00  0.00    +0.000 A 
ATOM     20  S   UNL     1      -0.822  10.289  19.442  0.00  0.00    +0.000 S 
ENDBRANCH   1  19
TORSDOF 1
ENDMDL
