MODEL 1
REMARK VINA RESULT:      -8.2      0.000      0.000
REMARK  Name = 
REMARK  12 active torsions:
REMARK  status: ('A' for Active; 'I' for Inactive)
REMARK    1  A    between atoms: C_1  and  O_2
REMARK    2  A    between atoms: O_2  and  C_3
REMARK    3  A    between atoms: C_6  and  N_7
REMARK    4  A    between atoms: C_8  and  C_10
REMARK    5  A    between atoms: C_10  and  S_11
REMARK    6  A    between atoms: S_11  and  C_12
REMARK    7  A    between atoms: C_15  and  C_16
REMARK    8  A    between atoms: C_16  and  N_17
REMARK    9  A    between atoms: C_18  and  C_20
REMARK   10  A    between atoms: N_25  and  C_26
REMARK   11  A    between atoms: C_31  and  O_32
REMARK   12  A    between atoms: O_32  and  C_33
REMARK                            x       y       z     vdW  Elec       q    Type
REMARK                         _______ _______ _______ _____ _____    ______ ____
ROOT
ATOM      1  C   UNL     1       2.559   7.439  18.626  0.00  0.00    +0.000 A 
ATOM      2  N   UNL     1       3.347   8.040  17.767  0.00  0.00    +0.000 NA
ATOM      3  N   UNL     1       4.352   7.180  17.438  0.00  0.00    +0.000 NA
ATOM      4  C   UNL     1       4.137   6.029  18.052  0.00  0.00    +0.000 A 
ATOM      5  N   UNL     1       2.941   6.111  18.795  0.00  0.00    +0.000 N 
ENDROOT
BRANCH   5   6
ATOM      6  C   UNL     1       2.301   5.036  19.497  0.00  0.00    +0.000 A 
ATOM      7  C   UNL     1       2.490   4.954  20.887  0.00  0.00    +0.000 A 
ATOM      8  C   UNL     1       2.080   3.843  21.619  0.00  0.00    +0.000 A 
ATOM      9  C   UNL     1       1.373   2.836  20.988  0.00  0.00    +0.000 A 
ATOM     10  C   UNL     1       1.092   2.938  19.626  0.00  0.00    +0.000 A 
ATOM     11  C   UNL     1       1.585   4.007  18.853  0.00  0.00    +0.000 A 
BRANCH  11  12
ATOM     12  O   UNL     1       1.457   4.040  17.490  0.00  0.00    +0.000 OA
ATOM     13  C   UNL     1       2.216   3.101  16.733  0.00  0.00    +0.000 C 
ENDBRANCH  11  12
ENDBRANCH   5   6
BRANCH   1  14
ATOM     14  S   UNL     1       1.394   8.298  19.594  0.00  0.00    +0.000 S 
BRANCH  14  15
ATOM     15  C   UNL     1       0.880   9.648  18.490  0.00  0.00    +0.000 C 
BRANCH  15  17
ATOM     16  N   UNL     1       1.448  11.990  18.173  0.00  0.00    +0.000 N 
ATOM     17  C   UNL     1       1.174  11.007  19.109  0.00  0.00    +0.000 C 
ATOM     18  O   UNL     1       1.141  11.155  20.329  0.00  0.00    +0.000 OA
ATOM     19  H   UNL     1       1.550  11.675  17.209  0.00  0.00    +0.000 HD
BRANCH  16  23
ATOM     20  C   UNL     1       2.476  16.034  18.833  0.00  0.00    +0.000 A 
ATOM     21  C   UNL     1       3.476  15.106  18.551  0.00  0.00    +0.000 A 
ATOM     22  C   UNL     1       3.166  13.758  18.339  0.00  0.00    +0.000 A 
ATOM     23  C   UNL     1       1.846  13.320  18.412  0.00  0.00    +0.000 A 
ATOM     24  C   UNL     1       0.843  14.253  18.710  0.00  0.00    +0.000 A 
ATOM     25  C   UNL     1       1.155  15.603  18.923  0.00  0.00    +0.000 A 
BRANCH  20  27
ATOM     26  C   UNL     1       3.577  17.551  20.273  0.00  0.00    +0.000 C 
ATOM     27  O   UNL     1       2.917  17.310  19.036  0.00  0.00    +0.000 OA
ENDBRANCH  20  27
ENDBRANCH  16  23
ENDBRANCH  15  17
ENDBRANCH  14  15
ENDBRANCH   1  14
BRANCH   4  28
ATOM     28  C   UNL     1       4.958   4.803  17.793  0.00  0.00    +0.000 C 
BRANCH  28  29
ATOM     29  N   UNL     1       5.309   4.693  16.385  0.00  0.00    +0.000 N 
ATOM     30  C   UNL     1       6.617   4.865  15.964  0.00  0.00    +0.000 C 
ATOM     31  O   UNL     1       7.515   5.181  16.741  0.00  0.00    +0.000 OA
ATOM     32  H   UNL     1       4.655   4.290  15.731  0.00  0.00    +0.000 HD
BRANCH  30  33
ATOM     33  C   UNL     1       6.833   4.680  14.541  0.00  0.00    +0.000 A 
ATOM     34  C   UNL     1       6.267   3.794  13.644  0.00  0.00    +0.000 A 
ATOM     35  C   UNL     1       6.877   4.031  12.386  0.00  0.00    +0.000 A 
ATOM     36  C   UNL     1       7.778   5.052  12.593  0.00  0.00    +0.000 A 
ATOM     37  O   UNL     1       7.758   5.456  13.890  0.00  0.00    +0.000 OA
ENDBRANCH  30  33
ENDBRANCH  28  29
ENDBRANCH   4  28
TORSDOF 10
ENDMDL
MODEL 2
REMARK VINA RESULT:      -8.1      2.472      3.150
REMARK  Name = 
REMARK  12 active torsions:
REMARK  status: ('A' for Active; 'I' for Inactive)
REMARK    1  A    between atoms: C_1  and  O_2
REMARK    2  A    between atoms: O_2  and  C_3
REMARK    3  A    between atoms: C_6  and  N_7
REMARK    4  A    between atoms: C_8  and  C_10
REMARK    5  A    between atoms: C_10  and  S_11
REMARK    6  A    between atoms: S_11  and  C_12
REMARK    7  A    between atoms: C_15  and  C_16
REMARK    8  A    between atoms: C_16  and  N_17
REMARK    9  A    between atoms: C_18  and  C_20
REMARK   10  A    between atoms: N_25  and  C_26
REMARK   11  A    between atoms: C_31  and  O_32
REMARK   12  A    between atoms: O_32  and  C_33
REMARK                            x       y       z     vdW  Elec       q    Type
REMARK                         _______ _______ _______ _____ _____    ______ ____
ROOT
ATOM      1  C   UNL     1       2.538   7.425  18.663  0.00  0.00    +0.000 A 
ATOM      2  N   UNL     1       3.291   8.017  17.766  0.00  0.00    +0.000 NA
ATOM      3  N   UNL     1       4.273   7.148  17.395  0.00  0.00    +0.000 NA
ATOM      4  C   UNL     1       4.079   6.001  18.023  0.00  0.00    +0.000 A 
ATOM      5  N   UNL     1       2.919   6.094  18.820  0.00  0.00    +0.000 N 
ENDROOT
BRANCH   5   6
ATOM      6  C   UNL     1       2.305   5.027  19.555  0.00  0.00    +0.000 A 
ATOM      7  C   UNL     1       2.556   4.950  20.935  0.00  0.00    +0.000 A 
ATOM      8  C   UNL     1       2.173   3.844  21.690  0.00  0.00    +0.000 A 
ATOM      9  C   UNL     1       1.431   2.839  21.097  0.00  0.00    +0.000 A 
ATOM     10  C   UNL     1       1.090   2.937  19.748  0.00  0.00    +0.000 A 
ATOM     11  C   UNL     1       1.554   3.999  18.949  0.00  0.00    +0.000 A 
BRANCH  11  12
ATOM     12  O   UNL     1       1.364   4.028  17.593  0.00  0.00    +0.000 OA
ATOM     13  C   UNL     1       2.143   3.137  16.799  0.00  0.00    +0.000 C 
ENDBRANCH  11  12
ENDBRANCH   5   6
BRANCH   1  14
ATOM     14  S   UNL     1       1.426   8.296  19.681  0.00  0.00    +0.000 S 
BRANCH  14  15
ATOM     15  C   UNL     1       1.283   9.897  18.832  0.00  0.00    +0.000 C 
BRANCH  15  17
ATOM     16  N   UNL     1       0.545  11.189  20.753  0.00  0.00    +0.000 N 
ATOM     17  C   UNL     1       0.214  10.768  19.476  0.00  0.00    +0.000 C 
ATOM     18  O   UNL     1      -0.814  11.045  18.863  0.00  0.00    +0.000 OA
ATOM     19  H   UNL     1       1.382  10.773  21.159  0.00  0.00    +0.000 HD
BRANCH  16  23
ATOM     20  C   UNL     1      -1.713  13.509  23.467  0.00  0.00    +0.000 A 
ATOM     21  C   UNL     1      -1.973  12.145  23.343  0.00  0.00    +0.000 A 
ATOM     22  C   UNL     1      -1.249  11.355  22.444  0.00  0.00    +0.000 A 
ATOM     23  C   UNL     1      -0.254  11.923  21.651  0.00  0.00    +0.000 A 
ATOM     24  C   UNL     1      -0.004  13.297  21.767  0.00  0.00    +0.000 A 
ATOM     25  C   UNL     1      -0.731  14.089  22.668  0.00  0.00    +0.000 A 
BRANCH  20  27
ATOM     26  C   UNL     1      -3.398  15.129  23.821  0.00  0.00    +0.000 C 
ATOM     27  O   UNL     1      -2.504  14.166  24.366  0.00  0.00    +0.000 OA
ENDBRANCH  20  27
ENDBRANCH  16  23
ENDBRANCH  15  17
ENDBRANCH  14  15
ENDBRANCH   1  14
BRANCH   4  28
ATOM     28  C   UNL     1       4.878   4.768  17.730  0.00  0.00    +0.000 C 
BRANCH  28  29
ATOM     29  N   UNL     1       5.266   4.713  16.329  0.00  0.00    +0.000 N 
ATOM     30  C   UNL     1       6.601   4.686  15.963  0.00  0.00    +0.000 C 
ATOM     31  O   UNL     1       7.505   4.776  16.790  0.00  0.00    +0.000 OA
ATOM     32  H   UNL     1       4.581   4.485  15.624  0.00  0.00    +0.000 HD
BRANCH  30  33
ATOM     33  C   UNL     1       6.844   4.582  14.536  0.00  0.00    +0.000 A 
ATOM     34  C   UNL     1       6.273   3.771  13.574  0.00  0.00    +0.000 A 
ATOM     35  C   UNL     1       6.918   4.064  12.346  0.00  0.00    +0.000 A 
ATOM     36  C   UNL     1       7.844   5.043  12.634  0.00  0.00    +0.000 A 
ATOM     37  O   UNL     1       7.806   5.368  13.953  0.00  0.00    +0.000 OA
ENDBRANCH  30  33
ENDBRANCH  28  29
ENDBRANCH   4  28
TORSDOF 10
ENDMDL
MODEL 3
REMARK VINA RESULT:      -7.9      2.815      3.972
REMARK  Name = 
REMARK  12 active torsions:
REMARK  status: ('A' for Active; 'I' for Inactive)
REMARK    1  A    between atoms: C_1  and  O_2
REMARK    2  A    between atoms: O_2  and  C_3
REMARK    3  A    between atoms: C_6  and  N_7
REMARK    4  A    between atoms: C_8  and  C_10
REMARK    5  A    between atoms: C_10  and  S_11
REMARK    6  A    between atoms: S_11  and  C_12
REMARK    7  A    between atoms: C_15  and  C_16
REMARK    8  A    between atoms: C_16  and  N_17
REMARK    9  A    between atoms: C_18  and  C_20
REMARK   10  A    between atoms: N_25  and  C_26
REMARK   11  A    between atoms: C_31  and  O_32
REMARK   12  A    between atoms: O_32  and  C_33
REMARK                            x       y       z     vdW  Elec       q    Type
REMARK                         _______ _______ _______ _____ _____    ______ ____
ROOT
ATOM      1  C   UNL     1       2.594   7.564  18.176  0.00  0.00    +0.000 A 
ATOM      2  N   UNL     1       3.382   8.116  17.284  0.00  0.00    +0.000 NA
ATOM      3  N   UNL     1       4.435   7.279  17.071  0.00  0.00    +0.000 NA
ATOM      4  C   UNL     1       4.254   6.184  17.790  0.00  0.00    +0.000 A 
ATOM      5  N   UNL     1       3.032   6.279  18.486  0.00  0.00    +0.000 N 
ENDROOT
BRANCH   5   6
ATOM      6  C   UNL     1       2.420   5.248  19.273  0.00  0.00    +0.000 A 
ATOM      7  C   UNL     1       2.538   5.330  20.671  0.00  0.00    +0.000 A 
ATOM      8  C   UNL     1       2.156   4.281  21.502  0.00  0.00    +0.000 A 
ATOM      9  C   UNL     1       1.545   3.167  20.955  0.00  0.00    +0.000 A 
ATOM     10  C   UNL     1       1.333   3.102  19.579  0.00  0.00    +0.000 A 
ATOM     11  C   UNL     1       1.803   4.110  18.715  0.00  0.00    +0.000 A 
BRANCH  11  12
ATOM     12  O   UNL     1       1.746   3.987  17.352  0.00  0.00    +0.000 OA
ATOM     13  C   UNL     1       2.384   2.856  16.766  0.00  0.00    +0.000 C 
ENDBRANCH  11  12
ENDBRANCH   5   6
BRANCH   1  14
ATOM     14  S   UNL     1       1.359   8.455  19.021  0.00  0.00    +0.000 S 
BRANCH  14  15
ATOM     15  C   UNL     1       1.759  10.179  18.603  0.00  0.00    +0.000 C 
BRANCH  15  17
ATOM     16  N   UNL     1      -0.607  10.242  18.054  0.00  0.00    +0.000 N 
ATOM     17  C   UNL     1       0.496  11.003  18.403  0.00  0.00    +0.000 C 
ATOM     18  O   UNL     1       0.516  12.221  18.564  0.00  0.00    +0.000 OA
ATOM     19  H   UNL     1      -0.427   9.261  17.846  0.00  0.00    +0.000 HD
BRANCH  16  23
ATOM     20  C   UNL     1      -4.520  11.584  17.197  0.00  0.00    +0.000 A 
ATOM     21  C   UNL     1      -3.747  11.021  16.183  0.00  0.00    +0.000 A 
ATOM     22  C   UNL     1      -2.444  10.579  16.436  0.00  0.00    +0.000 A 
ATOM     23  C   UNL     1      -1.895  10.698  17.710  0.00  0.00    +0.000 A 
ATOM     24  C   UNL     1      -2.669  11.278  18.724  0.00  0.00    +0.000 A 
ATOM     25  C   UNL     1      -3.975  11.722  18.471  0.00  0.00    +0.000 A 
BRANCH  20  27
ATOM     26  C   UNL     1      -6.607  12.485  17.846  0.00  0.00    +0.000 C 
ATOM     27  O   UNL     1      -5.766  11.991  16.812  0.00  0.00    +0.000 OA
ENDBRANCH  20  27
ENDBRANCH  16  23
ENDBRANCH  15  17
ENDBRANCH  14  15
ENDBRANCH   1  14
BRANCH   4  28
ATOM     28  C   UNL     1       5.139   4.981  17.676  0.00  0.00    +0.000 C 
BRANCH  28  29
ATOM     29  N   UNL     1       5.376   4.632  16.284  0.00  0.00    +0.000 N 
ATOM     30  C   UNL     1       6.519   5.060  15.629  0.00  0.00    +0.000 C 
ATOM     31  O   UNL     1       7.339   5.802  16.167  0.00  0.00    +0.000 OA
ATOM     32  H   UNL     1       4.827   3.910  15.842  0.00  0.00    +0.000 HD
BRANCH  30  33
ATOM     33  C   UNL     1       6.651   4.600  14.260  0.00  0.00    +0.000 A 
ATOM     34  C   UNL     1       7.537   4.960  13.262  0.00  0.00    +0.000 A 
ATOM     35  C   UNL     1       7.185   4.219  12.105  0.00  0.00    +0.000 A 
ATOM     36  C   UNL     1       6.104   3.446  12.471  0.00  0.00    +0.000 A 
ATOM     37  O   UNL     1       5.775   3.665  13.771  0.00  0.00    +0.000 OA
ENDBRANCH  30  33
ENDBRANCH  28  29
ENDBRANCH   4  28
TORSDOF 10
ENDMDL
MODEL 4
REMARK VINA RESULT:      -7.9      3.047      3.983
REMARK  Name = 
REMARK  12 active torsions:
REMARK  status: ('A' for Active; 'I' for Inactive)
REMARK    1  A    between atoms: C_1  and  O_2
REMARK    2  A    between atoms: O_2  and  C_3
REMARK    3  A    between atoms: C_6  and  N_7
REMARK    4  A    between atoms: C_8  and  C_10
REMARK    5  A    between atoms: C_10  and  S_11
REMARK    6  A    between atoms: S_11  and  C_12
REMARK    7  A    between atoms: C_15  and  C_16
REMARK    8  A    between atoms: C_16  and  N_17
REMARK    9  A    between atoms: C_18  and  C_20
REMARK   10  A    between atoms: N_25  and  C_26
REMARK   11  A    between atoms: C_31  and  O_32
REMARK   12  A    between atoms: O_32  and  C_33
REMARK                            x       y       z     vdW  Elec       q    Type
REMARK                         _______ _______ _______ _____ _____    ______ ____
ROOT
ATOM      1  C   UNL     1       2.564   7.326  18.804  0.00  0.00    +0.000 A 
ATOM      2  N   UNL     1       3.325   7.934  17.925  0.00  0.00    +0.000 NA
ATOM      3  N   UNL     1       4.311   7.073  17.549  0.00  0.00    +0.000 NA
ATOM      4  C   UNL     1       4.112   5.915  18.154  0.00  0.00    +0.000 A 
ATOM      5  N   UNL     1       2.944   5.993  18.941  0.00  0.00    +0.000 N 
ENDROOT
BRANCH   5   6
ATOM      6  C   UNL     1       2.323   4.913  19.650  0.00  0.00    +0.000 A 
ATOM      7  C   UNL     1       2.571   4.804  21.029  0.00  0.00    +0.000 A 
ATOM      8  C   UNL     1       2.181   3.684  21.758  0.00  0.00    +0.000 A 
ATOM      9  C   UNL     1       1.436   2.696  21.141  0.00  0.00    +0.000 A 
ATOM     10  C   UNL     1       1.098   2.825  19.794  0.00  0.00    +0.000 A 
ATOM     11  C   UNL     1       1.569   3.903  19.020  0.00  0.00    +0.000 A 
BRANCH  11  12
ATOM     12  O   UNL     1       1.382   3.962  17.664  0.00  0.00    +0.000 OA
ATOM     13  C   UNL     1       2.141   3.068  16.855  0.00  0.00    +0.000 C 
ENDBRANCH  11  12
ENDBRANCH   5   6
BRANCH   1  14
ATOM     14  S   UNL     1       1.441   8.178  19.826  0.00  0.00    +0.000 S 
BRANCH  14  15
ATOM     15  C   UNL     1       1.312   9.798  19.008  0.00  0.00    +0.000 C 
BRANCH  15  17
ATOM     16  N   UNL     1      -0.882  10.835  18.892  0.00  0.00    +0.000 N 
ATOM     17  C   UNL     1      -0.017   9.943  18.281  0.00  0.00    +0.000 C 
ATOM     18  O   UNL     1      -0.233   9.312  17.249  0.00  0.00    +0.000 OA
ATOM     19  H   UNL     1      -0.595  11.184  19.804  0.00  0.00    +0.000 HD
BRANCH  16  23
ATOM     20  C   UNL     1      -4.824  11.689  17.635  0.00  0.00    +0.000 A 
ATOM     21  C   UNL     1      -4.351  12.224  18.832  0.00  0.00    +0.000 A 
ATOM     22  C   UNL     1      -3.054  11.949  19.278  0.00  0.00    +0.000 A 
ATOM     23  C   UNL     1      -2.212  11.127  18.531  0.00  0.00    +0.000 A 
ATOM     24  C   UNL     1      -2.695  10.578  17.336  0.00  0.00    +0.000 A 
ATOM     25  C   UNL     1      -3.996  10.854  16.889  0.00  0.00    +0.000 A 
BRANCH  20  27
ATOM     26  C   UNL     1      -6.605  13.218  17.915  0.00  0.00    +0.000 C 
ATOM     27  O   UNL     1      -6.112  12.021  17.326  0.00  0.00    +0.000 OA
ENDBRANCH  20  27
ENDBRANCH  16  23
ENDBRANCH  15  17
ENDBRANCH  14  15
ENDBRANCH   1  14
BRANCH   4  28
ATOM     28  C   UNL     1       4.915   4.688  17.848  0.00  0.00    +0.000 C 
BRANCH  28  29
ATOM     29  N   UNL     1       5.280   4.636  16.441  0.00  0.00    +0.000 N 
ATOM     30  C   UNL     1       6.593   4.822  16.040  0.00  0.00    +0.000 C 
ATOM     31  O   UNL     1       7.484   5.104  16.839  0.00  0.00    +0.000 OA
ATOM     32  H   UNL     1       4.633   4.262  15.763  0.00  0.00    +0.000 HD
BRANCH  30  33
ATOM     33  C   UNL     1       6.823   4.696  14.614  0.00  0.00    +0.000 A 
ATOM     34  C   UNL     1       6.225   3.889  13.665  0.00  0.00    +0.000 A 
ATOM     35  C   UNL     1       6.869   4.152  12.429  0.00  0.00    +0.000 A 
ATOM     36  C   UNL     1       7.822   5.110  12.700  0.00  0.00    +0.000 A 
ATOM     37  O   UNL     1       7.801   5.449  14.016  0.00  0.00    +0.000 OA
ENDBRANCH  30  33
ENDBRANCH  28  29
ENDBRANCH   4  28
TORSDOF 10
ENDMDL
MODEL 5
REMARK VINA RESULT:      -7.8      2.919      3.473
REMARK  Name = 
REMARK  12 active torsions:
REMARK  status: ('A' for Active; 'I' for Inactive)
REMARK    1  A    between atoms: C_1  and  O_2
REMARK    2  A    between atoms: O_2  and  C_3
REMARK    3  A    between atoms: C_6  and  N_7
REMARK    4  A    between atoms: C_8  and  C_10
REMARK    5  A    between atoms: C_10  and  S_11
REMARK    6  A    between atoms: S_11  and  C_12
REMARK    7  A    between atoms: C_15  and  C_16
REMARK    8  A    between atoms: C_16  and  N_17
REMARK    9  A    between atoms: C_18  and  C_20
REMARK   10  A    between atoms: N_25  and  C_26
REMARK   11  A    between atoms: C_31  and  O_32
REMARK   12  A    between atoms: O_32  and  C_33
REMARK                            x       y       z     vdW  Elec       q    Type
REMARK                         _______ _______ _______ _____ _____    ______ ____
ROOT
ATOM      1  C   UNL     1       2.690   7.239  18.617  0.00  0.00    +0.000 A 
ATOM      2  N   UNL     1       3.470   7.809  17.729  0.00  0.00    +0.000 NA
ATOM      3  N   UNL     1       4.454   6.926  17.399  0.00  0.00    +0.000 NA
ATOM      4  C   UNL     1       4.234   5.791  18.041  0.00  0.00    +0.000 A 
ATOM      5  N   UNL     1       3.056   5.908  18.806  0.00  0.00    +0.000 N 
ENDROOT
BRANCH   5   6
ATOM      6  C   UNL     1       2.414   4.859  19.544  0.00  0.00    +0.000 A 
ATOM      7  C   UNL     1       2.625   4.807  20.932  0.00  0.00    +0.000 A 
ATOM      8  C   UNL     1       2.213   3.719  21.697  0.00  0.00    +0.000 A 
ATOM      9  C   UNL     1       1.483   2.707  21.102  0.00  0.00    +0.000 A 
ATOM     10  C   UNL     1       1.180   2.780  19.742  0.00  0.00    +0.000 A 
ATOM     11  C   UNL     1       1.674   3.824  18.936  0.00  0.00    +0.000 A 
BRANCH  11  12
ATOM     12  O   UNL     1       1.523   3.827  17.575  0.00  0.00    +0.000 OA
ATOM     13  C   UNL     1       2.218   2.829  16.833  0.00  0.00    +0.000 C 
ENDBRANCH  11  12
ENDBRANCH   5   6
BRANCH   1  14
ATOM     14  S   UNL     1       1.560   8.136  19.591  0.00  0.00    +0.000 S 
BRANCH  14  15
ATOM     15  C   UNL     1       1.155   9.552  18.523  0.00  0.00    +0.000 C 
BRANCH  15  17
ATOM     16  N   UNL     1       0.009  10.856  20.224  0.00  0.00    +0.000 N 
ATOM     17  C   UNL     1      -0.118  10.244  18.988  0.00  0.00    +0.000 C 
ATOM     18  O   UNL     1      -1.124  10.236  18.282  0.00  0.00    +0.000 OA
ATOM     19  H   UNL     1       0.873  10.668  20.730  0.00  0.00    +0.000 HD
BRANCH  16  23
ATOM     20  C   UNL     1      -3.001  12.640  22.591  0.00  0.00    +0.000 A 
ATOM     21  C   UNL     1      -2.927  12.937  21.231  0.00  0.00    +0.000 A 
ATOM     22  C   UNL     1      -1.933  12.370  20.426  0.00  0.00    +0.000 A 
ATOM     23  C   UNL     1      -0.995  11.498  20.974  0.00  0.00    +0.000 A 
ATOM     24  C   UNL     1      -1.063  11.213  22.345  0.00  0.00    +0.000 A 
ATOM     25  C   UNL     1      -2.058  11.782  23.151  0.00  0.00    +0.000 A 
BRANCH  20  27
ATOM     26  C   UNL     1      -4.200  14.647  22.943  0.00  0.00    +0.000 C 
ATOM     27  O   UNL     1      -4.005  13.275  23.264  0.00  0.00    +0.000 OA
ENDBRANCH  20  27
ENDBRANCH  16  23
ENDBRANCH  15  17
ENDBRANCH  14  15
ENDBRANCH   1  14
BRANCH   4  28
ATOM     28  C   UNL     1       5.030   4.548  17.791  0.00  0.00    +0.000 C 
BRANCH  28  29
ATOM     29  N   UNL     1       5.321   4.386  16.374  0.00  0.00    +0.000 N 
ATOM     30  C   UNL     1       6.554   4.747  15.857  0.00  0.00    +0.000 C 
ATOM     31  O   UNL     1       7.421   5.278  16.550  0.00  0.00    +0.000 OA
ATOM     32  H   UNL     1       4.717   3.823  15.795  0.00  0.00    +0.000 HD
BRANCH  30  33
ATOM     33  C   UNL     1       6.726   4.488  14.440  0.00  0.00    +0.000 A 
ATOM     34  C   UNL     1       7.578   5.052  13.510  0.00  0.00    +0.000 A 
ATOM     35  C   UNL     1       7.291   4.445  12.261  0.00  0.00    +0.000 A 
ATOM     36  C   UNL     1       6.281   3.541  12.507  0.00  0.00    +0.000 A 
ATOM     37  O   UNL     1       5.934   3.555  13.821  0.00  0.00    +0.000 OA
ENDBRANCH  30  33
ENDBRANCH  28  29
ENDBRANCH   4  28
TORSDOF 10
ENDMDL
MODEL 6
REMARK VINA RESULT:      -7.8      0.681      1.135
REMARK  Name = 
REMARK  12 active torsions:
REMARK  status: ('A' for Active; 'I' for Inactive)
REMARK    1  A    between atoms: C_1  and  O_2
REMARK    2  A    between atoms: O_2  and  C_3
REMARK    3  A    between atoms: C_6  and  N_7
REMARK    4  A    between atoms: C_8  and  C_10
REMARK    5  A    between atoms: C_10  and  S_11
REMARK    6  A    between atoms: S_11  and  C_12
REMARK    7  A    between atoms: C_15  and  C_16
REMARK    8  A    between atoms: C_16  and  N_17
REMARK    9  A    between atoms: C_18  and  C_20
REMARK   10  A    between atoms: N_25  and  C_26
REMARK   11  A    between atoms: C_31  and  O_32
REMARK   12  A    between atoms: O_32  and  C_33
REMARK                            x       y       z     vdW  Elec       q    Type
REMARK                         _______ _______ _______ _____ _____    ______ ____
ROOT
ATOM      1  C   UNL     1       2.501   7.503  18.542  0.00  0.00    +0.000 A 
ATOM      2  N   UNL     1       3.272   8.105  17.667  0.00  0.00    +0.000 NA
ATOM      3  N   UNL     1       4.289   7.258  17.344  0.00  0.00    +0.000 NA
ATOM      4  C   UNL     1       4.101   6.113  17.978  0.00  0.00    +0.000 A 
ATOM      5  N   UNL     1       2.910   6.184  18.729  0.00  0.00    +0.000 N 
ENDROOT
BRANCH   5   6
ATOM      6  C   UNL     1       2.295   5.109  19.452  0.00  0.00    +0.000 A 
ATOM      7  C   UNL     1       2.498   5.052  20.841  0.00  0.00    +0.000 A 
ATOM      8  C   UNL     1       2.115   3.945  21.594  0.00  0.00    +0.000 A 
ATOM      9  C   UNL     1       1.420   2.916  20.984  0.00  0.00    +0.000 A 
ATOM     10  C   UNL     1       1.126   2.992  19.623  0.00  0.00    +0.000 A 
ATOM     11  C   UNL     1       1.593   4.057  18.830  0.00  0.00    +0.000 A 
BRANCH  11  12
ATOM     12  O   UNL     1       1.452   4.068  17.468  0.00  0.00    +0.000 OA
ATOM     13  C   UNL     1       2.206   3.117  16.720  0.00  0.00    +0.000 C 
ENDBRANCH  11  12
ENDBRANCH   5   6
BRANCH   1  14
ATOM     14  S   UNL     1       1.328   8.355  19.507  0.00  0.00    +0.000 S 
BRANCH  14  15
ATOM     15  C   UNL     1       0.830   9.718  18.411  0.00  0.00    +0.000 C 
BRANCH  15  17
ATOM     16  N   UNL     1       1.145  12.111  18.126  0.00  0.00    +0.000 N 
ATOM     17  C   UNL     1       1.139  11.069  19.039  0.00  0.00    +0.000 C 
ATOM     18  O   UNL     1       1.341  11.162  20.248  0.00  0.00    +0.000 OA
ATOM     19  H   UNL     1       1.075  11.847  17.145  0.00  0.00    +0.000 HD
BRANCH  16  23
ATOM     20  C   UNL     1       2.321  16.097  18.881  0.00  0.00    +0.000 A 
ATOM     21  C   UNL     1       0.974  15.748  18.968  0.00  0.00    +0.000 A 
ATOM     22  C   UNL     1       0.555  14.438  18.712  0.00  0.00    +0.000 A 
ATOM     23  C   UNL     1       1.481  13.459  18.360  0.00  0.00    +0.000 A 
ATOM     24  C   UNL     1       2.833  13.816  18.259  0.00  0.00    +0.000 A 
ATOM     25  C   UNL     1       3.252  15.130  18.515  0.00  0.00    +0.000 A 
BRANCH  20  27
ATOM     26  C   UNL     1       1.509  18.183  19.646  0.00  0.00    +0.000 C 
ATOM     27  O   UNL     1       2.591  17.412  19.137  0.00  0.00    +0.000 OA
ENDBRANCH  20  27
ENDBRANCH  16  23
ENDBRANCH  15  17
ENDBRANCH  14  15
ENDBRANCH   1  14
BRANCH   4  28
ATOM     28  C   UNL     1       4.942   4.899  17.730  0.00  0.00    +0.000 C 
BRANCH  28  29
ATOM     29  N   UNL     1       5.250   4.751  16.316  0.00  0.00    +0.000 N 
ATOM     30  C   UNL     1       6.553   4.562  15.888  0.00  0.00    +0.000 C 
ATOM     31  O   UNL     1       7.504   4.581  16.668  0.00  0.00    +0.000 OA
ATOM     32  H   UNL     1       4.509   4.576  15.653  0.00  0.00    +0.000 HD
BRANCH  30  33
ATOM     33  C   UNL     1       6.710   4.381  14.458  0.00  0.00    +0.000 A 
ATOM     34  C   UNL     1       7.506   5.042  13.541  0.00  0.00    +0.000 A 
ATOM     35  C   UNL     1       7.230   4.478  12.269  0.00  0.00    +0.000 A 
ATOM     36  C   UNL     1       6.283   3.502  12.489  0.00  0.00    +0.000 A 
ATOM     37  O   UNL     1       5.964   3.431  13.808  0.00  0.00    +0.000 OA
ENDBRANCH  30  33
ENDBRANCH  28  29
ENDBRANCH   4  28
TORSDOF 10
ENDMDL
MODEL 7
REMARK VINA RESULT:      -7.8      3.265      9.518
REMARK  Name = 
REMARK  12 active torsions:
REMARK  status: ('A' for Active; 'I' for Inactive)
REMARK    1  A    between atoms: C_1  and  O_2
REMARK    2  A    between atoms: O_2  and  C_3
REMARK    3  A    between atoms: C_6  and  N_7
REMARK    4  A    between atoms: C_8  and  C_10
REMARK    5  A    between atoms: C_10  and  S_11
REMARK    6  A    between atoms: S_11  and  C_12
REMARK    7  A    between atoms: C_15  and  C_16
REMARK    8  A    between atoms: C_16  and  N_17
REMARK    9  A    between atoms: C_18  and  C_20
REMARK   10  A    between atoms: N_25  and  C_26
REMARK   11  A    between atoms: C_31  and  O_32
REMARK   12  A    between atoms: O_32  and  C_33
REMARK                            x       y       z     vdW  Elec       q    Type
REMARK                         _______ _______ _______ _____ _____    ______ ____
ROOT
ATOM      1  C   UNL     1      -0.700  12.074  22.225  0.00  0.00    +0.000 A 
ATOM      2  N   UNL     1      -0.325  13.138  22.897  0.00  0.00    +0.000 NA
ATOM      3  N   UNL     1       0.080  14.083  22.003  0.00  0.00    +0.000 NA
ATOM      4  C   UNL     1      -0.108  13.615  20.781  0.00  0.00    +0.000 A 
ATOM      5  N   UNL     1      -0.679  12.328  20.856  0.00  0.00    +0.000 N 
ENDROOT
BRANCH   5   6
ATOM      6  C   UNL     1      -1.147  11.540  19.753  0.00  0.00    +0.000 A 
ATOM      7  C   UNL     1      -0.243  10.647  19.153  0.00  0.00    +0.000 A 
ATOM      8  C   UNL     1      -0.540   9.993  17.960  0.00  0.00    +0.000 A 
ATOM      9  C   UNL     1      -1.796  10.138  17.399  0.00  0.00    +0.000 A 
ATOM     10  C   UNL     1      -2.743  10.947  18.026  0.00  0.00    +0.000 A 
ATOM     11  C   UNL     1      -2.425  11.691  19.178  0.00  0.00    +0.000 A 
BRANCH  11  12
ATOM     12  O   UNL     1      -3.288  12.611  19.713  0.00  0.00    +0.000 OA
ATOM     13  C   UNL     1      -4.684  12.362  19.574  0.00  0.00    +0.000 C 
ENDBRANCH  11  12
ENDBRANCH   5   6
BRANCH   1  14
ATOM     14  S   UNL     1      -0.911  10.515  22.973  0.00  0.00    +0.000 S 
BRANCH  14  15
ATOM     15  C   UNL     1       0.695   9.715  22.677  0.00  0.00    +0.000 C 
BRANCH  15  17
ATOM     16  N   UNL     1       1.743   8.050  21.250  0.00  0.00    +0.000 N 
ATOM     17  C   UNL     1       0.543   8.493  21.782  0.00  0.00    +0.000 C 
ATOM     18  O   UNL     1      -0.562   7.987  21.602  0.00  0.00    +0.000 OA
ATOM     19  H   UNL     1       2.550   8.651  21.403  0.00  0.00    +0.000 HD
BRANCH  16  23
ATOM     20  C   UNL     1       2.294   5.053  18.324  0.00  0.00    +0.000 A 
ATOM     21  C   UNL     1       1.907   4.693  19.614  0.00  0.00    +0.000 A 
ATOM     22  C   UNL     1       1.728   5.664  20.606  0.00  0.00    +0.000 A 
ATOM     23  C   UNL     1       1.940   7.011  20.319  0.00  0.00    +0.000 A 
ATOM     24  C   UNL     1       2.343   7.367  19.025  0.00  0.00    +0.000 A 
ATOM     25  C   UNL     1       2.522   6.394  18.032  0.00  0.00    +0.000 A 
BRANCH  20  27
ATOM     26  C   UNL     1       3.791   3.681  17.113  0.00  0.00    +0.000 C 
ATOM     27  O   UNL     1       2.451   4.007  17.460  0.00  0.00    +0.000 OA
ENDBRANCH  20  27
ENDBRANCH  16  23
ENDBRANCH  15  17
ENDBRANCH  14  15
ENDBRANCH   1  14
BRANCH   4  28
ATOM     28  C   UNL     1       0.080  14.450  19.552  0.00  0.00    +0.000 C 
BRANCH  28  29
ATOM     29  N   UNL     1       1.443  14.950  19.459  0.00  0.00    +0.000 N 
ATOM     30  C   UNL     1       2.355  14.371  18.594  0.00  0.00    +0.000 C 
ATOM     31  O   UNL     1       2.078  13.377  17.925  0.00  0.00    +0.000 OA
ATOM     32  H   UNL     1       1.682  15.844  19.862  0.00  0.00    +0.000 HD
BRANCH  30  33
ATOM     33  C   UNL     1       3.662  14.999  18.568  0.00  0.00    +0.000 A 
ATOM     34  C   UNL     1       4.880  14.543  18.100  0.00  0.00    +0.000 A 
ATOM     35  C   UNL     1       5.834  15.559  18.363  0.00  0.00    +0.000 A 
ATOM     36  C   UNL     1       5.136  16.579  18.973  0.00  0.00    +0.000 A 
ATOM     37  O   UNL     1       3.822  16.254  19.099  0.00  0.00    +0.000 OA
ENDBRANCH  30  33
ENDBRANCH  28  29
ENDBRANCH   4  28
TORSDOF 10
ENDMDL
MODEL 8
REMARK VINA RESULT:      -7.7      2.113      2.636
REMARK  Name = 
REMARK  12 active torsions:
REMARK  status: ('A' for Active; 'I' for Inactive)
REMARK    1  A    between atoms: C_1  and  O_2
REMARK    2  A    between atoms: O_2  and  C_3
REMARK    3  A    between atoms: C_6  and  N_7
REMARK    4  A    between atoms: C_8  and  C_10
REMARK    5  A    between atoms: C_10  and  S_11
REMARK    6  A    between atoms: S_11  and  C_12
REMARK    7  A    between atoms: C_15  and  C_16
REMARK    8  A    between atoms: C_16  and  N_17
REMARK    9  A    between atoms: C_18  and  C_20
REMARK   10  A    between atoms: N_25  and  C_26
REMARK   11  A    between atoms: C_31  and  O_32
REMARK   12  A    between atoms: O_32  and  C_33
REMARK                            x       y       z     vdW  Elec       q    Type
REMARK                         _______ _______ _______ _____ _____    ______ ____
ROOT
ATOM      1  C   UNL     1       2.531   7.336  18.741  0.00  0.00    +0.000 A 
ATOM      2  N   UNL     1       3.308   7.948  17.878  0.00  0.00    +0.000 NA
ATOM      3  N   UNL     1       4.323   7.102  17.548  0.00  0.00    +0.000 NA
ATOM      4  C   UNL     1       4.128   5.949  18.163  0.00  0.00    +0.000 A 
ATOM      5  N   UNL     1       2.934   6.014  18.910  0.00  0.00    +0.000 N 
ENDROOT
BRANCH   5   6
ATOM      6  C   UNL     1       2.313   4.931  19.616  0.00  0.00    +0.000 A 
ATOM      7  C   UNL     1       2.546   4.826  20.997  0.00  0.00    +0.000 A 
ATOM      8  C   UNL     1       2.156   3.705  21.725  0.00  0.00    +0.000 A 
ATOM      9  C   UNL     1       1.424   2.711  21.101  0.00  0.00    +0.000 A 
ATOM     10  C   UNL     1       1.099   2.835  19.751  0.00  0.00    +0.000 A 
ATOM     11  C   UNL     1       1.572   3.915  18.979  0.00  0.00    +0.000 A 
BRANCH  11  12
ATOM     12  O   UNL     1       1.399   3.970  17.622  0.00  0.00    +0.000 OA
ATOM     13  C   UNL     1       2.172   3.079  16.822  0.00  0.00    +0.000 C 
ENDBRANCH  11  12
ENDBRANCH   5   6
BRANCH   1  14
ATOM     14  S   UNL     1       1.357   8.179  19.713  0.00  0.00    +0.000 S 
BRANCH  14  15
ATOM     15  C   UNL     1       1.203   9.774  18.853  0.00  0.00    +0.000 C 
BRANCH  15  17
ATOM     16  N   UNL     1      -0.389  11.576  19.207  0.00  0.00    +0.000 N 
ATOM     17  C   UNL     1       0.641  10.845  19.776  0.00  0.00    +0.000 C 
ATOM     18  O   UNL     1       1.091  10.987  20.911  0.00  0.00    +0.000 OA
ATOM     19  H   UNL     1      -0.561  11.410  18.216  0.00  0.00    +0.000 HD
BRANCH  16  23
ATOM     20  C   UNL     1      -2.557  14.832  20.800  0.00  0.00    +0.000 A 
ATOM     21  C   UNL     1      -1.273  15.039  20.299  0.00  0.00    +0.000 A 
ATOM     22  C   UNL     1      -0.528  13.976  19.775  0.00  0.00    +0.000 A 
ATOM     23  C   UNL     1      -1.058  12.688  19.752  0.00  0.00    +0.000 A 
ATOM     24  C   UNL     1      -2.344  12.481  20.271  0.00  0.00    +0.000 A 
ATOM     25  C   UNL     1      -3.090  13.546  20.796  0.00  0.00    +0.000 A 
BRANCH  20  27
ATOM     26  C   UNL     1      -4.549  16.090  20.998  0.00  0.00    +0.000 C 
ATOM     27  O   UNL     1      -3.166  15.949  21.298  0.00  0.00    +0.000 OA
ENDBRANCH  20  27
ENDBRANCH  16  23
ENDBRANCH  15  17
ENDBRANCH  14  15
ENDBRANCH   1  14
BRANCH   4  28
ATOM     28  C   UNL     1       4.966   4.735  17.902  0.00  0.00    +0.000 C 
BRANCH  28  29
ATOM     29  N   UNL     1       5.314   4.629  16.493  0.00  0.00    +0.000 N 
ATOM     30  C   UNL     1       6.589   4.938  16.052  0.00  0.00    +0.000 C 
ATOM     31  O   UNL     1       7.453   5.375  16.809  0.00  0.00    +0.000 OA
ATOM     32  H   UNL     1       4.704   4.137  15.858  0.00  0.00    +0.000 HD
BRANCH  30  33
ATOM     33  C   UNL     1       6.811   4.742  14.631  0.00  0.00    +0.000 A 
ATOM     34  C   UNL     1       6.187   3.911  13.721  0.00  0.00    +0.000 A 
ATOM     35  C   UNL     1       6.834   4.100  12.473  0.00  0.00    +0.000 A 
ATOM     36  C   UNL     1       7.815   5.041  12.699  0.00  0.00    +0.000 A 
ATOM     37  O   UNL     1       7.808   5.439  13.998  0.00  0.00    +0.000 OA
ENDBRANCH  30  33
ENDBRANCH  28  29
ENDBRANCH   4  28
TORSDOF 10
ENDMDL
MODEL 9
REMARK VINA RESULT:      -7.5      3.267      4.395
REMARK  Name = 
REMARK  12 active torsions:
REMARK  status: ('A' for Active; 'I' for Inactive)
REMARK    1  A    between atoms: C_1  and  O_2
REMARK    2  A    between atoms: O_2  and  C_3
REMARK    3  A    between atoms: C_6  and  N_7
REMARK    4  A    between atoms: C_8  and  C_10
REMARK    5  A    between atoms: C_10  and  S_11
REMARK    6  A    between atoms: S_11  and  C_12
REMARK    7  A    between atoms: C_15  and  C_16
REMARK    8  A    between atoms: C_16  and  N_17
REMARK    9  A    between atoms: C_18  and  C_20
REMARK   10  A    between atoms: N_25  and  C_26
REMARK   11  A    between atoms: C_31  and  O_32
REMARK   12  A    between atoms: O_32  and  C_33
REMARK                            x       y       z     vdW  Elec       q    Type
REMARK                         _______ _______ _______ _____ _____    ______ ____
ROOT
ATOM      1  C   UNL     1       3.516   6.801  17.955  0.00  0.00    +0.000 A 
ATOM      2  N   UNL     1       4.371   7.635  17.411  0.00  0.00    +0.000 NA
ATOM      3  N   UNL     1       5.492   6.936  17.078  0.00  0.00    +0.000 NA
ATOM      4  C   UNL     1       5.293   5.660  17.363  0.00  0.00    +0.000 A 
ATOM      5  N   UNL     1       3.992   5.495  17.880  0.00  0.00    +0.000 N 
ENDROOT
BRANCH   5   6
ATOM      6  C   UNL     1       3.354   4.248  18.191  0.00  0.00    +0.000 A 
ATOM      7  C   UNL     1       2.954   3.430  17.121  0.00  0.00    +0.000 A 
ATOM      8  C   UNL     1       2.153   2.307  17.315  0.00  0.00    +0.000 A 
ATOM      9  C   UNL     1       1.826   1.920  18.602  0.00  0.00    +0.000 A 
ATOM     10  C   UNL     1       2.288   2.664  19.687  0.00  0.00    +0.000 A 
ATOM     11  C   UNL     1       3.015   3.856  19.502  0.00  0.00    +0.000 A 
BRANCH  11  12
ATOM     12  O   UNL     1       3.337   4.682  20.546  0.00  0.00    +0.000 OA
ATOM     13  C   UNL     1       2.345   4.899  21.545  0.00  0.00    +0.000 C 
ENDBRANCH  11  12
ENDBRANCH   5   6
BRANCH   1  14
ATOM     14  S   UNL     1       2.135   7.335  18.873  0.00  0.00    +0.000 S 
BRANCH  14  15
ATOM     15  C   UNL     1       1.894   9.034  18.271  0.00  0.00    +0.000 C 
BRANCH  15  17
ATOM     16  N   UNL     1      -0.302   9.770  17.534  0.00  0.00    +0.000 N 
ATOM     17  C   UNL     1       0.511   9.554  18.635  0.00  0.00    +0.000 C 
ATOM     18  O   UNL     1       0.202   9.732  19.811  0.00  0.00    +0.000 OA
ATOM     19  H   UNL     1       0.147   9.686  16.623  0.00  0.00    +0.000 HD
BRANCH  16  23
ATOM     20  C   UNL     1      -4.174  11.440  17.293  0.00  0.00    +0.000 A 
ATOM     21  C   UNL     1      -3.370  11.723  18.395  0.00  0.00    +0.000 A 
ATOM     22  C   UNL     1      -2.088  11.174  18.507  0.00  0.00    +0.000 A 
ATOM     23  C   UNL     1      -1.594  10.329  17.515  0.00  0.00    +0.000 A 
ATOM     24  C   UNL     1      -2.411  10.036  16.414  0.00  0.00    +0.000 A 
ATOM     25  C   UNL     1      -3.696  10.585  16.303  0.00  0.00    +0.000 A 
BRANCH  20  27
ATOM     26  C   UNL     1      -6.407  11.340  18.065  0.00  0.00    +0.000 C 
ATOM     27  O   UNL     1      -5.409  12.025  17.318  0.00  0.00    +0.000 OA
ENDBRANCH  20  27
ENDBRANCH  16  23
ENDBRANCH  15  17
ENDBRANCH  14  15
ENDBRANCH   1  14
BRANCH   4  28
ATOM     28  C   UNL     1       6.257   4.581  16.978  0.00  0.00    +0.000 C 
BRANCH  28  29
ATOM     29  N   UNL     1       5.962   4.059  15.653  0.00  0.00    +0.000 N 
ATOM     30  C   UNL     1       6.666   4.497  14.544  0.00  0.00    +0.000 C 
ATOM     31  O   UNL     1       7.513   5.385  14.619  0.00  0.00    +0.000 OA
ATOM     32  H   UNL     1       5.395   3.231  15.551  0.00  0.00    +0.000 HD
BRANCH  30  33
ATOM     33  C   UNL     1       6.301   3.858  13.293  0.00  0.00    +0.000 A 
ATOM     34  C   UNL     1       7.075   3.441  12.227  0.00  0.00    +0.000 A 
ATOM     35  C   UNL     1       6.190   2.916  11.251  0.00  0.00    +0.000 A 
ATOM     36  C   UNL     1       4.926   3.041  11.786  0.00  0.00    +0.000 A 
ATOM     37  O   UNL     1       4.981   3.605  13.021  0.00  0.00    +0.000 OA
ENDBRANCH  30  33
ENDBRANCH  28  29
ENDBRANCH   4  28
TORSDOF 10
ENDMDL
