MODEL 1
REMARK VINA RESULT:      -7.2      0.000      0.000
REMARK  Name = 
REMARK  4 active torsions:
REMARK  status: ('A' for Active; 'I' for Inactive)
REMARK    1  A    between atoms: C_2  and  C_3
REMARK    2  A    between atoms: C_2  and  C_9
REMARK    3  A    between atoms: C_13  and  C_14
REMARK    4  A    between atoms: C_14  and  C_16
REMARK                            x       y       z     vdW  Elec       q    Type
REMARK                         _______ _______ _______ _____ _____    ______ ____
ROOT
ATOM      1  C   UNL     1       2.015   3.984  19.750  0.00  0.00    +0.000 A 
ATOM      2  C   UNL     1       0.723   3.445  19.392  0.00  0.00    +0.000 A 
ATOM      3  C   UNL     1       0.803   2.310  18.626  0.00  0.00    +0.000 A 
ATOM      4  S   UNL     1       2.413   1.885  18.300  0.00  0.00    +0.000 S 
ATOM      5  C   UNL     1       3.046   3.226  19.193  0.00  0.00    +0.000 A 
ENDROOT
BRANCH   1   7
ATOM      6  O   UNL     1       2.426   5.200  21.726  0.00  0.00    +0.000 OA
ATOM      7  C   UNL     1       2.184   5.218  20.522  0.00  0.00    +0.000 C 
BRANCH   7   8
ATOM      8  C   UNL     1       2.078   6.532  19.814  0.00  0.00    +0.000 A 
ATOM      9  C   UNL     1       1.520   7.622  20.494  0.00  0.00    +0.000 A 
ATOM     10  C   UNL     1       1.401   8.862  19.859  0.00  0.00    +0.000 A 
ATOM     11  C   UNL     1       1.831   9.018  18.541  0.00  0.00    +0.000 A 
ATOM     12  C   UNL     1       2.375   7.937  17.853  0.00  0.00    +0.000 A 
ATOM     13  C   UNL     1       2.491   6.695  18.482  0.00  0.00    +0.000 A 
ENDBRANCH   7   8
ENDBRANCH   1   7
BRANCH   5  14
ATOM     14  C   UNL     1       4.506   3.351  19.189  0.00  0.00    +0.000 C 
ATOM     15  O   UNL     1       5.233   2.646  19.892  0.00  0.00    +0.000 OA
BRANCH  14  16
ATOM     16  C   UNL     1       5.216   4.377  18.370  0.00  0.00    +0.000 A 
ATOM     17  C   UNL     1       4.876   4.481  17.011  0.00  0.00    +0.000 A 
ATOM     18  C   UNL     1       5.486   5.436  16.198  0.00  0.00    +0.000 A 
ATOM     19  C   UNL     1       6.446   6.289  16.735  0.00  0.00    +0.000 A 
ATOM     20  C   UNL     1       6.826   6.161  18.073  0.00  0.00    +0.000 A 
ATOM     21  C   UNL     1       6.232   5.190  18.884  0.00  0.00    +0.000 A 
ENDBRANCH  14  16
ENDBRANCH   5  14
TORSDOF 4
ENDMDL
MODEL 2
REMARK VINA RESULT:      -7.1      0.178      1.065
REMARK  Name = 
REMARK  4 active torsions:
REMARK  status: ('A' for Active; 'I' for Inactive)
REMARK    1  A    between atoms: C_2  and  C_3
REMARK    2  A    between atoms: C_2  and  C_9
REMARK    3  A    between atoms: C_13  and  C_14
REMARK    4  A    between atoms: C_14  and  C_16
REMARK                            x       y       z     vdW  Elec       q    Type
REMARK                         _______ _______ _______ _____ _____    ______ ____
ROOT
ATOM      1  C   UNL     1       2.031   3.962  19.734  0.00  0.00    +0.000 A 
ATOM      2  C   UNL     1       0.735   3.446  19.358  0.00  0.00    +0.000 A 
ATOM      3  C   UNL     1       0.805   2.303  18.603  0.00  0.00    +0.000 A 
ATOM      4  S   UNL     1       2.412   1.842  18.309  0.00  0.00    +0.000 S 
ATOM      5  C   UNL     1       3.055   3.178  19.202  0.00  0.00    +0.000 A 
ENDROOT
BRANCH   1   7
ATOM      6  O   UNL     1       2.436   5.187  21.706  0.00  0.00    +0.000 OA
ATOM      7  C   UNL     1       2.211   5.199  20.499  0.00  0.00    +0.000 C 
BRANCH   7   8
ATOM      8  C   UNL     1       2.138   6.509  19.779  0.00  0.00    +0.000 A 
ATOM      9  C   UNL     1       1.561   7.606  20.430  0.00  0.00    +0.000 A 
ATOM     10  C   UNL     1       1.472   8.842  19.783  0.00  0.00    +0.000 A 
ATOM     11  C   UNL     1       1.951   8.988  18.481  0.00  0.00    +0.000 A 
ATOM     12  C   UNL     1       2.515   7.900  17.821  0.00  0.00    +0.000 A 
ATOM     13  C   UNL     1       2.601   6.661  18.462  0.00  0.00    +0.000 A 
ENDBRANCH   7   8
ENDBRANCH   1   7
BRANCH   5  14
ATOM     14  C   UNL     1       4.518   3.274  19.224  0.00  0.00    +0.000 C 
ATOM     15  O   UNL     1       5.214   2.607  19.993  0.00  0.00    +0.000 OA
BRANCH  14  16
ATOM     16  C   UNL     1       5.268   4.222  18.349  0.00  0.00    +0.000 A 
ATOM     17  C   UNL     1       6.149   5.126  18.965  0.00  0.00    +0.000 A 
ATOM     18  C   UNL     1       6.897   6.021  18.201  0.00  0.00    +0.000 A 
ATOM     19  C   UNL     1       6.763   6.024  16.815  0.00  0.00    +0.000 A 
ATOM     20  C   UNL     1       5.854   5.164  16.196  0.00  0.00    +0.000 A 
ATOM     21  C   UNL     1       5.087   4.281  16.962  0.00  0.00    +0.000 A 
ENDBRANCH  14  16
ENDBRANCH   5  14
TORSDOF 4
ENDMDL
MODEL 3
REMARK VINA RESULT:      -7.1      0.124      1.062
REMARK  Name = 
REMARK  4 active torsions:
REMARK  status: ('A' for Active; 'I' for Inactive)
REMARK    1  A    between atoms: C_2  and  C_3
REMARK    2  A    between atoms: C_2  and  C_9
REMARK    3  A    between atoms: C_13  and  C_14
REMARK    4  A    between atoms: C_14  and  C_16
REMARK                            x       y       z     vdW  Elec       q    Type
REMARK                         _______ _______ _______ _____ _____    ______ ____
ROOT
ATOM      1  C   UNL     1       2.003   3.904  19.789  0.00  0.00    +0.000 A 
ATOM      2  C   UNL     1       0.710   3.356  19.448  0.00  0.00    +0.000 A 
ATOM      3  C   UNL     1       0.787   2.248  18.643  0.00  0.00    +0.000 A 
ATOM      4  S   UNL     1       2.395   1.859  18.262  0.00  0.00    +0.000 S 
ATOM      5  C   UNL     1       3.030   3.181  19.182  0.00  0.00    +0.000 A 
ENDROOT
BRANCH   1   7
ATOM      6  O   UNL     1       2.449   5.064  21.792  0.00  0.00    +0.000 OA
ATOM      7  C   UNL     1       2.173   5.116  20.596  0.00  0.00    +0.000 C 
BRANCH   7   8
ATOM      8  C   UNL     1       2.026   6.450  19.934  0.00  0.00    +0.000 A 
ATOM      9  C   UNL     1       2.473   6.602  18.616  0.00  0.00    +0.000 A 
ATOM     10  C   UNL     1       2.356   7.837  17.971  0.00  0.00    +0.000 A 
ATOM     11  C   UNL     1       1.801   8.927  18.641  0.00  0.00    +0.000 A 
ATOM     12  C   UNL     1       1.365   8.789  19.956  0.00  0.00    +0.000 A 
ATOM     13  C   UNL     1       1.485   7.558  20.606  0.00  0.00    +0.000 A 
ENDBRANCH   7   8
ENDBRANCH   1   7
BRANCH   5  14
ATOM     14  C   UNL     1       4.488   3.330  19.145  0.00  0.00    +0.000 C 
ATOM     15  O   UNL     1       5.241   2.643  19.837  0.00  0.00    +0.000 OA
BRANCH  14  16
ATOM     16  C   UNL     1       5.162   4.359  18.300  0.00  0.00    +0.000 A 
ATOM     17  C   UNL     1       4.836   4.404  16.935  0.00  0.00    +0.000 A 
ATOM     18  C   UNL     1       5.414   5.358  16.098  0.00  0.00    +0.000 A 
ATOM     19  C   UNL     1       6.329   6.270  16.619  0.00  0.00    +0.000 A 
ATOM     20  C   UNL     1       6.697   6.202  17.964  0.00  0.00    +0.000 A 
ATOM     21  C   UNL     1       6.135   5.233  18.800  0.00  0.00    +0.000 A 
ENDBRANCH  14  16
ENDBRANCH   5  14
TORSDOF 4
ENDMDL
MODEL 4
REMARK VINA RESULT:      -7.1      2.791      4.931
REMARK  Name = 
REMARK  4 active torsions:
REMARK  status: ('A' for Active; 'I' for Inactive)
REMARK    1  A    between atoms: C_2  and  C_3
REMARK    2  A    between atoms: C_2  and  C_9
REMARK    3  A    between atoms: C_13  and  C_14
REMARK    4  A    between atoms: C_14  and  C_16
REMARK                            x       y       z     vdW  Elec       q    Type
REMARK                         _______ _______ _______ _____ _____    ______ ____
ROOT
ATOM      1  C   UNL     1       4.205   4.992  17.432  0.00  0.00    +0.000 A 
ATOM      2  C   UNL     1       3.403   6.104  17.891  0.00  0.00    +0.000 A 
ATOM      3  C   UNL     1       3.929   7.326  17.557  0.00  0.00    +0.000 A 
ATOM      4  S   UNL     1       5.395   7.170  16.716  0.00  0.00    +0.000 S 
ATOM      5  C   UNL     1       5.354   5.440  16.778  0.00  0.00    +0.000 A 
ENDROOT
BRANCH   1   7
ATOM      6  O   UNL     1       4.318   2.673  17.032  0.00  0.00    +0.000 OA
ATOM      7  C   UNL     1       3.872   3.593  17.712  0.00  0.00    +0.000 C 
BRANCH   7   8
ATOM      8  C   UNL     1       2.980   3.282  18.873  0.00  0.00    +0.000 A 
ATOM      9  C   UNL     1       1.605   3.145  18.650  0.00  0.00    +0.000 A 
ATOM     10  C   UNL     1       0.743   2.862  19.714  0.00  0.00    +0.000 A 
ATOM     11  C   UNL     1       1.250   2.721  21.006  0.00  0.00    +0.000 A 
ATOM     12  C   UNL     1       2.614   2.868  21.240  0.00  0.00    +0.000 A 
ATOM     13  C   UNL     1       3.478   3.157  20.180  0.00  0.00    +0.000 A 
ENDBRANCH   7   8
ENDBRANCH   1   7
BRANCH   5  14
ATOM     14  C   UNL     1       6.507   4.762  16.181  0.00  0.00    +0.000 C 
ATOM     15  O   UNL     1       7.467   4.375  16.850  0.00  0.00    +0.000 OA
BRANCH  14  16
ATOM     16  C   UNL     1       6.624   4.533  14.711  0.00  0.00    +0.000 A 
ATOM     17  C   UNL     1       7.593   5.266  14.007  0.00  0.00    +0.000 A 
ATOM     18  C   UNL     1       7.768   5.080  12.636  0.00  0.00    +0.000 A 
ATOM     19  C   UNL     1       6.970   4.164  11.957  0.00  0.00    +0.000 A 
ATOM     20  C   UNL     1       5.972   3.465  12.637  0.00  0.00    +0.000 A 
ATOM     21  C   UNL     1       5.779   3.666  14.007  0.00  0.00    +0.000 A 
ENDBRANCH  14  16
ENDBRANCH   5  14
TORSDOF 4
ENDMDL
MODEL 5
REMARK VINA RESULT:      -7.0      1.184      4.688
REMARK  Name = 
REMARK  4 active torsions:
REMARK  status: ('A' for Active; 'I' for Inactive)
REMARK    1  A    between atoms: C_2  and  C_3
REMARK    2  A    between atoms: C_2  and  C_9
REMARK    3  A    between atoms: C_13  and  C_14
REMARK    4  A    between atoms: C_14  and  C_16
REMARK                            x       y       z     vdW  Elec       q    Type
REMARK                         _______ _______ _______ _____ _____    ______ ____
ROOT
ATOM      1  C   UNL     1       3.696   3.444  18.576  0.00  0.00    +0.000 A 
ATOM      2  C   UNL     1       3.338   2.181  17.971  0.00  0.00    +0.000 A 
ATOM      3  C   UNL     1       2.036   1.818  18.204  0.00  0.00    +0.000 A 
ATOM      4  S   UNL     1       1.229   2.960  19.166  0.00  0.00    +0.000 S 
ATOM      5  C   UNL     1       2.622   3.980  19.288  0.00  0.00    +0.000 A 
ENDROOT
BRANCH   1   7
ATOM      6  O   UNL     1       5.715   4.215  19.515  0.00  0.00    +0.000 OA
ATOM      7  C   UNL     1       5.045   4.013  18.506  0.00  0.00    +0.000 C 
BRANCH   7   8
ATOM      8  C   UNL     1       5.623   4.334  17.164  0.00  0.00    +0.000 A 
ATOM      9  C   UNL     1       7.007   4.514  17.051  0.00  0.00    +0.000 A 
ATOM     10  C   UNL     1       7.579   4.821  15.813  0.00  0.00    +0.000 A 
ATOM     11  C   UNL     1       6.772   4.957  14.683  0.00  0.00    +0.000 A 
ATOM     12  C   UNL     1       5.394   4.793  14.788  0.00  0.00    +0.000 A 
ATOM     13  C   UNL     1       4.817   4.491  16.024  0.00  0.00    +0.000 A 
ENDBRANCH   7   8
ENDBRANCH   1   7
BRANCH   5  14
ATOM     14  C   UNL     1       2.454   5.178  20.115  0.00  0.00    +0.000 C 
ATOM     15  O   UNL     1       2.410   5.132  21.346  0.00  0.00    +0.000 OA
BRANCH  14  16
ATOM     16  C   UNL     1       2.276   6.536  19.523  0.00  0.00    +0.000 A 
ATOM     17  C   UNL     1       2.734   6.747  18.213  0.00  0.00    +0.000 A 
ATOM     18  C   UNL     1       2.575   7.987  17.595  0.00  0.00    +0.000 A 
ATOM     19  C   UNL     1       1.962   9.029  18.287  0.00  0.00    +0.000 A 
ATOM     20  C   UNL     1       1.547   8.845  19.607  0.00  0.00    +0.000 A 
ATOM     21  C   UNL     1       1.726   7.609  20.236  0.00  0.00    +0.000 A 
ENDBRANCH  14  16
ENDBRANCH   5  14
TORSDOF 4
ENDMDL
MODEL 6
REMARK VINA RESULT:      -7.0      2.738      4.779
REMARK  Name = 
REMARK  4 active torsions:
REMARK  status: ('A' for Active; 'I' for Inactive)
REMARK    1  A    between atoms: C_2  and  C_3
REMARK    2  A    between atoms: C_2  and  C_9
REMARK    3  A    between atoms: C_13  and  C_14
REMARK    4  A    between atoms: C_14  and  C_16
REMARK                            x       y       z     vdW  Elec       q    Type
REMARK                         _______ _______ _______ _____ _____    ______ ____
ROOT
ATOM      1  C   UNL     1       4.087   4.981  17.480  0.00  0.00    +0.000 A 
ATOM      2  C   UNL     1       3.268   6.099  17.888  0.00  0.00    +0.000 A 
ATOM      3  C   UNL     1       3.793   7.314  17.530  0.00  0.00    +0.000 A 
ATOM      4  S   UNL     1       5.278   7.144  16.727  0.00  0.00    +0.000 S 
ATOM      5  C   UNL     1       5.247   5.417  16.839  0.00  0.00    +0.000 A 
ENDROOT
BRANCH   1   7
ATOM      6  O   UNL     1       4.170   2.655  17.110  0.00  0.00    +0.000 OA
ATOM      7  C   UNL     1       3.757   3.587  17.794  0.00  0.00    +0.000 C 
BRANCH   7   8
ATOM      8  C   UNL     1       2.912   3.299  18.995  0.00  0.00    +0.000 A 
ATOM      9  C   UNL     1       1.519   3.292  18.854  0.00  0.00    +0.000 A 
ATOM     10  C   UNL     1       0.701   3.033  19.958  0.00  0.00    +0.000 A 
ATOM     11  C   UNL     1       1.269   2.787  21.208  0.00  0.00    +0.000 A 
ATOM     12  C   UNL     1       2.652   2.804  21.361  0.00  0.00    +0.000 A 
ATOM     13  C   UNL     1       3.474   3.069  20.262  0.00  0.00    +0.000 A 
ENDBRANCH   7   8
ENDBRANCH   1   7
BRANCH   5  14
ATOM     14  C   UNL     1       6.418   4.730  16.288  0.00  0.00    +0.000 C 
ATOM     15  O   UNL     1       7.315   4.275  17.000  0.00  0.00    +0.000 OA
BRANCH  14  16
ATOM     16  C   UNL     1       6.633   4.574  14.819  0.00  0.00    +0.000 A 
ATOM     17  C   UNL     1       5.818   3.662  14.130  0.00  0.00    +0.000 A 
ATOM     18  C   UNL     1       5.953   3.488  12.753  0.00  0.00    +0.000 A 
ATOM     19  C   UNL     1       6.909   4.221  12.055  0.00  0.00    +0.000 A 
ATOM     20  C   UNL     1       7.757   5.095  12.738  0.00  0.00    +0.000 A 
ATOM     21  C   UNL     1       7.639   5.254  14.122  0.00  0.00    +0.000 A 
ENDBRANCH  14  16
ENDBRANCH   5  14
TORSDOF 4
ENDMDL
MODEL 7
REMARK VINA RESULT:      -7.0      1.183      4.778
REMARK  Name = 
REMARK  4 active torsions:
REMARK  status: ('A' for Active; 'I' for Inactive)
REMARK    1  A    between atoms: C_2  and  C_3
REMARK    2  A    between atoms: C_2  and  C_9
REMARK    3  A    between atoms: C_13  and  C_14
REMARK    4  A    between atoms: C_14  and  C_16
REMARK                            x       y       z     vdW  Elec       q    Type
REMARK                         _______ _______ _______ _____ _____    ______ ____
ROOT
ATOM      1  C   UNL     1       3.746   3.464  18.584  0.00  0.00    +0.000 A 
ATOM      2  C   UNL     1       3.416   2.183  18.001  0.00  0.00    +0.000 A 
ATOM      3  C   UNL     1       2.125   1.791  18.248  0.00  0.00    +0.000 A 
ATOM      4  S   UNL     1       1.296   2.927  19.199  0.00  0.00    +0.000 S 
ATOM      5  C   UNL     1       2.664   3.983  19.296  0.00  0.00    +0.000 A 
ENDROOT
BRANCH   1   7
ATOM      6  O   UNL     1       5.754   4.294  19.497  0.00  0.00    +0.000 OA
ATOM      7  C   UNL     1       5.079   4.066  18.496  0.00  0.00    +0.000 C 
BRANCH   7   8
ATOM      8  C   UNL     1       5.636   4.390  17.146  0.00  0.00    +0.000 A 
ATOM      9  C   UNL     1       7.020   4.551  17.008  0.00  0.00    +0.000 A 
ATOM     10  C   UNL     1       7.573   4.860  15.761  0.00  0.00    +0.000 A 
ATOM     11  C   UNL     1       6.746   5.017  14.648  0.00  0.00    +0.000 A 
ATOM     12  C   UNL     1       5.368   4.871  14.778  0.00  0.00    +0.000 A 
ATOM     13  C   UNL     1       4.811   4.568  16.023  0.00  0.00    +0.000 A 
ENDBRANCH   7   8
ENDBRANCH   1   7
BRANCH   5  14
ATOM     14  C   UNL     1       2.471   5.189  20.106  0.00  0.00    +0.000 C 
ATOM     15  O   UNL     1       2.419   5.157  21.338  0.00  0.00    +0.000 OA
BRANCH  14  16
ATOM     16  C   UNL     1       2.275   6.537  19.496  0.00  0.00    +0.000 A 
ATOM     17  C   UNL     1       1.666   7.529  20.280  0.00  0.00    +0.000 A 
ATOM     18  C   UNL     1       1.476   8.816  19.776  0.00  0.00    +0.000 A 
ATOM     19  C   UNL     1       1.889   9.117  18.481  0.00  0.00    +0.000 A 
ATOM     20  C   UNL     1       2.452   8.125  17.676  0.00  0.00    +0.000 A 
ATOM     21  C   UNL     1       2.622   6.829  18.172  0.00  0.00    +0.000 A 
ENDBRANCH  14  16
ENDBRANCH   5  14
TORSDOF 4
ENDMDL
MODEL 8
REMARK VINA RESULT:      -7.0      1.169      4.755
REMARK  Name = 
REMARK  4 active torsions:
REMARK  status: ('A' for Active; 'I' for Inactive)
REMARK    1  A    between atoms: C_2  and  C_3
REMARK    2  A    between atoms: C_2  and  C_9
REMARK    3  A    between atoms: C_13  and  C_14
REMARK    4  A    between atoms: C_14  and  C_16
REMARK                            x       y       z     vdW  Elec       q    Type
REMARK                         _______ _______ _______ _____ _____    ______ ____
ROOT
ATOM      1  C   UNL     1       3.743   3.426  18.608  0.00  0.00    +0.000 A 
ATOM      2  C   UNL     1       3.393   2.149  18.028  0.00  0.00    +0.000 A 
ATOM      3  C   UNL     1       2.089   1.790  18.256  0.00  0.00    +0.000 A 
ATOM      4  S   UNL     1       1.270   2.952  19.183  0.00  0.00    +0.000 S 
ATOM      5  C   UNL     1       2.661   3.976  19.296  0.00  0.00    +0.000 A 
ENDROOT
BRANCH   1   7
ATOM      6  O   UNL     1       5.769   4.179  19.547  0.00  0.00    +0.000 OA
ATOM      7  C   UNL     1       5.091   3.996  18.538  0.00  0.00    +0.000 C 
BRANCH   7   8
ATOM      8  C   UNL     1       5.660   4.342  17.199  0.00  0.00    +0.000 A 
ATOM      9  C   UNL     1       4.805   4.379  16.091  0.00  0.00    +0.000 A 
ATOM     10  C   UNL     1       5.306   4.693  14.824  0.00  0.00    +0.000 A 
ATOM     11  C   UNL     1       6.664   4.963  14.655  0.00  0.00    +0.000 A 
ATOM     12  C   UNL     1       7.524   4.917  15.748  0.00  0.00    +0.000 A 
ATOM     13  C   UNL     1       7.029   4.598  17.016  0.00  0.00    +0.000 A 
ENDBRANCH   7   8
ENDBRANCH   1   7
BRANCH   5  14
ATOM     14  C   UNL     1       2.482   5.193  20.094  0.00  0.00    +0.000 C 
ATOM     15  O   UNL     1       2.423   5.174  21.325  0.00  0.00    +0.000 OA
BRANCH  14  16
ATOM     16  C   UNL     1       2.310   6.537  19.470  0.00  0.00    +0.000 A 
ATOM     17  C   UNL     1       1.687   7.540  20.231  0.00  0.00    +0.000 A 
ATOM     18  C   UNL     1       1.519   8.824  19.713  0.00  0.00    +0.000 A 
ATOM     19  C   UNL     1       1.966   9.113  18.427  0.00  0.00    +0.000 A 
ATOM     20  C   UNL     1       2.543   8.112  17.644  0.00  0.00    +0.000 A 
ATOM     21  C   UNL     1       2.692   6.818  18.152  0.00  0.00    +0.000 A 
ENDBRANCH  14  16
ENDBRANCH   5  14
TORSDOF 4
ENDMDL
MODEL 9
REMARK VINA RESULT:      -7.0      2.647      6.342
REMARK  Name = 
REMARK  4 active torsions:
REMARK  status: ('A' for Active; 'I' for Inactive)
REMARK    1  A    between atoms: C_2  and  C_3
REMARK    2  A    between atoms: C_2  and  C_9
REMARK    3  A    between atoms: C_13  and  C_14
REMARK    4  A    between atoms: C_14  and  C_16
REMARK                            x       y       z     vdW  Elec       q    Type
REMARK                         _______ _______ _______ _____ _____    ______ ____
ROOT
ATOM      1  C   UNL     1       5.428   5.521  16.872  0.00  0.00    +0.000 A 
ATOM      2  C   UNL     1       5.301   6.953  16.729  0.00  0.00    +0.000 A 
ATOM      3  C   UNL     1       4.136   7.449  17.257  0.00  0.00    +0.000 A 
ATOM      4  S   UNL     1       3.166   6.216  17.906  0.00  0.00    +0.000 S 
ATOM      5  C   UNL     1       4.302   4.978  17.493  0.00  0.00    +0.000 A 
ENDROOT
BRANCH   1   7
ATOM      6  O   UNL     1       7.420   4.279  17.078  0.00  0.00    +0.000 OA
ATOM      7  C   UNL     1       6.562   4.759  16.341  0.00  0.00    +0.000 C 
BRANCH   7   8
ATOM      8  C   UNL     1       6.660   4.546  14.863  0.00  0.00    +0.000 A 
ATOM      9  C   UNL     1       7.625   5.258  14.141  0.00  0.00    +0.000 A 
ATOM     10  C   UNL     1       7.738   5.087  12.758  0.00  0.00    +0.000 A 
ATOM     11  C   UNL     1       6.885   4.210  12.089  0.00  0.00    +0.000 A 
ATOM     12  C   UNL     1       5.914   3.506  12.797  0.00  0.00    +0.000 A 
ATOM     13  C   UNL     1       5.793   3.678  14.178  0.00  0.00    +0.000 A 
ENDBRANCH   7   8
ENDBRANCH   1   7
BRANCH   5  14
ATOM     14  C   UNL     1       3.892   3.611  17.826  0.00  0.00    +0.000 C 
ATOM     15  O   UNL     1       4.274   2.630  17.185  0.00  0.00    +0.000 OA
BRANCH  14  16
ATOM     16  C   UNL     1       2.941   3.313  18.937  0.00  0.00    +0.000 A 
ATOM     17  C   UNL     1       3.474   3.109  20.220  0.00  0.00    +0.000 A 
ATOM     18  C   UNL     1       2.637   2.851  21.305  0.00  0.00    +0.000 A 
ATOM     19  C   UNL     1       1.259   2.787  21.113  0.00  0.00    +0.000 A 
ATOM     20  C   UNL     1       0.722   2.939  19.834  0.00  0.00    +0.000 A 
ATOM     21  C   UNL     1       1.562   3.176  18.741  0.00  0.00    +0.000 A 
ENDBRANCH  14  16
ENDBRANCH   5  14
TORSDOF 4
ENDMDL
