MODEL 1
REMARK VINA RESULT:      -6.5      0.000      0.000
REMARK  Name = 
REMARK  7 active torsions:
REMARK  status: ('A' for Active; 'I' for Inactive)
REMARK    1  A    between atoms: C_1  and  C_2
REMARK    2  A    between atoms: C_2  and  N_3
REMARK    3  A    between atoms: N_3  and  C_16
REMARK    4  A    between atoms: C_4  and  C_6
REMARK    5  A    between atoms: C_9  and  S_10
REMARK    6  A    between atoms: S_10  and  N_13
REMARK    7  A    between atoms: N_13  and  C_14
REMARK                            x       y       z     vdW  Elec       q    Type
REMARK                         _______ _______ _______ _____ _____    ______ ____
ROOT
ATOM      1  C   UNL     1       3.578   5.837  18.869  0.00  0.00    +0.000 A 
ATOM      2  C   UNL     1       3.601   6.740  17.832  0.00  0.00    +0.000 A 
ATOM      3  O   UNL     1       4.845   6.896  17.328  0.00  0.00    +0.000 OA
ATOM      4  C   UNL     1       5.708   6.126  18.074  0.00  0.00    +0.000 A 
ATOM      5  C   UNL     1       4.961   5.522  19.079  0.00  0.00    +0.000 A 
ENDROOT
BRANCH   1   7
ATOM      6  N   UNL     1       1.928   4.033  19.342  0.00  0.00    +0.000 N 
ATOM      7  C   UNL     1       2.437   5.314  19.632  0.00  0.00    +0.000 C 
ATOM      8  O   UNL     1       1.979   5.996  20.552  0.00  0.00    +0.000 OA
BRANCH   6   9
ATOM      9  C   UNL     1       2.383   3.187  18.262  0.00  0.00    +0.000 C 
ATOM     10  C   UNL     1       3.486   2.177  18.489  0.00  0.00    +0.000 C 
ATOM     11  C   UNL     1       2.107   1.704  18.175  0.00  0.00    +0.000 C 
ENDBRANCH   6   9
BRANCH   6  13
ATOM     12  C   UNL     1       1.325   2.820  21.443  0.00  0.00    +0.000 C 
ATOM     13  C   UNL     1       0.840   3.512  20.178  0.00  0.00    +0.000 C 
ENDBRANCH   6  13
ENDBRANCH   1   7
BRANCH   4  14
ATOM     14  S   UNL     1       7.453   6.070  17.685  0.00  0.00    +0.000 S 
ATOM     15  O   UNL     1       7.674   7.113  16.709  0.00  0.00    +0.000 OA
ATOM     16  O   UNL     1       8.150   6.053  18.958  0.00  0.00    +0.000 OA
BRANCH  14  17
ATOM     17  N   UNL     1       7.757   4.596  16.914  0.00  0.00    +0.000 NA
ATOM     18  C   UNL     1       6.819   4.220  15.850  0.00  0.00    +0.000 C 
ATOM     19  H   UNL     1       7.889   3.871  17.622  0.00  0.00    +0.000 HD
ENDBRANCH  14  17
ENDBRANCH   4  14
TORSDOF 5
ENDMDL
MODEL 2
REMARK VINA RESULT:      -6.2      2.032      2.987
REMARK  Name = 
REMARK  7 active torsions:
REMARK  status: ('A' for Active; 'I' for Inactive)
REMARK    1  A    between atoms: C_1  and  C_2
REMARK    2  A    between atoms: C_2  and  N_3
REMARK    3  A    between atoms: N_3  and  C_16
REMARK    4  A    between atoms: C_4  and  C_6
REMARK    5  A    between atoms: C_9  and  S_10
REMARK    6  A    between atoms: S_10  and  N_13
REMARK    7  A    between atoms: N_13  and  C_14
REMARK                            x       y       z     vdW  Elec       q    Type
REMARK                         _______ _______ _______ _____ _____    ______ ____
ROOT
ATOM      1  C   UNL     1       3.757   3.619  17.792  0.00  0.00    +0.000 A 
ATOM      2  C   UNL     1       3.580   3.986  16.479  0.00  0.00    +0.000 A 
ATOM      3  O   UNL     1       4.732   4.411  15.915  0.00  0.00    +0.000 OA
ATOM      4  C   UNL     1       5.714   4.391  16.881  0.00  0.00    +0.000 A 
ATOM      5  C   UNL     1       5.119   3.977  18.067  0.00  0.00    +0.000 A 
ENDROOT
BRANCH   1   7
ATOM      6  N   UNL     1       2.280   3.809  19.788  0.00  0.00    +0.000 N 
ATOM      7  C   UNL     1       2.801   3.027  18.738  0.00  0.00    +0.000 C 
ATOM      8  O   UNL     1       2.436   1.863  18.559  0.00  0.00    +0.000 OA
BRANCH   6   9
ATOM      9  C   UNL     1       2.680   5.164  20.089  0.00  0.00    +0.000 C 
ATOM     10  C   UNL     1       2.241   6.309  19.202  0.00  0.00    +0.000 C 
ATOM     11  C   UNL     1       1.741   6.230  20.604  0.00  0.00    +0.000 C 
ENDBRANCH   6   9
BRANCH   6  13
ATOM     12  C   UNL     1       1.848   2.603  21.935  0.00  0.00    +0.000 C 
ATOM     13  C   UNL     1       1.268   3.207  20.665  0.00  0.00    +0.000 C 
ENDBRANCH   6  13
ENDBRANCH   1   7
BRANCH   4  14
ATOM     14  S   UNL     1       7.390   4.878  16.492  0.00  0.00    +0.000 S 
ATOM     15  O   UNL     1       8.234   4.179  17.435  0.00  0.00    +0.000 OA
ATOM     16  O   UNL     1       7.538   4.705  15.059  0.00  0.00    +0.000 OA
BRANCH  14  17
ATOM     17  N   UNL     1       7.532   6.529  16.827  0.00  0.00    +0.000 NA
ATOM     18  C   UNL     1       7.777   6.883  18.229  0.00  0.00    +0.000 C 
ATOM     19  H   UNL     1       6.740   7.023  16.411  0.00  0.00    +0.000 HD
ENDBRANCH  14  17
ENDBRANCH   4  14
TORSDOF 5
ENDMDL
MODEL 3
REMARK VINA RESULT:      -6.2      1.261      1.700
REMARK  Name = 
REMARK  7 active torsions:
REMARK  status: ('A' for Active; 'I' for Inactive)
REMARK    1  A    between atoms: C_1  and  C_2
REMARK    2  A    between atoms: C_2  and  N_3
REMARK    3  A    between atoms: N_3  and  C_16
REMARK    4  A    between atoms: C_4  and  C_6
REMARK    5  A    between atoms: C_9  and  S_10
REMARK    6  A    between atoms: S_10  and  N_13
REMARK    7  A    between atoms: N_13  and  C_14
REMARK                            x       y       z     vdW  Elec       q    Type
REMARK                         _______ _______ _______ _____ _____    ______ ____
ROOT
ATOM      1  C   UNL     1       3.524   5.816  18.682  0.00  0.00    +0.000 A 
ATOM      2  C   UNL     1       3.433   6.837  17.767  0.00  0.00    +0.000 A 
ATOM      3  O   UNL     1       4.525   6.900  16.973  0.00  0.00    +0.000 OA
ATOM      4  C   UNL     1       5.414   5.935  17.390  0.00  0.00    +0.000 A 
ATOM      5  C   UNL     1       4.850   5.303  18.492  0.00  0.00    +0.000 A 
ENDROOT
BRANCH   1   7
ATOM      6  N   UNL     1       1.927   4.087  19.494  0.00  0.00    +0.000 N 
ATOM      7  C   UNL     1       2.537   5.345  19.664  0.00  0.00    +0.000 C 
ATOM      8  O   UNL     1       2.301   6.048  20.649  0.00  0.00    +0.000 OA
BRANCH   6   9
ATOM      9  C   UNL     1       2.120   3.220  18.355  0.00  0.00    +0.000 C 
ATOM     10  C   UNL     1       3.136   2.099  18.405  0.00  0.00    +0.000 C 
ATOM     11  C   UNL     1       1.683   1.774  18.307  0.00  0.00    +0.000 C 
ENDBRANCH   6   9
BRANCH   6  13
ATOM     12  C   UNL     1       1.701   2.883  21.674  0.00  0.00    +0.000 C 
ATOM     13  C   UNL     1       1.006   3.616  20.537  0.00  0.00    +0.000 C 
ENDBRANCH   6  13
ENDBRANCH   1   7
BRANCH   4  14
ATOM     14  S   UNL     1       6.980   5.710  16.556  0.00  0.00    +0.000 S 
ATOM     15  O   UNL     1       7.702   4.726  17.330  0.00  0.00    +0.000 OA
ATOM     16  O   UNL     1       6.664   5.501  15.155  0.00  0.00    +0.000 OA
BRANCH  14  17
ATOM     17  N   UNL     1       7.836   7.163  16.679  0.00  0.00    +0.000 NA
ATOM     18  C   UNL     1       7.890   7.769  18.014  0.00  0.00    +0.000 C 
ATOM     19  H   UNL     1       7.513   7.802  15.950  0.00  0.00    +0.000 HD
ENDBRANCH  14  17
ENDBRANCH   4  14
TORSDOF 5
ENDMDL
MODEL 4
REMARK VINA RESULT:      -6.2      2.363      3.294
REMARK  Name = 
REMARK  7 active torsions:
REMARK  status: ('A' for Active; 'I' for Inactive)
REMARK    1  A    between atoms: C_1  and  C_2
REMARK    2  A    between atoms: C_2  and  N_3
REMARK    3  A    between atoms: N_3  and  C_16
REMARK    4  A    between atoms: C_4  and  C_6
REMARK    5  A    between atoms: C_9  and  S_10
REMARK    6  A    between atoms: S_10  and  N_13
REMARK    7  A    between atoms: N_13  and  C_14
REMARK                            x       y       z     vdW  Elec       q    Type
REMARK                         _______ _______ _______ _____ _____    ______ ____
ROOT
ATOM      1  C   UNL     1       5.078   4.148  18.557  0.00  0.00    +0.000 A 
ATOM      2  C   UNL     1       6.357   4.627  18.715  0.00  0.00    +0.000 A 
ATOM      3  O   UNL     1       6.924   4.948  17.531  0.00  0.00    +0.000 OA
ATOM      4  C   UNL     1       6.034   4.629  16.530  0.00  0.00    +0.000 A 
ATOM      5  C   UNL     1       4.918   4.063  17.133  0.00  0.00    +0.000 A 
ENDROOT
BRANCH   1   7
ATOM      6  N   UNL     1       3.186   4.735  20.065  0.00  0.00    +0.000 N 
ATOM      7  C   UNL     1       4.086   3.769  19.572  0.00  0.00    +0.000 C 
ATOM      8  O   UNL     1       4.031   2.592  19.934  0.00  0.00    +0.000 OA
BRANCH   6   9
ATOM      9  C   UNL     1       3.206   6.138  19.720  0.00  0.00    +0.000 C 
ATOM     10  C   UNL     1       2.435   6.645  18.521  0.00  0.00    +0.000 C 
ATOM     11  C   UNL     1       2.028   7.068  19.892  0.00  0.00    +0.000 C 
ENDBRANCH   6   9
BRANCH   6  13
ATOM     12  C   UNL     1       0.923   3.712  20.354  0.00  0.00    +0.000 C 
ATOM     13  C   UNL     1       2.157   4.301  21.019  0.00  0.00    +0.000 C 
ENDBRANCH   6  13
ENDBRANCH   1   7
BRANCH   4  14
ATOM     14  S   UNL     1       6.440   4.932  14.814  0.00  0.00    +0.000 S 
ATOM     15  O   UNL     1       5.416   5.825  14.319  0.00  0.00    +0.000 OA
ATOM     16  O   UNL     1       7.845   5.292  14.790  0.00  0.00    +0.000 OA
BRANCH  14  17
ATOM     17  N   UNL     1       6.268   3.470  13.983  0.00  0.00    +0.000 NA
ATOM     18  C   UNL     1       6.181   3.565  12.522  0.00  0.00    +0.000 C 
ATOM     19  H   UNL     1       5.508   2.934  14.407  0.00  0.00    +0.000 HD
ENDBRANCH  14  17
ENDBRANCH   4  14
TORSDOF 5
ENDMDL
MODEL 5
REMARK VINA RESULT:      -6.2      1.872      2.813
REMARK  Name = 
REMARK  7 active torsions:
REMARK  status: ('A' for Active; 'I' for Inactive)
REMARK    1  A    between atoms: C_1  and  C_2
REMARK    2  A    between atoms: C_2  and  N_3
REMARK    3  A    between atoms: N_3  and  C_16
REMARK    4  A    between atoms: C_4  and  C_6
REMARK    5  A    between atoms: C_9  and  S_10
REMARK    6  A    between atoms: S_10  and  N_13
REMARK    7  A    between atoms: N_13  and  C_14
REMARK                            x       y       z     vdW  Elec       q    Type
REMARK                         _______ _______ _______ _____ _____    ______ ____
ROOT
ATOM      1  C   UNL     1       4.470   3.754  18.560  0.00  0.00    +0.000 A 
ATOM      2  C   UNL     1       5.723   3.879  19.110  0.00  0.00    +0.000 A 
ATOM      3  O   UNL     1       6.532   4.651  18.350  0.00  0.00    +0.000 OA
ATOM      4  C   UNL     1       5.835   5.018  17.221  0.00  0.00    +0.000 A 
ATOM      5  C   UNL     1       4.585   4.415  17.292  0.00  0.00    +0.000 A 
ENDROOT
BRANCH   1   7
ATOM      6  N   UNL     1       2.401   3.790  19.946  0.00  0.00    +0.000 N 
ATOM      7  C   UNL     1       3.274   3.087  19.092  0.00  0.00    +0.000 C 
ATOM      8  O   UNL     1       3.034   1.931  18.735  0.00  0.00    +0.000 OA
BRANCH   6   9
ATOM      9  C   UNL     1       2.626   5.129  20.439  0.00  0.00    +0.000 C 
ATOM     10  C   UNL     1       2.361   6.328  19.555  0.00  0.00    +0.000 C 
ATOM     11  C   UNL     1       1.522   6.107  20.768  0.00  0.00    +0.000 C 
ENDBRANCH   6   9
BRANCH   6  13
ATOM     12  C   UNL     1       1.292   2.503  21.780  0.00  0.00    +0.000 C 
ATOM     13  C   UNL     1       1.175   3.116  20.393  0.00  0.00    +0.000 C 
ENDBRANCH   6  13
ENDBRANCH   1   7
BRANCH   4  14
ATOM     14  S   UNL     1       6.588   6.064  15.981  0.00  0.00    +0.000 S 
ATOM     15  O   UNL     1       5.494   6.712  15.293  0.00  0.00    +0.000 OA
ATOM     16  O   UNL     1       7.618   6.823  16.665  0.00  0.00    +0.000 OA
BRANCH  14  17
ATOM     17  N   UNL     1       7.351   5.056  14.859  0.00  0.00    +0.000 NA
ATOM     18  C   UNL     1       6.469   4.212  14.045  0.00  0.00    +0.000 C 
ATOM     19  H   UNL     1       8.097   4.538  15.329  0.00  0.00    +0.000 HD
ENDBRANCH  14  17
ENDBRANCH   4  14
TORSDOF 5
ENDMDL
MODEL 6
REMARK VINA RESULT:      -6.1      2.301      3.157
REMARK  Name = 
REMARK  7 active torsions:
REMARK  status: ('A' for Active; 'I' for Inactive)
REMARK    1  A    between atoms: C_1  and  C_2
REMARK    2  A    between atoms: C_2  and  N_3
REMARK    3  A    between atoms: N_3  and  C_16
REMARK    4  A    between atoms: C_4  and  C_6
REMARK    5  A    between atoms: C_9  and  S_10
REMARK    6  A    between atoms: S_10  and  N_13
REMARK    7  A    between atoms: N_13  and  C_14
REMARK                            x       y       z     vdW  Elec       q    Type
REMARK                         _______ _______ _______ _____ _____    ______ ____
ROOT
ATOM      1  C   UNL     1       4.235   3.513  18.254  0.00  0.00    +0.000 A 
ATOM      2  C   UNL     1       5.411   3.999  18.774  0.00  0.00    +0.000 A 
ATOM      3  O   UNL     1       6.227   4.480  17.810  0.00  0.00    +0.000 OA
ATOM      4  C   UNL     1       5.621   4.267  16.591  0.00  0.00    +0.000 A 
ATOM      5  C   UNL     1       4.424   3.604  16.835  0.00  0.00    +0.000 A 
ENDROOT
BRANCH   1   7
ATOM      6  N   UNL     1       2.323   3.818  19.820  0.00  0.00    +0.000 N 
ATOM      7  C   UNL     1       3.050   2.987  18.945  0.00  0.00    +0.000 C 
ATOM      8  O   UNL     1       2.687   1.834  18.703  0.00  0.00    +0.000 OA
BRANCH   6   9
ATOM      9  C   UNL     1       2.698   5.165  20.185  0.00  0.00    +0.000 C 
ATOM     10  C   UNL     1       2.385   6.326  19.266  0.00  0.00    +0.000 C 
ATOM     11  C   UNL     1       1.714   6.236  20.596  0.00  0.00    +0.000 C 
ENDBRANCH   6   9
BRANCH   6  13
ATOM     12  C   UNL     1       1.330   2.649  21.794  0.00  0.00    +0.000 C 
ATOM     13  C   UNL     1       1.099   3.283  20.431  0.00  0.00    +0.000 C 
ENDBRANCH   6  13
ENDBRANCH   1   7
BRANCH   4  14
ATOM     14  S   UNL     1       6.409   4.792  15.074  0.00  0.00    +0.000 S 
ATOM     15  O   UNL     1       5.581   5.854  14.547  0.00  0.00    +0.000 OA
ATOM     16  O   UNL     1       7.808   5.001  15.397  0.00  0.00    +0.000 OA
BRANCH  14  17
ATOM     17  N   UNL     1       6.320   3.505  13.981  0.00  0.00    +0.000 NA
ATOM     18  C   UNL     1       5.476   3.719  12.801  0.00  0.00    +0.000 C 
ATOM     19  H   UNL     1       6.102   2.648  14.493  0.00  0.00    +0.000 HD
ENDBRANCH  14  17
ENDBRANCH   4  14
TORSDOF 5
ENDMDL
MODEL 7
REMARK VINA RESULT:      -6.1      2.063      3.108
REMARK  Name = 
REMARK  7 active torsions:
REMARK  status: ('A' for Active; 'I' for Inactive)
REMARK    1  A    between atoms: C_1  and  C_2
REMARK    2  A    between atoms: C_2  and  N_3
REMARK    3  A    between atoms: N_3  and  C_16
REMARK    4  A    between atoms: C_4  and  C_6
REMARK    5  A    between atoms: C_9  and  S_10
REMARK    6  A    between atoms: S_10  and  N_13
REMARK    7  A    between atoms: N_13  and  C_14
REMARK                            x       y       z     vdW  Elec       q    Type
REMARK                         _______ _______ _______ _____ _____    ______ ____
ROOT
ATOM      1  C   UNL     1       4.441   3.588  18.554  0.00  0.00    +0.000 A 
ATOM      2  C   UNL     1       5.666   3.807  19.139  0.00  0.00    +0.000 A 
ATOM      3  O   UNL     1       6.495   4.500  18.327  0.00  0.00    +0.000 OA
ATOM      4  C   UNL     1       5.845   4.713  17.133  0.00  0.00    +0.000 A 
ATOM      5  C   UNL     1       4.604   4.094  17.221  0.00  0.00    +0.000 A 
ENDROOT
BRANCH   1   7
ATOM      6  N   UNL     1       2.381   3.708  19.947  0.00  0.00    +0.000 N 
ATOM      7  C   UNL     1       3.234   2.962  19.110  0.00  0.00    +0.000 C 
ATOM      8  O   UNL     1       2.967   1.803  18.787  0.00  0.00    +0.000 OA
BRANCH   6   9
ATOM      9  C   UNL     1       2.637   5.056  20.401  0.00  0.00    +0.000 C 
ATOM     10  C   UNL     1       2.404   6.234  19.481  0.00  0.00    +0.000 C 
ATOM     11  C   UNL     1       1.556   6.069  20.697  0.00  0.00    +0.000 C 
ENDBRANCH   6   9
BRANCH   6  13
ATOM     12  C   UNL     1       1.254   2.498  21.822  0.00  0.00    +0.000 C 
ATOM     13  C   UNL     1       1.143   3.074  20.419  0.00  0.00    +0.000 C 
ENDBRANCH   6  13
ENDBRANCH   1   7
BRANCH   4  14
ATOM     14  S   UNL     1       6.636   5.619  15.809  0.00  0.00    +0.000 S 
ATOM     15  O   UNL     1       7.424   4.649  15.082  0.00  0.00    +0.000 OA
ATOM     16  O   UNL     1       5.589   6.390  15.166  0.00  0.00    +0.000 OA
BRANCH  14  17
ATOM     17  N   UNL     1       7.719   6.710  16.514  0.00  0.00    +0.000 NA
ATOM     18  C   UNL     1       7.135   7.700  17.425  0.00  0.00    +0.000 C 
ATOM     19  H   UNL     1       8.304   7.117  15.783  0.00  0.00    +0.000 HD
ENDBRANCH  14  17
ENDBRANCH   4  14
TORSDOF 5
ENDMDL
MODEL 8
REMARK VINA RESULT:      -6.1      1.124      1.300
REMARK  Name = 
REMARK  7 active torsions:
REMARK  status: ('A' for Active; 'I' for Inactive)
REMARK    1  A    between atoms: C_1  and  C_2
REMARK    2  A    between atoms: C_2  and  N_3
REMARK    3  A    between atoms: N_3  and  C_16
REMARK    4  A    between atoms: C_4  and  C_6
REMARK    5  A    between atoms: C_9  and  S_10
REMARK    6  A    between atoms: S_10  and  N_13
REMARK    7  A    between atoms: N_13  and  C_14
REMARK                            x       y       z     vdW  Elec       q    Type
REMARK                         _______ _______ _______ _____ _____    ______ ____
ROOT
ATOM      1  C   UNL     1       3.220   6.020  18.754  0.00  0.00    +0.000 A 
ATOM      2  C   UNL     1       3.068   7.029  17.833  0.00  0.00    +0.000 A 
ATOM      3  O   UNL     1       4.199   7.237  17.123  0.00  0.00    +0.000 OA
ATOM      4  C   UNL     1       5.171   6.390  17.608  0.00  0.00    +0.000 A 
ATOM      5  C   UNL     1       4.612   5.682  18.665  0.00  0.00    +0.000 A 
ENDROOT
BRANCH   1   7
ATOM      6  N   UNL     1       1.793   4.097  19.438  0.00  0.00    +0.000 N 
ATOM      7  C   UNL     1       2.231   5.418  19.659  0.00  0.00    +0.000 C 
ATOM      8  O   UNL     1       1.842   6.073  20.628  0.00  0.00    +0.000 OA
BRANCH   6   9
ATOM      9  C   UNL     1       2.172   3.276  18.311  0.00  0.00    +0.000 C 
ATOM     10  C   UNL     1       3.334   2.313  18.418  0.00  0.00    +0.000 C 
ATOM     11  C   UNL     1       1.952   1.783  18.239  0.00  0.00    +0.000 C 
ENDBRANCH   6   9
BRANCH   6  13
ATOM     12  C   UNL     1       1.562   2.852  21.594  0.00  0.00    +0.000 C 
ATOM     13  C   UNL     1       0.865   3.503  20.409  0.00  0.00    +0.000 C 
ENDBRANCH   6  13
ENDBRANCH   1   7
BRANCH   4  14
ATOM     14  S   UNL     1       6.810   6.375  16.894  0.00  0.00    +0.000 S 
ATOM     15  O   UNL     1       6.661   5.806  15.573  0.00  0.00    +0.000 OA
ATOM     16  O   UNL     1       7.351   7.706  17.097  0.00  0.00    +0.000 OA
BRANCH  14  17
ATOM     17  N   UNL     1       7.749   5.296  17.796  0.00  0.00    +0.000 NA
ATOM     18  C   UNL     1       8.062   5.705  19.169  0.00  0.00    +0.000 C 
ATOM     19  H   UNL     1       8.570   5.030  17.248  0.00  0.00    +0.000 HD
ENDBRANCH  14  17
ENDBRANCH   4  14
TORSDOF 5
ENDMDL
MODEL 9
REMARK VINA RESULT:      -5.9      1.700      2.163
REMARK  Name = 
REMARK  7 active torsions:
REMARK  status: ('A' for Active; 'I' for Inactive)
REMARK    1  A    between atoms: C_1  and  C_2
REMARK    2  A    between atoms: C_2  and  N_3
REMARK    3  A    between atoms: N_3  and  C_16
REMARK    4  A    between atoms: C_4  and  C_6
REMARK    5  A    between atoms: C_9  and  S_10
REMARK    6  A    between atoms: S_10  and  N_13
REMARK    7  A    between atoms: N_13  and  C_14
REMARK                            x       y       z     vdW  Elec       q    Type
REMARK                         _______ _______ _______ _____ _____    ______ ____
ROOT
ATOM      1  C   UNL     1       3.285   5.129  17.712  0.00  0.00    +0.000 A 
ATOM      2  C   UNL     1       3.492   6.483  17.826  0.00  0.00    +0.000 A 
ATOM      3  O   UNL     1       4.750   6.832  17.477  0.00  0.00    +0.000 OA
ATOM      4  C   UNL     1       5.443   5.682  17.171  0.00  0.00    +0.000 A 
ATOM      5  C   UNL     1       4.582   4.612  17.381  0.00  0.00    +0.000 A 
ENDROOT
BRANCH   1   7
ATOM      6  N   UNL     1       1.813   3.717  19.139  0.00  0.00    +0.000 N 
ATOM      7  C   UNL     1       2.056   4.348  17.903  0.00  0.00    +0.000 C 
ATOM      8  O   UNL     1       1.235   4.304  16.984  0.00  0.00    +0.000 OA
BRANCH   6   9
ATOM      9  C   UNL     1       2.735   3.690  20.251  0.00  0.00    +0.000 C 
ATOM     10  C   UNL     1       2.498   4.558  21.467  0.00  0.00    +0.000 C 
ATOM     11  C   UNL     1       2.424   3.074  21.595  0.00  0.00    +0.000 C 
ENDBRANCH   6   9
BRANCH   6  13
ATOM     12  C   UNL     1       0.566   1.571  18.833  0.00  0.00    +0.000 C 
ATOM     13  C   UNL     1       0.537   3.012  19.319  0.00  0.00    +0.000 C 
ENDBRANCH   6  13
ENDBRANCH   1   7
BRANCH   4  14
ATOM     14  S   UNL     1       7.152   5.756  16.648  0.00  0.00    +0.000 S 
ATOM     15  O   UNL     1       7.583   7.113  16.898  0.00  0.00    +0.000 OA
ATOM     16  O   UNL     1       7.811   4.618  17.262  0.00  0.00    +0.000 OA
BRANCH  14  17
ATOM     17  N   UNL     1       7.182   5.526  14.973  0.00  0.00    +0.000 NA
ATOM     18  C   UNL     1       6.547   4.300  14.479  0.00  0.00    +0.000 C 
ATOM     19  H   UNL     1       8.138   5.659  14.636  0.00  0.00    +0.000 HD
ENDBRANCH  14  17
ENDBRANCH   4  14
TORSDOF 5
ENDMDL
