MODEL 1
REMARK VINA RESULT:      -7.9      0.000      0.000
REMARK  Name = 
REMARK  10 active torsions:
REMARK  status: ('A' for Active; 'I' for Inactive)
REMARK    1  A    between atoms: C_1  and  C_2
REMARK    2  A    between atoms: C_2  and  O_3
REMARK    3  A    between atoms: O_3  and  C_4
REMARK    4  A    between atoms: C_4  and  C_6
REMARK    5  A    between atoms: C_6  and  N_7
REMARK    6  A    between atoms: C_11  and  C_12
REMARK    7  A    between atoms: C_16  and  C_17
REMARK    8  A    between atoms: C_22  and  C_23
REMARK    9  A    between atoms: C_23  and  C_24
REMARK   10  A    between atoms: C_26  and  C_27
REMARK                            x       y       z     vdW  Elec       q    Type
REMARK                         _______ _______ _______ _____ _____    ______ ____
ROOT
ATOM      1  N   UNL     1       5.611   4.566  17.687  0.00  0.00    +0.000 N 
ATOM      2  C   UNL     1       5.948   5.675  18.436  0.00  0.00    +0.000 C 
ATOM      3  O   UNL     1       7.092   6.101  18.556  0.00  0.00    +0.000 OA
ATOM      4  N   UNL     1       4.922   6.385  18.956  0.00  0.00    +0.000 N 
ATOM      5  C   UNL     1       3.541   5.973  18.998  0.00  0.00    +0.000 C 
ATOM      6  C   UNL     1       3.185   5.030  17.844  0.00  0.00    +0.000 C 
ATOM      7  C   UNL     1       4.271   3.946  17.756  0.00  0.00    +0.000 C 
ATOM      8  C   UNL     1       3.966   2.954  16.623  0.00  0.00    +0.000 C 
ATOM      9  H   UNL     1       5.213   7.194  19.490  0.00  0.00    +0.000 HD
ENDROOT
BRANCH   5  10
ATOM     10  C   UNL     1       2.656   7.210  19.044  0.00  0.00    +0.000 A 
ATOM     11  C   UNL     1       2.547   8.031  17.914  0.00  0.00    +0.000 A 
ATOM     12  C   UNL     1       1.716   9.151  17.925  0.00  0.00    +0.000 A 
ATOM     13  C   UNL     1       0.980   9.467  19.066  0.00  0.00    +0.000 A 
ATOM     14  C   UNL     1       1.067   8.663  20.213  0.00  0.00    +0.000 A 
ATOM     15  C   UNL     1       1.911   7.538  20.191  0.00  0.00    +0.000 A 
BRANCH  14  16
ATOM     16  C   UNL     1       0.262   8.980  21.450  0.00  0.00    +0.000 C 
ATOM     17  F   UNL     1      -0.334  10.205  21.419  0.00  0.00    +0.000 F 
ATOM     18  F   UNL     1      -0.739   8.082  21.665  0.00  0.00    +0.000 F 
ATOM     19  F   UNL     1       1.025   8.965  22.579  0.00  0.00    +0.000 F 
ENDBRANCH  14  16
ENDBRANCH   5  10
BRANCH   6  20
ATOM     20  C   UNL     1       1.832   4.406  18.150  0.00  0.00    +0.000 C 
ATOM     21  C   UNL     1       1.593   3.862  19.533  0.00  0.00    +0.000 C 
ATOM     22  O   UNL     1       0.936   4.369  17.303  0.00  0.00    +0.000 OA
ENDBRANCH   6  20
BRANCH   1  23
ATOM     23  C   UNL     1       6.632   4.135  16.721  0.00  0.00    +0.000 C 
BRANCH  23  24
ATOM     24  C   UNL     1       6.363   4.655  15.303  0.00  0.00    +0.000 C 
ATOM     25  O   UNL     1       6.110   5.830  15.061  0.00  0.00    +0.000 OA
BRANCH  24  26
ATOM     26  O   UNL     1       6.387   3.660  14.372  0.00  0.00    +0.000 OA
BRANCH  26  28
ATOM     27  C   UNL     1       5.602   3.269  12.137  0.00  0.00    +0.000 C 
ATOM     28  C   UNL     1       6.548   4.077  13.010  0.00  0.00    +0.000 C 
ENDBRANCH  26  28
ENDBRANCH  24  26
ENDBRANCH  23  24
ENDBRANCH   1  23
TORSDOF 7
ENDMDL
MODEL 2
REMARK VINA RESULT:      -7.7      1.936      2.957
REMARK  Name = 
REMARK  10 active torsions:
REMARK  status: ('A' for Active; 'I' for Inactive)
REMARK    1  A    between atoms: C_1  and  C_2
REMARK    2  A    between atoms: C_2  and  O_3
REMARK    3  A    between atoms: O_3  and  C_4
REMARK    4  A    between atoms: C_4  and  C_6
REMARK    5  A    between atoms: C_6  and  N_7
REMARK    6  A    between atoms: C_11  and  C_12
REMARK    7  A    between atoms: C_16  and  C_17
REMARK    8  A    between atoms: C_22  and  C_23
REMARK    9  A    between atoms: C_23  and  C_24
REMARK   10  A    between atoms: C_26  and  C_27
REMARK                            x       y       z     vdW  Elec       q    Type
REMARK                         _______ _______ _______ _____ _____    ______ ____
ROOT
ATOM      1  N   UNL     1       5.585   4.432  18.129  0.00  0.00    +0.000 N 
ATOM      2  C   UNL     1       5.762   5.200  19.261  0.00  0.00    +0.000 C 
ATOM      3  O   UNL     1       6.858   5.519  19.710  0.00  0.00    +0.000 OA
ATOM      4  N   UNL     1       4.644   5.718  19.817  0.00  0.00    +0.000 N 
ATOM      5  C   UNL     1       3.287   5.362  19.483  0.00  0.00    +0.000 C 
ATOM      6  C   UNL     1       3.155   4.892  18.032  0.00  0.00    +0.000 C 
ATOM      7  C   UNL     1       4.270   3.871  17.753  0.00  0.00    +0.000 C 
ATOM      8  C   UNL     1       4.185   3.344  16.312  0.00  0.00    +0.000 C 
ATOM      9  H   UNL     1       4.820   6.281  20.640  0.00  0.00    +0.000 HD
ENDROOT
BRANCH   5  10
ATOM     10  C   UNL     1       2.374   6.535  19.809  0.00  0.00    +0.000 A 
ATOM     11  C   UNL     1       1.652   6.544  21.010  0.00  0.00    +0.000 A 
ATOM     12  C   UNL     1       0.836   7.624  21.342  0.00  0.00    +0.000 A 
ATOM     13  C   UNL     1       0.728   8.714  20.478  0.00  0.00    +0.000 A 
ATOM     14  C   UNL     1       1.439   8.735  19.269  0.00  0.00    +0.000 A 
ATOM     15  C   UNL     1       2.257   7.638  18.943  0.00  0.00    +0.000 A 
BRANCH  14  16
ATOM     16  C   UNL     1       1.348   9.915  18.332  0.00  0.00    +0.000 C 
ATOM     17  F   UNL     1       0.119  10.077  17.769  0.00  0.00    +0.000 F 
ATOM     18  F   UNL     1       1.635  11.095  18.950  0.00  0.00    +0.000 F 
ATOM     19  F   UNL     1       2.225   9.817  17.293  0.00  0.00    +0.000 F 
ENDBRANCH  14  16
ENDBRANCH   5  10
BRANCH   6  20
ATOM     20  C   UNL     1       1.788   4.246  17.872  0.00  0.00    +0.000 C 
ATOM     21  C   UNL     1       1.433   3.094  18.773  0.00  0.00    +0.000 C 
ATOM     22  O   UNL     1       0.971   4.665  17.048  0.00  0.00    +0.000 OA
ENDBRANCH   6  20
BRANCH   1  23
ATOM     23  C   UNL     1       6.765   4.329  17.256  0.00  0.00    +0.000 C 
BRANCH  23  24
ATOM     24  C   UNL     1       6.914   5.534  16.319  0.00  0.00    +0.000 C 
ATOM     25  O   UNL     1       6.384   5.591  15.215  0.00  0.00    +0.000 OA
BRANCH  24  26
ATOM     26  O   UNL     1       7.736   6.493  16.835  0.00  0.00    +0.000 OA
BRANCH  26  28
ATOM     27  C   UNL     1       8.132   8.599  17.915  0.00  0.00    +0.000 C 
ATOM     28  C   UNL     1       7.102   7.716  17.232  0.00  0.00    +0.000 C 
ENDBRANCH  26  28
ENDBRANCH  24  26
ENDBRANCH  23  24
ENDBRANCH   1  23
TORSDOF 7
ENDMDL
MODEL 3
REMARK VINA RESULT:      -7.7      1.620      2.199
REMARK  Name = 
REMARK  10 active torsions:
REMARK  status: ('A' for Active; 'I' for Inactive)
REMARK    1  A    between atoms: C_1  and  C_2
REMARK    2  A    between atoms: C_2  and  O_3
REMARK    3  A    between atoms: O_3  and  C_4
REMARK    4  A    between atoms: C_4  and  C_6
REMARK    5  A    between atoms: C_6  and  N_7
REMARK    6  A    between atoms: C_11  and  C_12
REMARK    7  A    between atoms: C_16  and  C_17
REMARK    8  A    between atoms: C_22  and  C_23
REMARK    9  A    between atoms: C_23  and  C_24
REMARK   10  A    between atoms: C_26  and  C_27
REMARK                            x       y       z     vdW  Elec       q    Type
REMARK                         _______ _______ _______ _____ _____    ______ ____
ROOT
ATOM      1  N   UNL     1       5.652   4.464  18.065  0.00  0.00    +0.000 N 
ATOM      2  C   UNL     1       5.864   5.306  19.137  0.00  0.00    +0.000 C 
ATOM      3  O   UNL     1       6.972   5.687  19.501  0.00  0.00    +0.000 OA
ATOM      4  N   UNL     1       4.762   5.823  19.724  0.00  0.00    +0.000 N 
ATOM      5  C   UNL     1       3.402   5.405  19.490  0.00  0.00    +0.000 C 
ATOM      6  C   UNL     1       3.206   4.841  18.080  0.00  0.00    +0.000 C 
ATOM      7  C   UNL     1       4.338   3.840  17.801  0.00  0.00    +0.000 C 
ATOM      8  C   UNL     1       4.192   3.222  16.402  0.00  0.00    +0.000 C 
ATOM      9  H   UNL     1       4.963   6.442  20.499  0.00  0.00    +0.000 HD
ENDROOT
BRANCH   5  10
ATOM     10  C   UNL     1       2.468   6.567  19.796  0.00  0.00    +0.000 A 
ATOM     11  C   UNL     1       1.757   6.590  21.004  0.00  0.00    +0.000 A 
ATOM     12  C   UNL     1       0.922   7.662  21.317  0.00  0.00    +0.000 A 
ATOM     13  C   UNL     1       0.784   8.728  20.428  0.00  0.00    +0.000 A 
ATOM     14  C   UNL     1       1.484   8.734  19.213  0.00  0.00    +0.000 A 
ATOM     15  C   UNL     1       2.321   7.646  18.906  0.00  0.00    +0.000 A 
BRANCH  14  16
ATOM     16  C   UNL     1       1.361   9.889  18.248  0.00  0.00    +0.000 C 
ATOM     17  F   UNL     1       1.376  11.111  18.849  0.00  0.00    +0.000 F 
ATOM     18  F   UNL     1       2.368   9.911  17.331  0.00  0.00    +0.000 F 
ATOM     19  F   UNL     1       0.204   9.840  17.530  0.00  0.00    +0.000 F 
ENDBRANCH  14  16
ENDBRANCH   5  10
BRANCH   6  20
ATOM     20  C   UNL     1       1.855   4.143  18.039  0.00  0.00    +0.000 C 
ATOM     21  C   UNL     1       1.562   3.093  19.077  0.00  0.00    +0.000 C 
ATOM     22  O   UNL     1       1.003   4.443  17.199  0.00  0.00    +0.000 OA
ENDBRANCH   6  20
BRANCH   1  23
ATOM     23  C   UNL     1       6.784   4.344  17.134  0.00  0.00    +0.000 C 
BRANCH  23  24
ATOM     24  C   UNL     1       6.754   5.404  16.026  0.00  0.00    +0.000 C 
ATOM     25  O   UNL     1       5.972   6.348  16.027  0.00  0.00    +0.000 OA
BRANCH  24  26
ATOM     26  O   UNL     1       7.652   5.143  15.034  0.00  0.00    +0.000 OA
BRANCH  26  28
ATOM     27  C   UNL     1       6.288   3.821  13.567  0.00  0.00    +0.000 C 
ATOM     28  C   UNL     1       7.120   5.084  13.704  0.00  0.00    +0.000 C 
ENDBRANCH  26  28
ENDBRANCH  24  26
ENDBRANCH  23  24
ENDBRANCH   1  23
TORSDOF 7
ENDMDL
MODEL 4
REMARK VINA RESULT:      -7.6      1.396      1.648
REMARK  Name = 
REMARK  10 active torsions:
REMARK  status: ('A' for Active; 'I' for Inactive)
REMARK    1  A    between atoms: C_1  and  C_2
REMARK    2  A    between atoms: C_2  and  O_3
REMARK    3  A    between atoms: O_3  and  C_4
REMARK    4  A    between atoms: C_4  and  C_6
REMARK    5  A    between atoms: C_6  and  N_7
REMARK    6  A    between atoms: C_11  and  C_12
REMARK    7  A    between atoms: C_16  and  C_17
REMARK    8  A    between atoms: C_22  and  C_23
REMARK    9  A    between atoms: C_23  and  C_24
REMARK   10  A    between atoms: C_26  and  C_27
REMARK                            x       y       z     vdW  Elec       q    Type
REMARK                         _______ _______ _______ _____ _____    ______ ____
ROOT
ATOM      1  N   UNL     1       4.752   5.109  16.679  0.00  0.00    +0.000 N 
ATOM      2  C   UNL     1       4.975   6.468  16.590  0.00  0.00    +0.000 C 
ATOM      3  O   UNL     1       5.680   6.993  15.735  0.00  0.00    +0.000 OA
ATOM      4  N   UNL     1       4.264   7.251  17.432  0.00  0.00    +0.000 N 
ATOM      5  C   UNL     1       3.480   6.797  18.554  0.00  0.00    +0.000 C 
ATOM      6  C   UNL     1       2.941   5.379  18.345  0.00  0.00    +0.000 C 
ATOM      7  C   UNL     1       4.096   4.493  17.852  0.00  0.00    +0.000 C 
ATOM      8  C   UNL     1       3.626   3.046  17.637  0.00  0.00    +0.000 C 
ATOM      9  H   UNL     1       4.451   8.240  17.327  0.00  0.00    +0.000 HD
ENDROOT
BRANCH   5  10
ATOM     10  C   UNL     1       2.380   7.811  18.831  0.00  0.00    +0.000 A 
ATOM     11  C   UNL     1       1.839   8.559  17.777  0.00  0.00    +0.000 A 
ATOM     12  C   UNL     1       0.808   9.469  18.005  0.00  0.00    +0.000 A 
ATOM     13  C   UNL     1       0.300   9.646  19.292  0.00  0.00    +0.000 A 
ATOM     14  C   UNL     1       0.820   8.911  20.368  0.00  0.00    +0.000 A 
ATOM     15  C   UNL     1       1.862   7.998  20.126  0.00  0.00    +0.000 A 
BRANCH  14  16
ATOM     16  C   UNL     1       0.269   9.077  21.764  0.00  0.00    +0.000 C 
ATOM     17  F   UNL     1      -0.770   8.243  22.047  0.00  0.00    +0.000 F 
ATOM     18  F   UNL     1       1.206   8.846  22.725  0.00  0.00    +0.000 F 
ATOM     19  F   UNL     1      -0.192  10.339  21.989  0.00  0.00    +0.000 F 
ENDBRANCH  14  16
ENDBRANCH   5  10
BRANCH   6  20
ATOM     20  C   UNL     1       2.416   4.876  19.681  0.00  0.00    +0.000 C 
ATOM     21  C   UNL     1       1.002   4.364  19.745  0.00  0.00    +0.000 C 
ATOM     22  O   UNL     1       3.131   4.857  20.686  0.00  0.00    +0.000 OA
ENDBRANCH   6  20
BRANCH   1  23
ATOM     23  C   UNL     1       5.087   4.343  15.469  0.00  0.00    +0.000 C 
BRANCH  23  24
ATOM     24  C   UNL     1       6.596   4.301  15.195  0.00  0.00    +0.000 C 
ATOM     25  O   UNL     1       7.436   4.265  16.087  0.00  0.00    +0.000 OA
BRANCH  24  26
ATOM     26  O   UNL     1       6.882   4.359  13.863  0.00  0.00    +0.000 OA
BRANCH  26  28
ATOM     27  C   UNL     1       6.726   3.144  11.799  0.00  0.00    +0.000 C 
ATOM     28  C   UNL     1       5.961   3.690  12.992  0.00  0.00    +0.000 C 
ENDBRANCH  26  28
ENDBRANCH  24  26
ENDBRANCH  23  24
ENDBRANCH   1  23
TORSDOF 7
ENDMDL
MODEL 5
REMARK VINA RESULT:      -7.5      0.764      1.181
REMARK  Name = 
REMARK  10 active torsions:
REMARK  status: ('A' for Active; 'I' for Inactive)
REMARK    1  A    between atoms: C_1  and  C_2
REMARK    2  A    between atoms: C_2  and  O_3
REMARK    3  A    between atoms: O_3  and  C_4
REMARK    4  A    between atoms: C_4  and  C_6
REMARK    5  A    between atoms: C_6  and  N_7
REMARK    6  A    between atoms: C_11  and  C_12
REMARK    7  A    between atoms: C_16  and  C_17
REMARK    8  A    between atoms: C_22  and  C_23
REMARK    9  A    between atoms: C_23  and  C_24
REMARK   10  A    between atoms: C_26  and  C_27
REMARK                            x       y       z     vdW  Elec       q    Type
REMARK                         _______ _______ _______ _____ _____    ______ ____
ROOT
ATOM      1  N   UNL     1       5.516   4.702  17.561  0.00  0.00    +0.000 N 
ATOM      2  C   UNL     1       5.855   5.798  18.327  0.00  0.00    +0.000 C 
ATOM      3  O   UNL     1       6.994   6.240  18.425  0.00  0.00    +0.000 OA
ATOM      4  N   UNL     1       4.832   6.476  18.892  0.00  0.00    +0.000 N 
ATOM      5  C   UNL     1       3.459   6.039  18.962  0.00  0.00    +0.000 C 
ATOM      6  C   UNL     1       3.087   5.119  17.796  0.00  0.00    +0.000 C 
ATOM      7  C   UNL     1       4.189   4.056  17.651  0.00  0.00    +0.000 C 
ATOM      8  C   UNL     1       3.868   3.086  16.503  0.00  0.00    +0.000 C 
ATOM      9  H   UNL     1       5.124   7.277  19.438  0.00  0.00    +0.000 HD
ENDROOT
BRANCH   5  10
ATOM     10  C   UNL     1       2.555   7.259  19.063  0.00  0.00    +0.000 A 
ATOM     11  C   UNL     1       2.373   8.085  17.946  0.00  0.00    +0.000 A 
ATOM     12  C   UNL     1       1.523   9.188  18.009  0.00  0.00    +0.000 A 
ATOM     13  C   UNL     1       0.841   9.483  19.189  0.00  0.00    +0.000 A 
ATOM     14  C   UNL     1       1.002   8.674  20.324  0.00  0.00    +0.000 A 
ATOM     15  C   UNL     1       1.865   7.565  20.250  0.00  0.00    +0.000 A 
BRANCH  14  16
ATOM     16  C   UNL     1       0.257   8.968  21.603  0.00  0.00    +0.000 C 
ATOM     17  F   UNL     1      -0.772   8.110  21.850  0.00  0.00    +0.000 F 
ATOM     18  F   UNL     1       1.063   8.911  22.700  0.00  0.00    +0.000 F 
ATOM     19  F   UNL     1      -0.289  10.217  21.606  0.00  0.00    +0.000 F 
ENDBRANCH  14  16
ENDBRANCH   5  10
BRANCH   6  20
ATOM     20  C   UNL     1       1.754   4.464  18.124  0.00  0.00    +0.000 C 
ATOM     21  C   UNL     1       1.555   3.902  19.506  0.00  0.00    +0.000 C 
ATOM     22  O   UNL     1       0.842   4.415  17.295  0.00  0.00    +0.000 OA
ENDBRANCH   6  20
BRANCH   1  23
ATOM     23  C   UNL     1       6.516   4.311  16.556  0.00  0.00    +0.000 C 
BRANCH  23  24
ATOM     24  C   UNL     1       6.494   5.215  15.316  0.00  0.00    +0.000 C 
ATOM     25  O   UNL     1       5.496   5.831  14.958  0.00  0.00    +0.000 OA
BRANCH  24  26
ATOM     26  O   UNL     1       7.682   5.208  14.648  0.00  0.00    +0.000 OA
BRANCH  26  28
ATOM     27  C   UNL     1       8.576   5.959  12.550  0.00  0.00    +0.000 C 
ATOM     28  C   UNL     1       7.604   5.010  13.230  0.00  0.00    +0.000 C 
ENDBRANCH  26  28
ENDBRANCH  24  26
ENDBRANCH  23  24
ENDBRANCH   1  23
TORSDOF 7
ENDMDL
MODEL 6
REMARK VINA RESULT:      -7.4      4.632      7.903
REMARK  Name = 
REMARK  10 active torsions:
REMARK  status: ('A' for Active; 'I' for Inactive)
REMARK    1  A    between atoms: C_1  and  C_2
REMARK    2  A    between atoms: C_2  and  O_3
REMARK    3  A    between atoms: O_3  and  C_4
REMARK    4  A    between atoms: C_4  and  C_6
REMARK    5  A    between atoms: C_6  and  N_7
REMARK    6  A    between atoms: C_11  and  C_12
REMARK    7  A    between atoms: C_16  and  C_17
REMARK    8  A    between atoms: C_22  and  C_23
REMARK    9  A    between atoms: C_23  and  C_24
REMARK   10  A    between atoms: C_26  and  C_27
REMARK                            x       y       z     vdW  Elec       q    Type
REMARK                         _______ _______ _______ _____ _____    ______ ____
ROOT
ATOM      1  N   UNL     1       2.786   4.465  18.108  0.00  0.00    +0.000 N 
ATOM      2  C   UNL     1       3.009   3.282  17.432  0.00  0.00    +0.000 C 
ATOM      3  O   UNL     1       2.260   2.312  17.482  0.00  0.00    +0.000 OA
ATOM      4  N   UNL     1       4.055   3.266  16.578  0.00  0.00    +0.000 N 
ATOM      5  C   UNL     1       5.084   4.271  16.477  0.00  0.00    +0.000 C 
ATOM      6  C   UNL     1       4.579   5.657  16.887  0.00  0.00    +0.000 C 
ATOM      7  C   UNL     1       3.817   5.518  18.215  0.00  0.00    +0.000 C 
ATOM      8  C   UNL     1       3.294   6.881  18.693  0.00  0.00    +0.000 C 
ATOM      9  H   UNL     1       4.177   2.383  16.097  0.00  0.00    +0.000 HD
ENDROOT
BRANCH   5  10
ATOM     10  C   UNL     1       5.664   4.247  15.070  0.00  0.00    +0.000 A 
ATOM     11  C   UNL     1       6.977   4.685  14.849  0.00  0.00    +0.000 A 
ATOM     12  C   UNL     1       7.537   4.640  13.573  0.00  0.00    +0.000 A 
ATOM     13  C   UNL     1       6.794   4.155  12.498  0.00  0.00    +0.000 A 
ATOM     14  C   UNL     1       5.478   3.707  12.687  0.00  0.00    +0.000 A 
ATOM     15  C   UNL     1       4.922   3.761  13.978  0.00  0.00    +0.000 A 
BRANCH  14  16
ATOM     16  C   UNL     1       4.667   3.161  11.537  0.00  0.00    +0.000 C 
ATOM     17  F   UNL     1       4.591   4.004  10.469  0.00  0.00    +0.000 F 
ATOM     18  F   UNL     1       5.170   1.991  11.054  0.00  0.00    +0.000 F 
ATOM     19  F   UNL     1       3.380   2.894  11.895  0.00  0.00    +0.000 F 
ENDBRANCH  14  16
ENDBRANCH   5  10
BRANCH   6  20
ATOM     20  C   UNL     1       5.787   6.565  17.057  0.00  0.00    +0.000 C 
ATOM     21  C   UNL     1       6.821   6.192  18.085  0.00  0.00    +0.000 C 
ATOM     22  O   UNL     1       5.940   7.568  16.355  0.00  0.00    +0.000 OA
ENDBRANCH   6  20
BRANCH   1  23
ATOM     23  C   UNL     1       1.410   4.656  18.591  0.00  0.00    +0.000 C 
BRANCH  23  24
ATOM     24  C   UNL     1       1.277   4.430  20.102  0.00  0.00    +0.000 C 
ATOM     25  O   UNL     1       1.434   5.324  20.927  0.00  0.00    +0.000 OA
BRANCH  24  26
ATOM     26  O   UNL     1       1.018   3.127  20.411  0.00  0.00    +0.000 OA
BRANCH  26  28
ATOM     27  C   UNL     1       3.193   2.397  21.117  0.00  0.00    +0.000 C 
ATOM     28  C   UNL     1       1.742   2.589  21.525  0.00  0.00    +0.000 C 
ENDBRANCH  26  28
ENDBRANCH  24  26
ENDBRANCH  23  24
ENDBRANCH   1  23
TORSDOF 7
ENDMDL
MODEL 7
REMARK VINA RESULT:      -7.2      0.898      1.306
REMARK  Name = 
REMARK  10 active torsions:
REMARK  status: ('A' for Active; 'I' for Inactive)
REMARK    1  A    between atoms: C_1  and  C_2
REMARK    2  A    between atoms: C_2  and  O_3
REMARK    3  A    between atoms: O_3  and  C_4
REMARK    4  A    between atoms: C_4  and  C_6
REMARK    5  A    between atoms: C_6  and  N_7
REMARK    6  A    between atoms: C_11  and  C_12
REMARK    7  A    between atoms: C_16  and  C_17
REMARK    8  A    between atoms: C_22  and  C_23
REMARK    9  A    between atoms: C_23  and  C_24
REMARK   10  A    between atoms: C_26  and  C_27
REMARK                            x       y       z     vdW  Elec       q    Type
REMARK                         _______ _______ _______ _____ _____    ______ ____
ROOT
ATOM      1  N   UNL     1       5.304   4.096  18.518  0.00  0.00    +0.000 N 
ATOM      2  C   UNL     1       5.623   5.168  19.327  0.00  0.00    +0.000 C 
ATOM      3  O   UNL     1       6.769   5.483  19.628  0.00  0.00    +0.000 OA
ATOM      4  N   UNL     1       4.600   5.972  19.693  0.00  0.00    +0.000 N 
ATOM      5  C   UNL     1       3.197   5.693  19.514  0.00  0.00    +0.000 C 
ATOM      6  C   UNL     1       2.937   4.789  18.305  0.00  0.00    +0.000 C 
ATOM      7  C   UNL     1       3.917   3.607  18.369  0.00  0.00    +0.000 C 
ATOM      8  C   UNL     1       3.699   2.648  17.188  0.00  0.00    +0.000 C 
ATOM      9  H   UNL     1       4.879   6.749  20.277  0.00  0.00    +0.000 HD
ENDROOT
BRANCH   5  10
ATOM     10  C   UNL     1       2.435   7.009  19.442  0.00  0.00    +0.000 A 
ATOM     11  C   UNL     1       2.459   7.763  18.261  0.00  0.00    +0.000 A 
ATOM     12  C   UNL     1       1.742   8.955  18.164  0.00  0.00    +0.000 A 
ATOM     13  C   UNL     1       0.988   9.410  19.245  0.00  0.00    +0.000 A 
ATOM     14  C   UNL     1       0.943   8.676  20.440  0.00  0.00    +0.000 A 
ATOM     15  C   UNL     1       1.674   7.478  20.528  0.00  0.00    +0.000 A 
BRANCH  14  16
ATOM     16  C   UNL     1       0.117   9.146  21.613  0.00  0.00    +0.000 C 
ATOM     17  F   UNL     1       0.844   9.369  22.743  0.00  0.00    +0.000 F 
ATOM     18  F   UNL     1      -0.540  10.311  21.354  0.00  0.00    +0.000 F 
ATOM     19  F   UNL     1      -0.845   8.245  21.960  0.00  0.00    +0.000 F 
ENDBRANCH  14  16
ENDBRANCH   5  10
BRANCH   6  20
ATOM     20  C   UNL     1       1.500   4.297  18.389  0.00  0.00    +0.000 C 
ATOM     21  C   UNL     1       0.984   3.825  19.722  0.00  0.00    +0.000 C 
ATOM     22  O   UNL     1       0.760   4.306  17.403  0.00  0.00    +0.000 OA
ENDBRANCH   6  20
BRANCH   1  23
ATOM     23  C   UNL     1       6.417   3.570  17.714  0.00  0.00    +0.000 C 
BRANCH  23  24
ATOM     24  C   UNL     1       6.879   4.551  16.629  0.00  0.00    +0.000 C 
ATOM     25  O   UNL     1       8.060   4.805  16.418  0.00  0.00    +0.000 OA
BRANCH  24  26
ATOM     26  O   UNL     1       5.833   5.132  15.976  0.00  0.00    +0.000 OA
BRANCH  26  28
ATOM     27  C   UNL     1       6.470   4.277  13.825  0.00  0.00    +0.000 C 
ATOM     28  C   UNL     1       5.339   4.428  14.828  0.00  0.00    +0.000 C 
ENDBRANCH  26  28
ENDBRANCH  24  26
ENDBRANCH  23  24
ENDBRANCH   1  23
TORSDOF 7
ENDMDL
MODEL 8
REMARK VINA RESULT:      -7.1      4.610      7.848
REMARK  Name = 
REMARK  10 active torsions:
REMARK  status: ('A' for Active; 'I' for Inactive)
REMARK    1  A    between atoms: C_1  and  C_2
REMARK    2  A    between atoms: C_2  and  O_3
REMARK    3  A    between atoms: O_3  and  C_4
REMARK    4  A    between atoms: C_4  and  C_6
REMARK    5  A    between atoms: C_6  and  N_7
REMARK    6  A    between atoms: C_11  and  C_12
REMARK    7  A    between atoms: C_16  and  C_17
REMARK    8  A    between atoms: C_22  and  C_23
REMARK    9  A    between atoms: C_23  and  C_24
REMARK   10  A    between atoms: C_26  and  C_27
REMARK                            x       y       z     vdW  Elec       q    Type
REMARK                         _______ _______ _______ _____ _____    ______ ____
ROOT
ATOM      1  N   UNL     1       2.094   7.597  19.461  0.00  0.00    +0.000 N 
ATOM      2  C   UNL     1       2.626   8.175  18.327  0.00  0.00    +0.000 C 
ATOM      3  O   UNL     1       2.571   9.375  18.078  0.00  0.00    +0.000 OA
ATOM      4  N   UNL     1       3.351   7.367  17.523  0.00  0.00    +0.000 N 
ATOM      5  C   UNL     1       3.428   5.930  17.613  0.00  0.00    +0.000 C 
ATOM      6  C   UNL     1       3.210   5.428  19.043  0.00  0.00    +0.000 C 
ATOM      7  C   UNL     1       1.969   6.132  19.616  0.00  0.00    +0.000 C 
ATOM      8  C   UNL     1       1.683   5.661  21.050  0.00  0.00    +0.000 C 
ATOM      9  H   UNL     1       3.730   7.833  16.709  0.00  0.00    +0.000 HD
ENDROOT
BRANCH   5  10
ATOM     10  C   UNL     1       4.752   5.467  17.021  0.00  0.00    +0.000 A 
ATOM     11  C   UNL     1       5.900   5.434  17.823  0.00  0.00    +0.000 A 
ATOM     12  C   UNL     1       7.115   4.982  17.309  0.00  0.00    +0.000 A 
ATOM     13  C   UNL     1       7.201   4.556  15.984  0.00  0.00    +0.000 A 
ATOM     14  C   UNL     1       6.068   4.575  15.156  0.00  0.00    +0.000 A 
ATOM     15  C   UNL     1       4.849   5.036  15.685  0.00  0.00    +0.000 A 
BRANCH  14  16
ATOM     16  C   UNL     1       6.140   4.099  13.726  0.00  0.00    +0.000 C 
ATOM     17  F   UNL     1       4.972   4.241  13.040  0.00  0.00    +0.000 F 
ATOM     18  F   UNL     1       7.082   4.764  13.002  0.00  0.00    +0.000 F 
ATOM     19  F   UNL     1       6.466   2.779  13.638  0.00  0.00    +0.000 F 
ENDBRANCH  14  16
ENDBRANCH   5  10
BRANCH   6  20
ATOM     20  C   UNL     1       2.989   3.924  18.983  0.00  0.00    +0.000 C 
ATOM     21  C   UNL     1       1.891   3.398  18.099  0.00  0.00    +0.000 C 
ATOM     22  O   UNL     1       3.706   3.145  19.616  0.00  0.00    +0.000 OA
ENDBRANCH   6  20
BRANCH   1  23
ATOM     23  C   UNL     1       1.790   8.534  20.554  0.00  0.00    +0.000 C 
BRANCH  23  24
ATOM     24  C   UNL     1       0.330   9.006  20.539  0.00  0.00    +0.000 C 
ATOM     25  O   UNL     1      -0.131   9.722  19.657  0.00  0.00    +0.000 OA
BRANCH  24  26
ATOM     26  O   UNL     1      -0.363   8.582  21.634  0.00  0.00    +0.000 OA
BRANCH  26  28
ATOM     27  C   UNL     1      -0.885  10.434  23.070  0.00  0.00    +0.000 C 
ATOM     28  C   UNL     1      -0.014   9.204  22.878  0.00  0.00    +0.000 C 
ENDBRANCH  26  28
ENDBRANCH  24  26
ENDBRANCH  23  24
ENDBRANCH   1  23
TORSDOF 7
ENDMDL
MODEL 9
REMARK VINA RESULT:      -7.1      1.223      1.529
REMARK  Name = 
REMARK  10 active torsions:
REMARK  status: ('A' for Active; 'I' for Inactive)
REMARK    1  A    between atoms: C_1  and  C_2
REMARK    2  A    between atoms: C_2  and  O_3
REMARK    3  A    between atoms: O_3  and  C_4
REMARK    4  A    between atoms: C_4  and  C_6
REMARK    5  A    between atoms: C_6  and  N_7
REMARK    6  A    between atoms: C_11  and  C_12
REMARK    7  A    between atoms: C_16  and  C_17
REMARK    8  A    between atoms: C_22  and  C_23
REMARK    9  A    between atoms: C_23  and  C_24
REMARK   10  A    between atoms: C_26  and  C_27
REMARK                            x       y       z     vdW  Elec       q    Type
REMARK                         _______ _______ _______ _____ _____    ______ ____
ROOT
ATOM      1  N   UNL     1       4.630   5.063  16.600  0.00  0.00    +0.000 N 
ATOM      2  C   UNL     1       4.959   6.403  16.631  0.00  0.00    +0.000 C 
ATOM      3  O   UNL     1       5.751   6.933  15.859  0.00  0.00    +0.000 OA
ATOM      4  N   UNL     1       4.262   7.174  17.494  0.00  0.00    +0.000 N 
ATOM      5  C   UNL     1       3.381   6.701  18.533  0.00  0.00    +0.000 C 
ATOM      6  C   UNL     1       2.749   5.350  18.184  0.00  0.00    +0.000 C 
ATOM      7  C   UNL     1       3.862   4.414  17.683  0.00  0.00    +0.000 C 
ATOM      8  C   UNL     1       3.297   3.030  17.328  0.00  0.00    +0.000 C 
ATOM      9  H   UNL     1       4.528   8.150  17.478  0.00  0.00    +0.000 HD
ENDROOT
BRANCH   5  10
ATOM     10  C   UNL     1       2.346   7.776  18.832  0.00  0.00    +0.000 A 
ATOM     11  C   UNL     1       1.857   8.580  17.795  0.00  0.00    +0.000 A 
ATOM     12  C   UNL     1       0.884   9.548  18.043  0.00  0.00    +0.000 A 
ATOM     13  C   UNL     1       0.385   9.727  19.332  0.00  0.00    +0.000 A 
ATOM     14  C   UNL     1       0.853   8.936  20.392  0.00  0.00    +0.000 A 
ATOM     15  C   UNL     1       1.837   7.965  20.131  0.00  0.00    +0.000 A 
BRANCH  14  16
ATOM     16  C   UNL     1       0.310   9.103  21.790  0.00  0.00    +0.000 C 
ATOM     17  F   UNL     1       1.239   8.915  22.768  0.00  0.00    +0.000 F 
ATOM     18  F   UNL     1      -0.210  10.345  22.002  0.00  0.00    +0.000 F 
ATOM     19  F   UNL     1      -0.699   8.227  22.059  0.00  0.00    +0.000 F 
ENDBRANCH  14  16
ENDBRANCH   5  10
BRANCH   6  20
ATOM     20  C   UNL     1       2.110   4.791  19.446  0.00  0.00    +0.000 C 
ATOM     21  C   UNL     1       2.976   4.607  20.663  0.00  0.00    +0.000 C 
ATOM     22  O   UNL     1       0.907   4.521  19.491  0.00  0.00    +0.000 OA
ENDBRANCH   6  20
BRANCH   1  23
ATOM     23  C   UNL     1       4.977   4.366  15.352  0.00  0.00    +0.000 C 
BRANCH  23  24
ATOM     24  C   UNL     1       6.485   4.368  15.073  0.00  0.00    +0.000 C 
ATOM     25  O   UNL     1       7.326   4.203  15.949  0.00  0.00    +0.000 OA
BRANCH  24  26
ATOM     26  O   UNL     1       6.770   4.624  13.764  0.00  0.00    +0.000 OA
BRANCH  26  28
ATOM     27  C   UNL     1       5.404   3.511  12.134  0.00  0.00    +0.000 C 
ATOM     28  C   UNL     1       6.727   3.497  12.879  0.00  0.00    +0.000 C 
ENDBRANCH  26  28
ENDBRANCH  24  26
ENDBRANCH  23  24
ENDBRANCH   1  23
TORSDOF 7
ENDMDL
