MODEL 1
REMARK VINA RESULT:      -7.0      0.000      0.000
REMARK  Name = 
REMARK  12 active torsions:
REMARK  status: ('A' for Active; 'I' for Inactive)
REMARK    1  A    between atoms: C_1  and  C_2
REMARK    2  A    between atoms: C_2  and  C_4
REMARK    3  A    between atoms: C_8  and  O_9
REMARK    4  A    between atoms: O_9  and  C_10
REMARK    5  A    between atoms: C_10  and  C_11
REMARK    6  A    between atoms: C_10  and  C_12
REMARK    7  A    between atoms: N_14  and  C_15
REMARK    8  A    between atoms: N_18  and  C_19
REMARK    9  A    between atoms: C_19  and  C_20
REMARK   10  A    between atoms: C_20  and  N_21
REMARK   11  A    between atoms: N_21  and  C_22
REMARK   12  A    between atoms: N_21  and  C_23
REMARK                            x       y       z     vdW  Elec       q    Type
REMARK                         _______ _______ _______ _____ _____    ______ ____
ROOT
ATOM      1  C   UNL     1       6.832   4.694  16.657  0.00  0.00    +0.000 C 
ATOM      2  O   UNL     1       7.979   4.249  16.770  0.00  0.00    +0.000 OA
ATOM      3  N   UNL     1       6.431   5.959  17.037  0.00  0.00    +0.000 N 
ATOM      4  H   UNL     1       5.431   6.125  17.092  0.00  0.00    +0.000 HD
ENDROOT
BRANCH   3   5
ATOM      5  C   UNL     1       7.276   6.873  17.632  0.00  0.00    +0.000 A 
ATOM      6  C   UNL     1       8.107   6.765  18.767  0.00  0.00    +0.000 A 
ATOM      7  N   UNL     1       8.731   7.914  19.046  0.00  0.00    +0.000 NA
ATOM      8  N   UNL     1       8.261   8.761  18.110  0.00  0.00    +0.000 N 
ATOM      9  C   UNL     1       7.443   8.161  17.194  0.00  0.00    +0.000 A 
BRANCH   8  10
ATOM     10  C   UNL     1       8.570  10.178  18.213  0.00  0.00    +0.000 C 
BRANCH  10  11
ATOM     11  C   UNL     1       9.569  10.460  19.338  0.00  0.00    +0.000 C 
BRANCH  11  12
ATOM     12  N   UNL     1      10.248  11.774  19.250  0.00  0.00    +0.000 NA
ATOM     13  C   UNL     1       9.780  12.700  20.286  0.00  0.00    +0.000 C 
ATOM     14  C   UNL     1      11.696  11.580  19.393  0.00  0.00    +0.000 C 
ENDBRANCH  11  12
ENDBRANCH  10  11
ENDBRANCH   8  10
ENDBRANCH   3   5
BRANCH   1  15
ATOM     15  C   UNL     1       5.718   3.843  16.044  0.00  0.00    +0.000 C 
ATOM     16  C   UNL     1       5.808   3.916  14.522  0.00  0.00    +0.000 C 
BRANCH  15  17
ATOM     17  O   UNL     1       4.469   4.358  16.519  0.00  0.00    +0.000 OA
BRANCH  17  22
ATOM     18  C   UNL     1       2.717   3.515  19.680  0.00  0.00    +0.000 A 
ATOM     19  C   UNL     1       2.805   2.122  19.607  0.00  0.00    +0.000 A 
ATOM     20  C   UNL     1       3.381   1.517  18.494  0.00  0.00    +0.000 A 
ATOM     21  C   UNL     1       3.904   2.306  17.468  0.00  0.00    +0.000 A 
ATOM     22  C   UNL     1       3.841   3.701  17.541  0.00  0.00    +0.000 A 
ATOM     23  C   UNL     1       3.206   4.300  18.627  0.00  0.00    +0.000 A 
BRANCH  18  25
ATOM     24  C   UNL     1       1.642   5.603  20.727  0.00  0.00    +0.000 C 
ATOM     25  C   UNL     1       2.169   4.203  20.884  0.00  0.00    +0.000 C 
ATOM     26  O   UNL     1       2.123   3.614  21.963  0.00  0.00    +0.000 OA
ENDBRANCH  18  25
ENDBRANCH  17  22
ENDBRANCH  15  17
ENDBRANCH   1  15
TORSDOF 8
ENDMDL
MODEL 2
REMARK VINA RESULT:      -7.0      4.060      6.544
REMARK  Name = 
REMARK  12 active torsions:
REMARK  status: ('A' for Active; 'I' for Inactive)
REMARK    1  A    between atoms: C_1  and  C_2
REMARK    2  A    between atoms: C_2  and  C_4
REMARK    3  A    between atoms: C_8  and  O_9
REMARK    4  A    between atoms: O_9  and  C_10
REMARK    5  A    between atoms: C_10  and  C_11
REMARK    6  A    between atoms: C_10  and  C_12
REMARK    7  A    between atoms: N_14  and  C_15
REMARK    8  A    between atoms: N_18  and  C_19
REMARK    9  A    between atoms: C_19  and  C_20
REMARK   10  A    between atoms: C_20  and  N_21
REMARK   11  A    between atoms: N_21  and  C_22
REMARK   12  A    between atoms: N_21  and  C_23
REMARK                            x       y       z     vdW  Elec       q    Type
REMARK                         _______ _______ _______ _____ _____    ______ ____
ROOT
ATOM      1  C   UNL     1       4.132   3.701  19.321  0.00  0.00    +0.000 C 
ATOM      2  O   UNL     1       4.207   2.533  18.925  0.00  0.00    +0.000 OA
ATOM      3  N   UNL     1       4.889   4.751  18.842  0.00  0.00    +0.000 N 
ATOM      4  H   UNL     1       4.887   5.605  19.391  0.00  0.00    +0.000 HD
ENDROOT
BRANCH   3   5
ATOM      5  C   UNL     1       5.860   4.604  17.873  0.00  0.00    +0.000 A 
ATOM      6  C   UNL     1       7.268   4.651  17.958  0.00  0.00    +0.000 A 
ATOM      7  N   UNL     1       7.849   4.512  16.761  0.00  0.00    +0.000 NA
ATOM      8  N   UNL     1       6.805   4.418  15.915  0.00  0.00    +0.000 N 
ATOM      9  C   UNL     1       5.593   4.393  16.545  0.00  0.00    +0.000 A 
BRANCH   8  10
ATOM     10  C   UNL     1       7.046   4.453  14.482  0.00  0.00    +0.000 C 
BRANCH  10  11
ATOM     11  C   UNL     1       5.760   4.222  13.684  0.00  0.00    +0.000 C 
BRANCH  11  12
ATOM     12  N   UNL     1       5.888   3.261  12.565  0.00  0.00    +0.000 NA
ATOM     13  C   UNL     1       4.672   3.208  11.748  0.00  0.00    +0.000 C 
ATOM     14  C   UNL     1       7.022   3.654  11.718  0.00  0.00    +0.000 C 
ENDBRANCH  11  12
ENDBRANCH  10  11
ENDBRANCH   8  10
ENDBRANCH   3   5
BRANCH   1  15
ATOM     15  C   UNL     1       3.137   4.095  20.414  0.00  0.00    +0.000 C 
ATOM     16  C   UNL     1       2.704   2.844  21.175  0.00  0.00    +0.000 C 
BRANCH  15  17
ATOM     17  O   UNL     1       2.023   4.730  19.777  0.00  0.00    +0.000 OA
BRANCH  17  22
ATOM     18  C   UNL     1       1.438   8.253  20.790  0.00  0.00    +0.000 A 
ATOM     19  C   UNL     1       1.664   8.869  19.556  0.00  0.00    +0.000 A 
ATOM     20  C   UNL     1       2.059   8.109  18.459  0.00  0.00    +0.000 A 
ATOM     21  C   UNL     1       2.192   6.726  18.584  0.00  0.00    +0.000 A 
ATOM     22  C   UNL     1       1.947   6.096  19.809  0.00  0.00    +0.000 A 
ATOM     23  C   UNL     1       1.614   6.868  20.920  0.00  0.00    +0.000 A 
BRANCH  18  25
ATOM     24  C   UNL     1      -0.523   8.993  22.277  0.00  0.00    +0.000 C 
ATOM     25  C   UNL     1       0.949   9.020  21.971  0.00  0.00    +0.000 C 
ATOM     26  O   UNL     1       1.746   9.625  22.686  0.00  0.00    +0.000 OA
ENDBRANCH  18  25
ENDBRANCH  17  22
ENDBRANCH  15  17
ENDBRANCH   1  15
TORSDOF 8
ENDMDL
MODEL 3
REMARK VINA RESULT:      -6.9      3.978      7.096
REMARK  Name = 
REMARK  12 active torsions:
REMARK  status: ('A' for Active; 'I' for Inactive)
REMARK    1  A    between atoms: C_1  and  C_2
REMARK    2  A    between atoms: C_2  and  C_4
REMARK    3  A    between atoms: C_8  and  O_9
REMARK    4  A    between atoms: O_9  and  C_10
REMARK    5  A    between atoms: C_10  and  C_11
REMARK    6  A    between atoms: C_10  and  C_12
REMARK    7  A    between atoms: N_14  and  C_15
REMARK    8  A    between atoms: N_18  and  C_19
REMARK    9  A    between atoms: C_19  and  C_20
REMARK   10  A    between atoms: C_20  and  N_21
REMARK   11  A    between atoms: N_21  and  C_22
REMARK   12  A    between atoms: N_21  and  C_23
REMARK                            x       y       z     vdW  Elec       q    Type
REMARK                         _______ _______ _______ _____ _____    ______ ____
ROOT
ATOM      1  C   UNL     1       2.917   4.666  18.792  0.00  0.00    +0.000 C 
ATOM      2  O   UNL     1       2.126   4.758  17.846  0.00  0.00    +0.000 OA
ATOM      3  N   UNL     1       3.116   5.633  19.756  0.00  0.00    +0.000 N 
ATOM      4  H   UNL     1       3.937   5.530  20.345  0.00  0.00    +0.000 HD
ENDROOT
BRANCH   3   5
ATOM      5  C   UNL     1       2.469   6.852  19.751  0.00  0.00    +0.000 A 
ATOM      6  C   UNL     1       1.654   7.471  20.722  0.00  0.00    +0.000 A 
ATOM      7  N   UNL     1       1.170   8.644  20.298  0.00  0.00    +0.000 NA
ATOM      8  N   UNL     1       1.647   8.745  19.042  0.00  0.00    +0.000 N 
ATOM      9  C   UNL     1       2.493   7.728  18.697  0.00  0.00    +0.000 A 
BRANCH   8  10
ATOM     10  C   UNL     1       1.165   9.813  18.182  0.00  0.00    +0.000 C 
BRANCH  10  11
ATOM     11  C   UNL     1      -0.263  10.229  18.541  0.00  0.00    +0.000 C 
BRANCH  11  12
ATOM     12  N   UNL     1      -0.395  11.610  19.062  0.00  0.00    +0.000 NA
ATOM     13  C   UNL     1      -1.247  12.439  18.203  0.00  0.00    +0.000 C 
ATOM     14  C   UNL     1      -0.968  11.564  20.413  0.00  0.00    +0.000 C 
ENDBRANCH  11  12
ENDBRANCH  10  11
ENDBRANCH   8  10
ENDBRANCH   3   5
BRANCH   1  15
ATOM     15  C   UNL     1       3.765   3.407  18.984  0.00  0.00    +0.000 C 
ATOM     16  C   UNL     1       3.107   2.513  20.033  0.00  0.00    +0.000 C 
BRANCH  15  17
ATOM     17  O   UNL     1       5.070   3.823  19.398  0.00  0.00    +0.000 OA
BRANCH  17  22
ATOM     18  C   UNL     1       6.771   5.197  16.398  0.00  0.00    +0.000 A 
ATOM     19  C   UNL     1       7.569   6.157  17.027  0.00  0.00    +0.000 A 
ATOM     20  C   UNL     1       7.470   6.354  18.402  0.00  0.00    +0.000 A 
ATOM     21  C   UNL     1       6.599   5.566  19.155  0.00  0.00    +0.000 A 
ATOM     22  C   UNL     1       5.812   4.588  18.538  0.00  0.00    +0.000 A 
ATOM     23  C   UNL     1       5.868   4.438  17.155  0.00  0.00    +0.000 A 
BRANCH  18  25
ATOM     24  C   UNL     1       5.903   3.969  14.313  0.00  0.00    +0.000 C 
ATOM     25  C   UNL     1       6.896   4.908  14.941  0.00  0.00    +0.000 C 
ATOM     26  O   UNL     1       7.771   5.460  14.276  0.00  0.00    +0.000 OA
ENDBRANCH  18  25
ENDBRANCH  17  22
ENDBRANCH  15  17
ENDBRANCH   1  15
TORSDOF 8
ENDMDL
MODEL 4
REMARK VINA RESULT:      -6.9      3.923      7.107
REMARK  Name = 
REMARK  12 active torsions:
REMARK  status: ('A' for Active; 'I' for Inactive)
REMARK    1  A    between atoms: C_1  and  C_2
REMARK    2  A    between atoms: C_2  and  C_4
REMARK    3  A    between atoms: C_8  and  O_9
REMARK    4  A    between atoms: O_9  and  C_10
REMARK    5  A    between atoms: C_10  and  C_11
REMARK    6  A    between atoms: C_10  and  C_12
REMARK    7  A    between atoms: N_14  and  C_15
REMARK    8  A    between atoms: N_18  and  C_19
REMARK    9  A    between atoms: C_19  and  C_20
REMARK   10  A    between atoms: C_20  and  N_21
REMARK   11  A    between atoms: N_21  and  C_22
REMARK   12  A    between atoms: N_21  and  C_23
REMARK                            x       y       z     vdW  Elec       q    Type
REMARK                         _______ _______ _______ _____ _____    ______ ____
ROOT
ATOM      1  C   UNL     1       2.393   5.081  18.487  0.00  0.00    +0.000 C 
ATOM      2  O   UNL     1       1.415   5.038  17.733  0.00  0.00    +0.000 OA
ATOM      3  N   UNL     1       2.862   6.218  19.114  0.00  0.00    +0.000 N 
ATOM      4  H   UNL     1       3.787   6.163  19.528  0.00  0.00    +0.000 HD
ENDROOT
BRANCH   3   5
ATOM      5  C   UNL     1       2.303   7.466  18.935  0.00  0.00    +0.000 A 
ATOM      6  C   UNL     1       2.304   8.330  17.819  0.00  0.00    +0.000 A 
ATOM      7  N   UNL     1       1.685   9.487  18.078  0.00  0.00    +0.000 NA
ATOM      8  N   UNL     1       1.329   9.370  19.372  0.00  0.00    +0.000 N 
ATOM      9  C   UNL     1       1.612   8.144  19.906  0.00  0.00    +0.000 A 
BRANCH   8  10
ATOM     10  C   UNL     1       0.798  10.528  20.072  0.00  0.00    +0.000 C 
BRANCH  10  11
ATOM     11  C   UNL     1      -0.308  10.137  21.056  0.00  0.00    +0.000 C 
BRANCH  11  12
ATOM     12  N   UNL     1      -0.102  10.617  22.443  0.00  0.00    +0.000 NA
ATOM     13  C   UNL     1      -1.257  11.372  22.937  0.00  0.00    +0.000 C 
ATOM     14  C   UNL     1       0.134   9.464  23.322  0.00  0.00    +0.000 C 
ENDBRANCH  11  12
ENDBRANCH  10  11
ENDBRANCH   8  10
ENDBRANCH   3   5
BRANCH   1  15
ATOM     15  C   UNL     1       3.188   3.814  18.813  0.00  0.00    +0.000 C 
ATOM     16  C   UNL     1       2.350   2.913  19.716  0.00  0.00    +0.000 C 
BRANCH  15  17
ATOM     17  O   UNL     1       4.400   4.218  19.458  0.00  0.00    +0.000 OA
BRANCH  17  22
ATOM     18  C   UNL     1       6.657   5.119  16.652  0.00  0.00    +0.000 A 
ATOM     19  C   UNL     1       7.652   5.775  17.383  0.00  0.00    +0.000 A 
ATOM     20  C   UNL     1       7.510   5.947  18.757  0.00  0.00    +0.000 A 
ATOM     21  C   UNL     1       6.389   5.431  19.409  0.00  0.00    +0.000 A 
ATOM     22  C   UNL     1       5.398   4.754  18.691  0.00  0.00    +0.000 A 
ATOM     23  C   UNL     1       5.514   4.640  17.308  0.00  0.00    +0.000 A 
BRANCH  18  25
ATOM     24  C   UNL     1       5.817   3.928  14.535  0.00  0.00    +0.000 C 
ATOM     25  C   UNL     1       6.802   4.855  15.193  0.00  0.00    +0.000 C 
ATOM     26  O   UNL     1       7.688   5.416  14.550  0.00  0.00    +0.000 OA
ENDBRANCH  18  25
ENDBRANCH  17  22
ENDBRANCH  15  17
ENDBRANCH   1  15
TORSDOF 8
ENDMDL
MODEL 5
REMARK VINA RESULT:      -6.9      3.828      7.211
REMARK  Name = 
REMARK  12 active torsions:
REMARK  status: ('A' for Active; 'I' for Inactive)
REMARK    1  A    between atoms: C_1  and  C_2
REMARK    2  A    between atoms: C_2  and  C_4
REMARK    3  A    between atoms: C_8  and  O_9
REMARK    4  A    between atoms: O_9  and  C_10
REMARK    5  A    between atoms: C_10  and  C_11
REMARK    6  A    between atoms: C_10  and  C_12
REMARK    7  A    between atoms: N_14  and  C_15
REMARK    8  A    between atoms: N_18  and  C_19
REMARK    9  A    between atoms: C_19  and  C_20
REMARK   10  A    between atoms: C_20  and  N_21
REMARK   11  A    between atoms: N_21  and  C_22
REMARK   12  A    between atoms: N_21  and  C_23
REMARK                            x       y       z     vdW  Elec       q    Type
REMARK                         _______ _______ _______ _____ _____    ______ ____
ROOT
ATOM      1  C   UNL     1       3.115   4.634  18.635  0.00  0.00    +0.000 C 
ATOM      2  O   UNL     1       2.459   4.625  17.588  0.00  0.00    +0.000 OA
ATOM      3  N   UNL     1       3.217   5.707  19.497  0.00  0.00    +0.000 N 
ATOM      4  H   UNL     1       3.948   5.662  20.200  0.00  0.00    +0.000 HD
ENDROOT
BRANCH   3   5
ATOM      5  C   UNL     1       2.615   6.926  19.263  0.00  0.00    +0.000 A 
ATOM      6  C   UNL     1       2.680   7.792  18.151  0.00  0.00    +0.000 A 
ATOM      7  N   UNL     1       1.982   8.916  18.348  0.00  0.00    +0.000 NA
ATOM      8  N   UNL     1       1.509   8.776  19.602  0.00  0.00    +0.000 N 
ATOM      9  C   UNL     1       1.800   7.564  20.162  0.00  0.00    +0.000 A 
BRANCH   8  10
ATOM     10  C   UNL     1       0.855   9.904  20.245  0.00  0.00    +0.000 C 
BRANCH  10  11
ATOM     11  C   UNL     1      -0.607  10.034  19.811  0.00  0.00    +0.000 C 
BRANCH  11  12
ATOM     12  N   UNL     1      -0.826  10.871  18.609  0.00  0.00    +0.000 NA
ATOM     13  C   UNL     1      -1.636  10.180  17.601  0.00  0.00    +0.000 C 
ATOM     14  C   UNL     1      -1.502  12.115  19.002  0.00  0.00    +0.000 C 
ENDBRANCH  11  12
ENDBRANCH  10  11
ENDBRANCH   8  10
ENDBRANCH   3   5
BRANCH   1  15
ATOM     15  C   UNL     1       3.890   3.394  19.085  0.00  0.00    +0.000 C 
ATOM     16  C   UNL     1       3.176   2.760  20.276  0.00  0.00    +0.000 C 
BRANCH  15  17
ATOM     17  O   UNL     1       5.213   3.813  19.433  0.00  0.00    +0.000 OA
BRANCH  17  22
ATOM     18  C   UNL     1       6.795   5.203  16.376  0.00  0.00    +0.000 A 
ATOM     19  C   UNL     1       7.558   6.212  16.971  0.00  0.00    +0.000 A 
ATOM     20  C   UNL     1       7.473   6.432  18.343  0.00  0.00    +0.000 A 
ATOM     21  C   UNL     1       6.654   5.620  19.127  0.00  0.00    +0.000 A 
ATOM     22  C   UNL     1       5.903   4.594  18.545  0.00  0.00    +0.000 A 
ATOM     23  C   UNL     1       5.942   4.417  17.164  0.00  0.00    +0.000 A 
BRANCH  18  25
ATOM     24  C   UNL     1       5.901   3.952  14.316  0.00  0.00    +0.000 C 
ATOM     25  C   UNL     1       6.908   4.890  14.923  0.00  0.00    +0.000 C 
ATOM     26  O   UNL     1       7.785   5.421  14.244  0.00  0.00    +0.000 OA
ENDBRANCH  18  25
ENDBRANCH  17  22
ENDBRANCH  15  17
ENDBRANCH   1  15
TORSDOF 8
ENDMDL
MODEL 6
REMARK VINA RESULT:      -6.8      4.068      7.213
REMARK  Name = 
REMARK  12 active torsions:
REMARK  status: ('A' for Active; 'I' for Inactive)
REMARK    1  A    between atoms: C_1  and  C_2
REMARK    2  A    between atoms: C_2  and  C_4
REMARK    3  A    between atoms: C_8  and  O_9
REMARK    4  A    between atoms: O_9  and  C_10
REMARK    5  A    between atoms: C_10  and  C_11
REMARK    6  A    between atoms: C_10  and  C_12
REMARK    7  A    between atoms: N_14  and  C_15
REMARK    8  A    between atoms: N_18  and  C_19
REMARK    9  A    between atoms: C_19  and  C_20
REMARK   10  A    between atoms: C_20  and  N_21
REMARK   11  A    between atoms: N_21  and  C_22
REMARK   12  A    between atoms: N_21  and  C_23
REMARK                            x       y       z     vdW  Elec       q    Type
REMARK                         _______ _______ _______ _____ _____    ______ ____
ROOT
ATOM      1  C   UNL     1       2.299   4.761  19.131  0.00  0.00    +0.000 C 
ATOM      2  O   UNL     1       1.269   4.516  19.769  0.00  0.00    +0.000 OA
ATOM      3  N   UNL     1       2.803   6.024  18.893  0.00  0.00    +0.000 N 
ATOM      4  H   UNL     1       3.525   6.103  18.184  0.00  0.00    +0.000 HD
ENDROOT
BRANCH   3   5
ATOM      5  C   UNL     1       2.180   7.179  19.318  0.00  0.00    +0.000 A 
ATOM      6  C   UNL     1       1.870   8.371  18.629  0.00  0.00    +0.000 A 
ATOM      7  N   UNL     1       1.306   9.282  19.429  0.00  0.00    +0.000 NA
ATOM      8  N   UNL     1       1.297   8.680  20.634  0.00  0.00    +0.000 N 
ATOM      9  C   UNL     1       1.743   7.388  20.600  0.00  0.00    +0.000 A 
BRANCH   8  10
ATOM     10  C   UNL     1       0.930   9.449  21.811  0.00  0.00    +0.000 C 
BRANCH  10  11
ATOM     11  C   UNL     1       0.431  10.848  21.442  0.00  0.00    +0.000 C 
BRANCH  11  12
ATOM     12  N   UNL     1      -0.158  11.614  22.565  0.00  0.00    +0.000 NA
ATOM     13  C   UNL     1      -0.632  12.933  22.138  0.00  0.00    +0.000 C 
ATOM     14  C   UNL     1      -1.282  10.855  23.130  0.00  0.00    +0.000 C 
ENDBRANCH  11  12
ENDBRANCH  10  11
ENDBRANCH   8  10
ENDBRANCH   3   5
BRANCH   1  15
ATOM     15  C   UNL     1       3.143   3.630  18.541  0.00  0.00    +0.000 C 
ATOM     16  C   UNL     1       2.496   2.289  18.880  0.00  0.00    +0.000 C 
BRANCH  15  17
ATOM     17  O   UNL     1       4.456   3.732  19.102  0.00  0.00    +0.000 OA
BRANCH  17  22
ATOM     18  C   UNL     1       6.699   5.087  16.473  0.00  0.00    +0.000 A 
ATOM     19  C   UNL     1       7.545   5.846  17.287  0.00  0.00    +0.000 A 
ATOM     20  C   UNL     1       7.307   5.929  18.655  0.00  0.00    +0.000 A 
ATOM     21  C   UNL     1       6.243   5.223  19.219  0.00  0.00    +0.000 A 
ATOM     22  C   UNL     1       5.403   4.444  18.417  0.00  0.00    +0.000 A 
ATOM     23  C   UNL     1       5.607   4.415  17.040  0.00  0.00    +0.000 A 
BRANCH  18  25
ATOM     24  C   UNL     1       6.098   3.954  14.245  0.00  0.00    +0.000 C 
ATOM     25  C   UNL     1       6.959   4.917  15.015  0.00  0.00    +0.000 C 
ATOM     26  O   UNL     1       7.835   5.581  14.464  0.00  0.00    +0.000 OA
ENDBRANCH  18  25
ENDBRANCH  17  22
ENDBRANCH  15  17
ENDBRANCH   1  15
TORSDOF 8
ENDMDL
MODEL 7
REMARK VINA RESULT:      -6.7      3.789      6.812
REMARK  Name = 
REMARK  12 active torsions:
REMARK  status: ('A' for Active; 'I' for Inactive)
REMARK    1  A    between atoms: C_1  and  C_2
REMARK    2  A    between atoms: C_2  and  C_4
REMARK    3  A    between atoms: C_8  and  O_9
REMARK    4  A    between atoms: O_9  and  C_10
REMARK    5  A    between atoms: C_10  and  C_11
REMARK    6  A    between atoms: C_10  and  C_12
REMARK    7  A    between atoms: N_14  and  C_15
REMARK    8  A    between atoms: N_18  and  C_19
REMARK    9  A    between atoms: C_19  and  C_20
REMARK   10  A    between atoms: C_20  and  N_21
REMARK   11  A    between atoms: N_21  and  C_22
REMARK   12  A    between atoms: N_21  and  C_23
REMARK                            x       y       z     vdW  Elec       q    Type
REMARK                         _______ _______ _______ _____ _____    ______ ____
ROOT
ATOM      1  C   UNL     1       2.278   4.308  18.104  0.00  0.00    +0.000 C 
ATOM      2  O   UNL     1       1.277   4.586  17.435  0.00  0.00    +0.000 OA
ATOM      3  N   UNL     1       2.820   5.107  19.089  0.00  0.00    +0.000 N 
ATOM      4  H   UNL     1       3.754   4.869  19.410  0.00  0.00    +0.000 HD
ENDROOT
BRANCH   3   5
ATOM      5  C   UNL     1       2.317   6.349  19.418  0.00  0.00    +0.000 A 
ATOM      6  C   UNL     1       2.309   7.565  18.701  0.00  0.00    +0.000 A 
ATOM      7  N   UNL     1       1.764   8.561  19.407  0.00  0.00    +0.000 NA
ATOM      8  N   UNL     1       1.465   7.984  20.587  0.00  0.00    +0.000 N 
ATOM      9  C   UNL     1       1.710   6.639  20.612  0.00  0.00    +0.000 A 
BRANCH   8  10
ATOM     10  C   UNL     1       1.029   8.815  21.696  0.00  0.00    +0.000 C 
BRANCH  10  11
ATOM     11  C   UNL     1       0.364  10.106  21.209  0.00  0.00    +0.000 C 
BRANCH  11  12
ATOM     12  N   UNL     1       0.098  11.105  22.270  0.00  0.00    +0.000 NA
ATOM     13  C   UNL     1      -0.192  12.430  21.713  0.00  0.00    +0.000 C 
ATOM     14  C   UNL     1      -1.044  10.660  23.078  0.00  0.00    +0.000 C 
ENDBRANCH  11  12
ENDBRANCH  10  11
ENDBRANCH   8  10
ENDBRANCH   3   5
BRANCH   1  15
ATOM     15  C   UNL     1       3.019   2.986  17.893  0.00  0.00    +0.000 C 
ATOM     16  C   UNL     1       2.280   1.872  18.630  0.00  0.00    +0.000 C 
BRANCH  15  17
ATOM     17  O   UNL     1       4.349   3.151  18.394  0.00  0.00    +0.000 OA
BRANCH  17  22
ATOM     18  C   UNL     1       6.846   5.735  17.462  0.00  0.00    +0.000 A 
ATOM     19  C   UNL     1       6.707   5.672  16.072  0.00  0.00    +0.000 A 
ATOM     20  C   UNL     1       5.846   4.742  15.498  0.00  0.00    +0.000 A 
ATOM     21  C   UNL     1       5.092   3.897  16.315  0.00  0.00    +0.000 A 
ATOM     22  C   UNL     1       5.207   3.966  17.707  0.00  0.00    +0.000 A 
ATOM     23  C   UNL     1       6.117   4.855  18.274  0.00  0.00    +0.000 A 
BRANCH  18  25
ATOM     24  C   UNL     1       7.758   8.137  17.513  0.00  0.00    +0.000 C 
ATOM     25  C   UNL     1       7.705   6.761  18.117  0.00  0.00    +0.000 C 
ATOM     26  O   UNL     1       8.320   6.484  19.145  0.00  0.00    +0.000 OA
ENDBRANCH  18  25
ENDBRANCH  17  22
ENDBRANCH  15  17
ENDBRANCH   1  15
TORSDOF 8
ENDMDL
MODEL 8
REMARK VINA RESULT:      -6.7      4.371      7.497
REMARK  Name = 
REMARK  12 active torsions:
REMARK  status: ('A' for Active; 'I' for Inactive)
REMARK    1  A    between atoms: C_1  and  C_2
REMARK    2  A    between atoms: C_2  and  C_4
REMARK    3  A    between atoms: C_8  and  O_9
REMARK    4  A    between atoms: O_9  and  C_10
REMARK    5  A    between atoms: C_10  and  C_11
REMARK    6  A    between atoms: C_10  and  C_12
REMARK    7  A    between atoms: N_14  and  C_15
REMARK    8  A    between atoms: N_18  and  C_19
REMARK    9  A    between atoms: C_19  and  C_20
REMARK   10  A    between atoms: C_20  and  N_21
REMARK   11  A    between atoms: N_21  and  C_22
REMARK   12  A    between atoms: N_21  and  C_23
REMARK                            x       y       z     vdW  Elec       q    Type
REMARK                         _______ _______ _______ _____ _____    ______ ____
ROOT
ATOM      1  C   UNL     1       2.491   4.636  17.877  0.00  0.00    +0.000 C 
ATOM      2  O   UNL     1       1.419   4.368  18.431  0.00  0.00    +0.000 OA
ATOM      3  N   UNL     1       3.111   5.869  17.904  0.00  0.00    +0.000 N 
ATOM      4  H   UNL     1       3.865   6.016  17.240  0.00  0.00    +0.000 HD
ENDROOT
BRANCH   3   5
ATOM      5  C   UNL     1       2.574   6.972  18.534  0.00  0.00    +0.000 A 
ATOM      6  C   UNL     1       2.100   7.148  19.851  0.00  0.00    +0.000 A 
ATOM      7  N   UNL     1       1.602   8.373  20.048  0.00  0.00    +0.000 NA
ATOM      8  N   UNL     1       1.725   8.959  18.841  0.00  0.00    +0.000 N 
ATOM      9  C   UNL     1       2.372   8.182  17.922  0.00  0.00    +0.000 A 
BRANCH   8  10
ATOM     10  C   UNL     1       1.102  10.252  18.612  0.00  0.00    +0.000 C 
BRANCH  10  11
ATOM     11  C   UNL     1      -0.389  10.233  18.956  0.00  0.00    +0.000 C 
BRANCH  11  12
ATOM     12  N   UNL     1      -1.285  10.665  17.858  0.00  0.00    +0.000 NA
ATOM     13  C   UNL     1      -2.505   9.853  17.796  0.00  0.00    +0.000 C 
ATOM     14  C   UNL     1      -1.651  12.073  18.059  0.00  0.00    +0.000 C 
ENDBRANCH  11  12
ENDBRANCH  10  11
ENDBRANCH   8  10
ENDBRANCH   3   5
BRANCH   1  15
ATOM     15  C   UNL     1       3.257   3.567  17.095  0.00  0.00    +0.000 C 
ATOM     16  C   UNL     1       2.866   2.186  17.614  0.00  0.00    +0.000 C 
BRANCH  15  17
ATOM     17  O   UNL     1       4.655   3.816  17.277  0.00  0.00    +0.000 OA
BRANCH  17  22
ATOM     18  C   UNL     1       6.108   4.021  13.868  0.00  0.00    +0.000 A 
ATOM     19  C   UNL     1       7.209   4.833  14.155  0.00  0.00    +0.000 A 
ATOM     20  C   UNL     1       7.393   5.329  15.442  0.00  0.00    +0.000 A 
ATOM     21  C   UNL     1       6.497   4.983  16.454  0.00  0.00    +0.000 A 
ATOM     22  C   UNL     1       5.404   4.154  16.183  0.00  0.00    +0.000 A 
ATOM     23  C   UNL     1       5.188   3.711  14.880  0.00  0.00    +0.000 A 
BRANCH  18  25
ATOM     24  C   UNL     1       4.519   3.368  11.956  0.00  0.00    +0.000 C 
ATOM     25  C   UNL     1       5.912   3.414  12.520  0.00  0.00    +0.000 C 
ATOM     26  O   UNL     1       6.880   3.000  11.884  0.00  0.00    +0.000 OA
ENDBRANCH  18  25
ENDBRANCH  17  22
ENDBRANCH  15  17
ENDBRANCH   1  15
TORSDOF 8
ENDMDL
MODEL 9
REMARK VINA RESULT:      -6.6      4.278      7.308
REMARK  Name = 
REMARK  12 active torsions:
REMARK  status: ('A' for Active; 'I' for Inactive)
REMARK    1  A    between atoms: C_1  and  C_2
REMARK    2  A    between atoms: C_2  and  C_4
REMARK    3  A    between atoms: C_8  and  O_9
REMARK    4  A    between atoms: O_9  and  C_10
REMARK    5  A    between atoms: C_10  and  C_11
REMARK    6  A    between atoms: C_10  and  C_12
REMARK    7  A    between atoms: N_14  and  C_15
REMARK    8  A    between atoms: N_18  and  C_19
REMARK    9  A    between atoms: C_19  and  C_20
REMARK   10  A    between atoms: C_20  and  N_21
REMARK   11  A    between atoms: N_21  and  C_22
REMARK   12  A    between atoms: N_21  and  C_23
REMARK                            x       y       z     vdW  Elec       q    Type
REMARK                         _______ _______ _______ _____ _____    ______ ____
ROOT
ATOM      1  C   UNL     1       2.469   4.896  19.710  0.00  0.00    +0.000 C 
ATOM      2  O   UNL     1       2.190   4.724  20.902  0.00  0.00    +0.000 OA
ATOM      3  N   UNL     1       2.403   6.104  19.046  0.00  0.00    +0.000 N 
ATOM      4  H   UNL     1       2.447   6.073  18.032  0.00  0.00    +0.000 HD
ENDROOT
BRANCH   3   5
ATOM      5  C   UNL     1       1.974   7.272  19.642  0.00  0.00    +0.000 A 
ATOM      6  C   UNL     1       1.597   7.549  20.974  0.00  0.00    +0.000 A 
ATOM      7  N   UNL     1       1.187   8.812  21.128  0.00  0.00    +0.000 NA
ATOM      8  N   UNL     1       1.267   9.323  19.884  0.00  0.00    +0.000 N 
ATOM      9  C   UNL     1       1.806   8.457  18.974  0.00  0.00    +0.000 A 
BRANCH   8  10
ATOM     10  C   UNL     1       0.710  10.639  19.618  0.00  0.00    +0.000 C 
BRANCH  10  11
ATOM     11  C   UNL     1      -0.277  10.611  18.448  0.00  0.00    +0.000 C 
BRANCH  11  12
ATOM     12  N   UNL     1      -1.345  11.635  18.512  0.00  0.00    +0.000 NA
ATOM     13  C   UNL     1      -0.802  12.995  18.447  0.00  0.00    +0.000 C 
ATOM     14  C   UNL     1      -2.276  11.432  17.394  0.00  0.00    +0.000 C 
ENDBRANCH  11  12
ENDBRANCH  10  11
ENDBRANCH   8  10
ENDBRANCH   3   5
BRANCH   1  15
ATOM     15  C   UNL     1       2.945   3.730  18.841  0.00  0.00    +0.000 C 
ATOM     16  C   UNL     1       2.109   2.492  19.158  0.00  0.00    +0.000 C 
BRANCH  15  17
ATOM     17  O   UNL     1       4.330   3.513  19.130  0.00  0.00    +0.000 OA
BRANCH  17  22
ATOM     18  C   UNL     1       6.586   4.998  16.584  0.00  0.00    +0.000 A 
ATOM     19  C   UNL     1       7.356   5.804  17.427  0.00  0.00    +0.000 A 
ATOM     20  C   UNL     1       7.063   5.872  18.786  0.00  0.00    +0.000 A 
ATOM     21  C   UNL     1       6.021   5.106  19.311  0.00  0.00    +0.000 A 
ATOM     22  C   UNL     1       5.258   4.279  18.480  0.00  0.00    +0.000 A 
ATOM     23  C   UNL     1       5.515   4.262  17.111  0.00  0.00    +0.000 A 
BRANCH  18  25
ATOM     24  C   UNL     1       6.090   3.881  14.322  0.00  0.00    +0.000 C 
ATOM     25  C   UNL     1       6.910   4.844  15.137  0.00  0.00    +0.000 C 
ATOM     26  O   UNL     1       7.803   5.520  14.630  0.00  0.00    +0.000 OA
ENDBRANCH  18  25
ENDBRANCH  17  22
ENDBRANCH  15  17
ENDBRANCH   1  15
TORSDOF 8
ENDMDL
