MODEL 1
REMARK VINA RESULT:      -7.7      0.000      0.000
REMARK  Name = 
REMARK  7 active torsions:
REMARK  status: ('A' for Active; 'I' for Inactive)
REMARK    1  A    between atoms: C_1  and  C_2
REMARK    2  A    between atoms: N_4  and  C_5
REMARK    3  A    between atoms: C_8  and  O_9
REMARK    4  A    between atoms: O_9  and  C_10
REMARK    5  A    between atoms: C_10  and  C_12
REMARK    6  A    between atoms: C_16  and  C_17
REMARK    7  A    between atoms: C_17  and  N_18
REMARK                            x       y       z     vdW  Elec       q    Type
REMARK                         _______ _______ _______ _____ _____    ______ ____
ROOT
ATOM      1  C   UNL     1       1.726   9.484  18.596  0.00  0.00    +0.000 C 
ATOM      2  O   UNL     1       2.215  10.063  17.631  0.00  0.00    +0.000 OA
ENDROOT
BRANCH   1   3
ATOM      3  C   UNL     1       2.130   8.083  18.937  0.00  0.00    +0.000 A 
ATOM      4  C   UNL     1       1.755   7.420  20.109  0.00  0.00    +0.000 A 
ATOM      5  C   UNL     1       2.165   6.095  20.322  0.00  0.00    +0.000 A 
ATOM      6  C   UNL     1       2.966   5.433  19.380  0.00  0.00    +0.000 A 
ATOM      7  C   UNL     1       3.364   6.079  18.204  0.00  0.00    +0.000 A 
ATOM      8  C   UNL     1       2.917   7.395  17.990  0.00  0.00    +0.000 A 
BRANCH   7   9
ATOM      9  C   UNL     1       4.190   5.361  17.156  0.00  0.00    +0.000 C 
BRANCH   9  10
ATOM     10  N   UNL     1       5.459   5.945  16.720  0.00  0.00    +0.000 NA
ATOM     11  C   UNL     1       5.894   5.646  15.352  0.00  0.00    +0.000 C 
ATOM     12  C   UNL     1       6.779   4.395  15.231  0.00  0.00    +0.000 C 
ATOM     13  O   UNL     1       7.902   4.456  16.118  0.00  0.00    +0.000 OA
ATOM     14  C   UNL     1       7.479   4.623  17.477  0.00  0.00    +0.000 C 
ATOM     15  C   UNL     1       6.586   5.861  17.653  0.00  0.00    +0.000 C 
ENDBRANCH   9  10
ENDBRANCH   7   9
ENDBRANCH   1   3
BRANCH   1  16
ATOM     16  O   UNL     1       0.792  10.017  19.480  0.00  0.00    +0.000 OA
BRANCH  16  20
ATOM     17  C   UNL     1      -2.875  11.627  18.054  0.00  0.00    +0.000 A 
ATOM     18  C   UNL     1      -2.093  12.296  19.001  0.00  0.00    +0.000 A 
ATOM     19  C   UNL     1      -0.890  11.736  19.473  0.00  0.00    +0.000 A 
ATOM     20  C   UNL     1      -0.459  10.498  18.999  0.00  0.00    +0.000 A 
ATOM     21  C   UNL     1      -1.221   9.832  18.039  0.00  0.00    +0.000 A 
ATOM     22  C   UNL     1      -2.432  10.382  17.590  0.00  0.00    +0.000 A 
BRANCH  17  26
ATOM     23  C   UNL     1      -6.449  12.470  17.129  0.00  0.00    +0.000 C 
ATOM     24  C   UNL     1      -5.372  11.780  17.928  0.00  0.00    +0.000 C 
ATOM     25  O   UNL     1      -5.671  10.999  18.827  0.00  0.00    +0.000 OA
ATOM     26  N   UNL     1      -4.092  12.127  17.532  0.00  0.00    +0.000 N 
ATOM     27  H   UNL     1      -4.015  12.873  16.851  0.00  0.00    +0.000 HD
ENDBRANCH  17  26
ENDBRANCH  16  20
ENDBRANCH   1  16
TORSDOF 6
ENDMDL
MODEL 2
REMARK VINA RESULT:      -7.6      0.878      1.721
REMARK  Name = 
REMARK  7 active torsions:
REMARK  status: ('A' for Active; 'I' for Inactive)
REMARK    1  A    between atoms: C_1  and  C_2
REMARK    2  A    between atoms: N_4  and  C_5
REMARK    3  A    between atoms: C_8  and  O_9
REMARK    4  A    between atoms: O_9  and  C_10
REMARK    5  A    between atoms: C_10  and  C_12
REMARK    6  A    between atoms: C_16  and  C_17
REMARK    7  A    between atoms: C_17  and  N_18
REMARK                            x       y       z     vdW  Elec       q    Type
REMARK                         _______ _______ _______ _____ _____    ______ ____
ROOT
ATOM      1  C   UNL     1       1.385   8.986  19.841  0.00  0.00    +0.000 C 
ATOM      2  O   UNL     1       1.121   9.485  20.931  0.00  0.00    +0.000 OA
ENDROOT
BRANCH   1   3
ATOM      3  C   UNL     1       1.913   7.588  19.744  0.00  0.00    +0.000 A 
ATOM      4  C   UNL     1       1.600   6.566  20.644  0.00  0.00    +0.000 A 
ATOM      5  C   UNL     1       2.127   5.281  20.449  0.00  0.00    +0.000 A 
ATOM      6  C   UNL     1       2.981   5.012  19.370  0.00  0.00    +0.000 A 
ATOM      7  C   UNL     1       3.318   6.022  18.460  0.00  0.00    +0.000 A 
ATOM      8  C   UNL     1       2.756   7.297  18.651  0.00  0.00    +0.000 A 
BRANCH   7   9
ATOM      9  C   UNL     1       4.201   5.735  17.264  0.00  0.00    +0.000 C 
BRANCH   9  10
ATOM     10  N   UNL     1       5.060   4.550  17.275  0.00  0.00    +0.000 NA
ATOM     11  C   UNL     1       6.216   4.574  18.177  0.00  0.00    +0.000 C 
ATOM     12  C   UNL     1       7.502   5.124  17.541  0.00  0.00    +0.000 C 
ATOM     13  O   UNL     1       7.823   4.439  16.324  0.00  0.00    +0.000 OA
ATOM     14  C   UNL     1       6.744   4.519  15.386  0.00  0.00    +0.000 C 
ATOM     15  C   UNL     1       5.430   3.982  15.975  0.00  0.00    +0.000 C 
ENDBRANCH   9  10
ENDBRANCH   7   9
ENDBRANCH   1   3
BRANCH   1  16
ATOM     16  O   UNL     1       1.225   9.601  18.602  0.00  0.00    +0.000 OA
BRANCH  16  20
ATOM     17  C   UNL     1      -2.493  11.444  17.678  0.00  0.00    +0.000 A 
ATOM     18  C   UNL     1      -2.211  10.124  17.313  0.00  0.00    +0.000 A 
ATOM     19  C   UNL     1      -0.966   9.538  17.613  0.00  0.00    +0.000 A 
ATOM     20  C   UNL     1       0.010  10.272  18.285  0.00  0.00    +0.000 A 
ATOM     21  C   UNL     1      -0.267  11.583  18.673  0.00  0.00    +0.000 A 
ATOM     22  C   UNL     1      -1.500  12.171  18.349  0.00  0.00    +0.000 A 
BRANCH  17  26
ATOM     23  C   UNL     1      -6.085  12.554  17.226  0.00  0.00    +0.000 C 
ATOM     24  C   UNL     1      -4.991  11.619  17.678  0.00  0.00    +0.000 C 
ATOM     25  O   UNL     1      -5.271  10.554  18.221  0.00  0.00    +0.000 OA
ATOM     26  N   UNL     1      -3.720  12.098  17.414  0.00  0.00    +0.000 N 
ATOM     27  H   UNL     1      -3.656  13.046  17.064  0.00  0.00    +0.000 HD
ENDBRANCH  17  26
ENDBRANCH  16  20
ENDBRANCH   1  16
TORSDOF 6
ENDMDL
MODEL 3
REMARK VINA RESULT:      -7.5      3.065      4.223
REMARK  Name = 
REMARK  7 active torsions:
REMARK  status: ('A' for Active; 'I' for Inactive)
REMARK    1  A    between atoms: C_1  and  C_2
REMARK    2  A    between atoms: N_4  and  C_5
REMARK    3  A    between atoms: C_8  and  O_9
REMARK    4  A    between atoms: O_9  and  C_10
REMARK    5  A    between atoms: C_10  and  C_12
REMARK    6  A    between atoms: C_16  and  C_17
REMARK    7  A    between atoms: C_17  and  N_18
REMARK                            x       y       z     vdW  Elec       q    Type
REMARK                         _______ _______ _______ _____ _____    ______ ____
ROOT
ATOM      1  C   UNL     1       1.846   5.179  20.214  0.00  0.00    +0.000 C 
ATOM      2  O   UNL     1       0.836   4.687  20.708  0.00  0.00    +0.000 OA
ENDROOT
BRANCH   1   3
ATOM      3  C   UNL     1       2.603   4.462  19.140  0.00  0.00    +0.000 A 
ATOM      4  C   UNL     1       2.013   3.631  18.184  0.00  0.00    +0.000 A 
ATOM      5  C   UNL     1       2.809   3.025  17.200  0.00  0.00    +0.000 A 
ATOM      6  C   UNL     1       4.196   3.228  17.177  0.00  0.00    +0.000 A 
ATOM      7  C   UNL     1       4.813   4.048  18.130  0.00  0.00    +0.000 A 
ATOM      8  C   UNL     1       3.997   4.674  19.088  0.00  0.00    +0.000 A 
BRANCH   7   9
ATOM      9  C   UNL     1       6.304   4.314  18.088  0.00  0.00    +0.000 C 
BRANCH   9  10
ATOM     10  N   UNL     1       6.823   5.335  17.177  0.00  0.00    +0.000 NA
ATOM     11  C   UNL     1       6.211   6.665  17.249  0.00  0.00    +0.000 C 
ATOM     12  C   UNL     1       5.018   6.863  16.301  0.00  0.00    +0.000 C 
ATOM     13  O   UNL     1       5.359   6.535  14.948  0.00  0.00    +0.000 OA
ATOM     14  C   UNL     1       5.841   5.190  14.849  0.00  0.00    +0.000 C 
ATOM     15  C   UNL     1       7.036   4.937  15.782  0.00  0.00    +0.000 C 
ENDBRANCH   9  10
ENDBRANCH   7   9
ENDBRANCH   1   3
BRANCH   1  16
ATOM     16  O   UNL     1       2.397   6.414  20.545  0.00  0.00    +0.000 OA
BRANCH  16  20
ATOM     17  C   UNL     1       0.770  10.071  19.112  0.00  0.00    +0.000 A 
ATOM     18  C   UNL     1       0.507   9.600  20.402  0.00  0.00    +0.000 A 
ATOM     19  C   UNL     1       1.042   8.377  20.851  0.00  0.00    +0.000 A 
ATOM     20  C   UNL     1       1.848   7.613  20.008  0.00  0.00    +0.000 A 
ATOM     21  C   UNL     1       2.134   8.082  18.726  0.00  0.00    +0.000 A 
ATOM     22  C   UNL     1       1.577   9.290  18.275  0.00  0.00    +0.000 A 
BRANCH  17  26
ATOM     23  C   UNL     1      -0.081  13.648  18.206  0.00  0.00    +0.000 C 
ATOM     24  C   UNL     1       0.701  12.566  18.908  0.00  0.00    +0.000 C 
ATOM     25  O   UNL     1       1.618  12.859  19.670  0.00  0.00    +0.000 OA
ATOM     26  N   UNL     1       0.270  11.289  18.593  0.00  0.00    +0.000 N 
ATOM     27  H   UNL     1      -0.423  11.213  17.858  0.00  0.00    +0.000 HD
ENDBRANCH  17  26
ENDBRANCH  16  20
ENDBRANCH   1  16
TORSDOF 6
ENDMDL
MODEL 4
REMARK VINA RESULT:      -7.4      2.528      4.119
REMARK  Name = 
REMARK  7 active torsions:
REMARK  status: ('A' for Active; 'I' for Inactive)
REMARK    1  A    between atoms: C_1  and  C_2
REMARK    2  A    between atoms: N_4  and  C_5
REMARK    3  A    between atoms: C_8  and  O_9
REMARK    4  A    between atoms: O_9  and  C_10
REMARK    5  A    between atoms: C_10  and  C_12
REMARK    6  A    between atoms: C_16  and  C_17
REMARK    7  A    between atoms: C_17  and  N_18
REMARK                            x       y       z     vdW  Elec       q    Type
REMARK                         _______ _______ _______ _____ _____    ______ ____
ROOT
ATOM      1  C   UNL     1       1.729   5.049  20.175  0.00  0.00    +0.000 C 
ATOM      2  O   UNL     1       0.607   4.928  20.658  0.00  0.00    +0.000 OA
ENDROOT
BRANCH   1   3
ATOM      3  C   UNL     1       2.326   3.961  19.339  0.00  0.00    +0.000 A 
ATOM      4  C   UNL     1       2.200   2.597  19.617  0.00  0.00    +0.000 A 
ATOM      5  C   UNL     1       2.777   1.653  18.753  0.00  0.00    +0.000 A 
ATOM      6  C   UNL     1       3.497   2.063  17.622  0.00  0.00    +0.000 A 
ATOM      7  C   UNL     1       3.647   3.424  17.328  0.00  0.00    +0.000 A 
ATOM      8  C   UNL     1       3.035   4.356  18.185  0.00  0.00    +0.000 A 
BRANCH   7   9
ATOM      9  C   UNL     1       4.382   3.880  16.084  0.00  0.00    +0.000 C 
BRANCH   9  10
ATOM     10  N   UNL     1       5.835   3.722  16.012  0.00  0.00    +0.000 NA
ATOM     11  C   UNL     1       6.636   4.485  16.973  0.00  0.00    +0.000 C 
ATOM     12  C   UNL     1       7.069   5.872  16.474  0.00  0.00    +0.000 C 
ATOM     13  O   UNL     1       7.737   5.792  15.208  0.00  0.00    +0.000 OA
ATOM     14  C   UNL     1       6.909   5.158  14.226  0.00  0.00    +0.000 C 
ATOM     15  C   UNL     1       6.445   3.765  14.679  0.00  0.00    +0.000 C 
ENDBRANCH   9  10
ENDBRANCH   7   9
ENDBRANCH   1   3
BRANCH   1  16
ATOM     16  O   UNL     1       2.558   6.159  20.307  0.00  0.00    +0.000 OA
BRANCH  16  20
ATOM     17  C   UNL     1       1.161   9.938  18.951  0.00  0.00    +0.000 A 
ATOM     18  C   UNL     1       1.847   9.058  18.108  0.00  0.00    +0.000 A 
ATOM     19  C   UNL     1       2.317   7.818  18.583  0.00  0.00    +0.000 A 
ATOM     20  C   UNL     1       2.103   7.448  19.910  0.00  0.00    +0.000 A 
ATOM     21  C   UNL     1       1.401   8.309  20.754  0.00  0.00    +0.000 A 
ATOM     22  C   UNL     1       0.957   9.555  20.283  0.00  0.00    +0.000 A 
BRANCH  17  26
ATOM     23  C   UNL     1      -0.853  13.022  18.074  0.00  0.00    +0.000 C 
ATOM     24  C   UNL     1      -0.649  11.642  18.645  0.00  0.00    +0.000 C 
ATOM     25  O   UNL     1      -1.593  11.028  19.135  0.00  0.00    +0.000 OA
ATOM     26  N   UNL     1       0.658  11.197  18.546  0.00  0.00    +0.000 N 
ATOM     27  H   UNL     1       1.341  11.870  18.219  0.00  0.00    +0.000 HD
ENDBRANCH  17  26
ENDBRANCH  16  20
ENDBRANCH   1  16
TORSDOF 6
ENDMDL
MODEL 5
REMARK VINA RESULT:      -7.4      0.911      1.197
REMARK  Name = 
REMARK  7 active torsions:
REMARK  status: ('A' for Active; 'I' for Inactive)
REMARK    1  A    between atoms: C_1  and  C_2
REMARK    2  A    between atoms: N_4  and  C_5
REMARK    3  A    between atoms: C_8  and  O_9
REMARK    4  A    between atoms: O_9  and  C_10
REMARK    5  A    between atoms: C_10  and  C_12
REMARK    6  A    between atoms: C_16  and  C_17
REMARK    7  A    between atoms: C_17  and  N_18
REMARK                            x       y       z     vdW  Elec       q    Type
REMARK                         _______ _______ _______ _____ _____    ______ ____
ROOT
ATOM      1  C   UNL     1       1.904   9.350  18.238  0.00  0.00    +0.000 C 
ATOM      2  O   UNL     1       2.274  10.217  17.454  0.00  0.00    +0.000 OA
ENDROOT
BRANCH   1   3
ATOM      3  C   UNL     1       2.594   8.022  18.298  0.00  0.00    +0.000 A 
ATOM      4  C   UNL     1       2.392   7.076  19.307  0.00  0.00    +0.000 A 
ATOM      5  C   UNL     1       3.069   5.849  19.257  0.00  0.00    +0.000 A 
ATOM      6  C   UNL     1       3.965   5.567  18.215  0.00  0.00    +0.000 A 
ATOM      7  C   UNL     1       4.193   6.502  17.199  0.00  0.00    +0.000 A 
ATOM      8  C   UNL     1       3.482   7.714  17.246  0.00  0.00    +0.000 A 
BRANCH   7   9
ATOM      9  C   UNL     1       5.122   6.192  16.043  0.00  0.00    +0.000 C 
BRANCH   9  10
ATOM     10  N   UNL     1       6.569   6.238  16.255  0.00  0.00    +0.000 NA
ATOM     11  C   UNL     1       7.290   4.963  16.203  0.00  0.00    +0.000 C 
ATOM     12  C   UNL     1       7.422   4.256  17.562  0.00  0.00    +0.000 C 
ATOM     13  O   UNL     1       7.991   5.120  18.553  0.00  0.00    +0.000 OA
ATOM     14  C   UNL     1       7.219   6.318  18.700  0.00  0.00    +0.000 C 
ATOM     15  C   UNL     1       7.054   7.063  17.365  0.00  0.00    +0.000 C 
ENDBRANCH   9  10
ENDBRANCH   7   9
ENDBRANCH   1   3
BRANCH   1  16
ATOM     16  O   UNL     1       0.860   9.468  19.152  0.00  0.00    +0.000 OA
BRANCH  16  20
ATOM     17  C   UNL     1      -2.711  11.505  18.069  0.00  0.00    +0.000 A 
ATOM     18  C   UNL     1      -1.938  11.900  19.165  0.00  0.00    +0.000 A 
ATOM     19  C   UNL     1      -0.768  11.200  19.517  0.00  0.00    +0.000 A 
ATOM     20  C   UNL     1      -0.360  10.096  18.772  0.00  0.00    +0.000 A 
ATOM     21  C   UNL     1      -1.112   9.704  17.663  0.00  0.00    +0.000 A 
ATOM     22  C   UNL     1      -2.291  10.390  17.331  0.00  0.00    +0.000 A 
BRANCH  17  26
ATOM     23  C   UNL     1      -6.220  12.622  17.187  0.00  0.00    +0.000 C 
ATOM     24  C   UNL     1      -5.192  11.691  17.778  0.00  0.00    +0.000 C 
ATOM     25  O   UNL     1      -5.539  10.637  18.304  0.00  0.00    +0.000 OA
ATOM     26  N   UNL     1      -3.895  12.159  17.653  0.00  0.00    +0.000 N 
ATOM     27  H   UNL     1      -3.786  13.101  17.297  0.00  0.00    +0.000 HD
ENDBRANCH  17  26
ENDBRANCH  16  20
ENDBRANCH   1  16
TORSDOF 6
ENDMDL
MODEL 6
REMARK VINA RESULT:      -7.3      3.052      3.936
REMARK  Name = 
REMARK  7 active torsions:
REMARK  status: ('A' for Active; 'I' for Inactive)
REMARK    1  A    between atoms: C_1  and  C_2
REMARK    2  A    between atoms: N_4  and  C_5
REMARK    3  A    between atoms: C_8  and  O_9
REMARK    4  A    between atoms: O_9  and  C_10
REMARK    5  A    between atoms: C_10  and  C_12
REMARK    6  A    between atoms: C_16  and  C_17
REMARK    7  A    between atoms: C_17  and  N_18
REMARK                            x       y       z     vdW  Elec       q    Type
REMARK                         _______ _______ _______ _____ _____    ______ ____
ROOT
ATOM      1  C   UNL     1       0.564   9.448  21.604  0.00  0.00    +0.000 C 
ATOM      2  O   UNL     1       0.167   8.588  22.384  0.00  0.00    +0.000 OA
ENDROOT
BRANCH   1   3
ATOM      3  C   UNL     1       1.153   9.071  20.280  0.00  0.00    +0.000 A 
ATOM      4  C   UNL     1       1.139   9.894  19.150  0.00  0.00    +0.000 A 
ATOM      5  C   UNL     1       1.743   9.457  17.962  0.00  0.00    +0.000 A 
ATOM      6  C   UNL     1       2.346   8.193  17.888  0.00  0.00    +0.000 A 
ATOM      7  C   UNL     1       2.364   7.345  19.002  0.00  0.00    +0.000 A 
ATOM      8  C   UNL     1       1.783   7.811  20.195  0.00  0.00    +0.000 A 
BRANCH   7   9
ATOM      9  C   UNL     1       3.053   5.997  18.950  0.00  0.00    +0.000 C 
BRANCH   9  10
ATOM     10  N   UNL     1       2.819   5.117  17.803  0.00  0.00    +0.000 NA
ATOM     11  C   UNL     1       1.514   4.456  17.727  0.00  0.00    +0.000 C 
ATOM     12  C   UNL     1       1.463   3.077  18.405  0.00  0.00    +0.000 C 
ATOM     13  O   UNL     1       2.499   2.213  17.921  0.00  0.00    +0.000 OA
ATOM     14  C   UNL     1       3.792   2.801  18.108  0.00  0.00    +0.000 C 
ATOM     15  C   UNL     1       3.895   4.186  17.449  0.00  0.00    +0.000 C 
ENDBRANCH   9  10
ENDBRANCH   7   9
ENDBRANCH   1   3
BRANCH   1  16
ATOM     16  O   UNL     1       0.512  10.823  21.811  0.00  0.00    +0.000 OA
BRANCH  16  20
ATOM     17  C   UNL     1      -3.194  12.892  22.058  0.00  0.00    +0.000 A 
ATOM     18  C   UNL     1      -2.649  12.217  23.156  0.00  0.00    +0.000 A 
ATOM     19  C   UNL     1      -1.428  11.523  23.047  0.00  0.00    +0.000 A 
ATOM     20  C   UNL     1      -0.741  11.500  21.835  0.00  0.00    +0.000 A 
ATOM     21  C   UNL     1      -1.263  12.187  20.739  0.00  0.00    +0.000 A 
ATOM     22  C   UNL     1      -2.493  12.856  20.846  0.00  0.00    +0.000 A 
BRANCH  17  26
ATOM     23  C   UNL     1      -6.764  14.151  21.984  0.00  0.00    +0.000 C 
ATOM     24  C   UNL     1      -5.687  13.096  21.940  0.00  0.00    +0.000 C 
ATOM     25  O   UNL     1      -5.982  11.915  21.781  0.00  0.00    +0.000 OA
ATOM     26  N   UNL     1      -4.412  13.612  22.093  0.00  0.00    +0.000 N 
ATOM     27  H   UNL     1      -4.346  14.594  22.329  0.00  0.00    +0.000 HD
ENDBRANCH  17  26
ENDBRANCH  16  20
ENDBRANCH   1  16
TORSDOF 6
ENDMDL
MODEL 7
REMARK VINA RESULT:      -7.2      1.057      1.412
REMARK  Name = 
REMARK  7 active torsions:
REMARK  status: ('A' for Active; 'I' for Inactive)
REMARK    1  A    between atoms: C_1  and  C_2
REMARK    2  A    between atoms: N_4  and  C_5
REMARK    3  A    between atoms: C_8  and  O_9
REMARK    4  A    between atoms: O_9  and  C_10
REMARK    5  A    between atoms: C_10  and  C_12
REMARK    6  A    between atoms: C_16  and  C_17
REMARK    7  A    between atoms: C_17  and  N_18
REMARK                            x       y       z     vdW  Elec       q    Type
REMARK                         _______ _______ _______ _____ _____    ______ ____
ROOT
ATOM      1  C   UNL     1       1.974   9.221  18.317  0.00  0.00    +0.000 C 
ATOM      2  O   UNL     1       2.320   9.553  17.188  0.00  0.00    +0.000 OA
ENDROOT
BRANCH   1   3
ATOM      3  C   UNL     1       2.239   7.837  18.825  0.00  0.00    +0.000 A 
ATOM      4  C   UNL     1       1.846   7.374  20.084  0.00  0.00    +0.000 A 
ATOM      5  C   UNL     1       2.119   6.049  20.455  0.00  0.00    +0.000 A 
ATOM      6  C   UNL     1       2.800   5.187  19.584  0.00  0.00    +0.000 A 
ATOM      7  C   UNL     1       3.214   5.630  18.322  0.00  0.00    +0.000 A 
ATOM      8  C   UNL     1       2.904   6.950  17.952  0.00  0.00    +0.000 A 
BRANCH   7   9
ATOM      9  C   UNL     1       3.909   4.696  17.352  0.00  0.00    +0.000 C 
BRANCH   9  10
ATOM     10  N   UNL     1       5.347   4.460  17.491  0.00  0.00    +0.000 NA
ATOM     11  C   UNL     1       6.120   5.471  18.218  0.00  0.00    +0.000 C 
ATOM     12  C   UNL     1       6.699   6.583  17.329  0.00  0.00    +0.000 C 
ATOM     13  O   UNL     1       7.462   6.046  16.241  0.00  0.00    +0.000 OA
ATOM     14  C   UNL     1       6.673   5.150  15.449  0.00  0.00    +0.000 C 
ATOM     15  C   UNL     1       6.068   4.018  16.294  0.00  0.00    +0.000 C 
ENDBRANCH   9  10
ENDBRANCH   7   9
ENDBRANCH   1   3
BRANCH   1  16
ATOM     16  O   UNL     1       1.339  10.036  19.249  0.00  0.00    +0.000 OA
BRANCH  16  20
ATOM     17  C   UNL     1      -2.534  11.579  18.419  0.00  0.00    +0.000 A 
ATOM     18  C   UNL     1      -1.413  12.410  18.520  0.00  0.00    +0.000 A 
ATOM     19  C   UNL     1      -0.142  11.880  18.813  0.00  0.00    +0.000 A 
ATOM     20  C   UNL     1       0.018  10.509  19.009  0.00  0.00    +0.000 A 
ATOM     21  C   UNL     1      -1.089   9.668  18.890  0.00  0.00    +0.000 A 
ATOM     22  C   UNL     1      -2.359  10.204  18.623  0.00  0.00    +0.000 A 
BRANCH  17  26
ATOM     23  C   UNL     1      -5.926  12.449  16.977  0.00  0.00    +0.000 C 
ATOM     24  C   UNL     1      -4.585  11.758  16.993  0.00  0.00    +0.000 C 
ATOM     25  O   UNL     1      -4.250  11.033  16.061  0.00  0.00    +0.000 OA
ATOM     26  N   UNL     1      -3.840  12.038  18.126  0.00  0.00    +0.000 N 
ATOM     27  H   UNL     1      -4.306  12.564  18.856  0.00  0.00    +0.000 HD
ENDBRANCH  17  26
ENDBRANCH  16  20
ENDBRANCH   1  16
TORSDOF 6
ENDMDL
MODEL 8
REMARK VINA RESULT:      -7.2      2.942      4.288
REMARK  Name = 
REMARK  7 active torsions:
REMARK  status: ('A' for Active; 'I' for Inactive)
REMARK    1  A    between atoms: C_1  and  C_2
REMARK    2  A    between atoms: N_4  and  C_5
REMARK    3  A    between atoms: C_8  and  O_9
REMARK    4  A    between atoms: O_9  and  C_10
REMARK    5  A    between atoms: C_10  and  C_12
REMARK    6  A    between atoms: C_16  and  C_17
REMARK    7  A    between atoms: C_17  and  N_18
REMARK                            x       y       z     vdW  Elec       q    Type
REMARK                         _______ _______ _______ _____ _____    ______ ____
ROOT
ATOM      1  C   UNL     1       2.062   5.135  20.003  0.00  0.00    +0.000 C 
ATOM      2  O   UNL     1       0.978   4.924  20.537  0.00  0.00    +0.000 OA
ENDROOT
BRANCH   1   3
ATOM      3  C   UNL     1       2.738   4.074  19.191  0.00  0.00    +0.000 A 
ATOM      4  C   UNL     1       2.790   2.724  19.551  0.00  0.00    +0.000 A 
ATOM      5  C   UNL     1       3.427   1.802  18.706  0.00  0.00    +0.000 A 
ATOM      6  C   UNL     1       4.031   2.223  17.513  0.00  0.00    +0.000 A 
ATOM      7  C   UNL     1       4.002   3.571  17.136  0.00  0.00    +0.000 A 
ATOM      8  C   UNL     1       3.331   4.477  17.976  0.00  0.00    +0.000 A 
BRANCH   7   9
ATOM      9  C   UNL     1       4.609   4.031  15.827  0.00  0.00    +0.000 C 
BRANCH   9  10
ATOM     10  N   UNL     1       5.832   4.835  15.848  0.00  0.00    +0.000 NA
ATOM     11  C   UNL     1       6.928   4.357  16.697  0.00  0.00    +0.000 C 
ATOM     12  C   UNL     1       6.904   4.911  18.130  0.00  0.00    +0.000 C 
ATOM     13  O   UNL     1       6.841   6.343  18.141  0.00  0.00    +0.000 OA
ATOM     14  C   UNL     1       5.699   6.816  17.417  0.00  0.00    +0.000 C 
ATOM     15  C   UNL     1       5.673   6.287  15.974  0.00  0.00    +0.000 C 
ENDBRANCH   9  10
ENDBRANCH   7   9
ENDBRANCH   1   3
BRANCH   1  16
ATOM     16  O   UNL     1       2.776   6.329  20.050  0.00  0.00    +0.000 OA
BRANCH  16  20
ATOM     17  C   UNL     1       0.863   9.928  18.840  0.00  0.00    +0.000 A 
ATOM     18  C   UNL     1       1.638   9.170  17.957  0.00  0.00    +0.000 A 
ATOM     19  C   UNL     1       2.278   7.990  18.383  0.00  0.00    +0.000 A 
ATOM     20  C   UNL     1       2.146   7.558  19.701  0.00  0.00    +0.000 A 
ATOM     21  C   UNL     1       1.358   8.294  20.587  0.00  0.00    +0.000 A 
ATOM     22  C   UNL     1       0.743   9.484  20.163  0.00  0.00    +0.000 A 
BRANCH  17  26
ATOM     23  C   UNL     1      -0.383  13.458  18.270  0.00  0.00    +0.000 C 
ATOM     24  C   UNL     1       0.596  12.417  18.751  0.00  0.00    +0.000 C 
ATOM     25  O   UNL     1       1.632  12.754  19.316  0.00  0.00    +0.000 OA
ATOM     26  N   UNL     1       0.189  11.121  18.484  0.00  0.00    +0.000 N 
ATOM     27  H   UNL     1      -0.637  11.014  17.908  0.00  0.00    +0.000 HD
ENDBRANCH  17  26
ENDBRANCH  16  20
ENDBRANCH   1  16
TORSDOF 6
ENDMDL
MODEL 9
REMARK VINA RESULT:      -7.2      2.823      3.077
REMARK  Name = 
REMARK  7 active torsions:
REMARK  status: ('A' for Active; 'I' for Inactive)
REMARK    1  A    between atoms: C_1  and  C_2
REMARK    2  A    between atoms: N_4  and  C_5
REMARK    3  A    between atoms: C_8  and  O_9
REMARK    4  A    between atoms: O_9  and  C_10
REMARK    5  A    between atoms: C_10  and  C_12
REMARK    6  A    between atoms: C_16  and  C_17
REMARK    7  A    between atoms: C_17  and  N_18
REMARK                            x       y       z     vdW  Elec       q    Type
REMARK                         _______ _______ _______ _____ _____    ______ ____
ROOT
ATOM      1  C   UNL     1       1.404   9.170  19.284  0.00  0.00    +0.000 C 
ATOM      2  O   UNL     1       0.754   9.490  18.293  0.00  0.00    +0.000 OA
ENDROOT
BRANCH   1   3
ATOM      3  C   UNL     1       1.917   7.773  19.446  0.00  0.00    +0.000 A 
ATOM      4  C   UNL     1       1.668   6.969  20.562  0.00  0.00    +0.000 A 
ATOM      5  C   UNL     1       2.173   5.661  20.606  0.00  0.00    +0.000 A 
ATOM      6  C   UNL     1       2.944   5.155  19.550  0.00  0.00    +0.000 A 
ATOM      7  C   UNL     1       3.217   5.944  18.426  0.00  0.00    +0.000 A 
ATOM      8  C   UNL     1       2.676   7.241  18.382  0.00  0.00    +0.000 A 
BRANCH   7   9
ATOM      9  C   UNL     1       4.008   5.395  17.257  0.00  0.00    +0.000 C 
BRANCH   9  10
ATOM     10  N   UNL     1       5.302   5.993  16.923  0.00  0.00    +0.000 NA
ATOM     11  C   UNL     1       5.858   5.683  15.603  0.00  0.00    +0.000 C 
ATOM     12  C   UNL     1       6.769   4.445  15.577  0.00  0.00    +0.000 C 
ATOM     13  O   UNL     1       7.810   4.536  16.557  0.00  0.00    +0.000 OA
ATOM     14  C   UNL     1       7.269   4.714  17.871  0.00  0.00    +0.000 C 
ATOM     15  C   UNL     1       6.346   5.941  17.951  0.00  0.00    +0.000 C 
ENDBRANCH   9  10
ENDBRANCH   7   9
ENDBRANCH   1   3
BRANCH   1  16
ATOM     16  O   UNL     1       1.760  10.012  20.334  0.00  0.00    +0.000 OA
BRANCH  16  20
ATOM     17  C   UNL     1      -1.278  11.700  22.783  0.00  0.00    +0.000 A 
ATOM     18  C   UNL     1      -0.598  12.456  21.823  0.00  0.00    +0.000 A 
ATOM     19  C   UNL     1       0.418  11.881  21.034  0.00  0.00    +0.000 A 
ATOM     20  C   UNL     1       0.761  10.540  21.200  0.00  0.00    +0.000 A 
ATOM     21  C   UNL     1       0.075   9.771  22.140  0.00  0.00    +0.000 A 
ATOM     22  C   UNL     1      -0.919  10.355  22.942  0.00  0.00    +0.000 A 
BRANCH  17  26
ATOM     23  C   UNL     1      -4.447  13.045  24.358  0.00  0.00    +0.000 C 
ATOM     24  C   UNL     1      -3.619  12.464  23.241  0.00  0.00    +0.000 C 
ATOM     25  O   UNL     1      -4.120  12.263  22.137  0.00  0.00    +0.000 OA
ATOM     26  N   UNL     1      -2.310  12.206  23.608  0.00  0.00    +0.000 N 
ATOM     27  H   UNL     1      -2.084  12.320  24.589  0.00  0.00    +0.000 HD
ENDBRANCH  17  26
ENDBRANCH  16  20
ENDBRANCH   1  16
TORSDOF 6
ENDMDL
