MODEL 1
REMARK VINA RESULT:      -8.5      0.000      0.000
REMARK  Name = 
REMARK  9 active torsions:
REMARK  status: ('A' for Active; 'I' for Inactive)
REMARK    1  A    between atoms: C_1  and  C_2
REMARK    2  A    between atoms: C_2  and  C_3
REMARK    3  A    between atoms: C_2  and  C_24
REMARK    4  A    between atoms: C_3  and  N_4
REMARK    5  A    between atoms: N_12  and  C1*_13
REMARK    6  A    between atoms: C4*_15  and  C5*_16
REMARK    7  A    between atoms: C5*_16  and  O5*_17
REMARK    8  A    between atoms: C3*_18  and  O3*_19
REMARK    9  A    between atoms: C2*_20  and  O2*_21
REMARK                            x       y       z     vdW  Elec       q    Type
REMARK                         _______ _______ _______ _____ _____    ______ ____
ROOT
ATOM      1  N   UNL     1       1.442   7.250  20.821  0.00  0.00    +0.000 N 
ATOM      2  C   UNL     1       1.951   6.012  20.442  0.00  0.00    +0.000 A 
ATOM      3  N   UNL     1       1.311   4.943  20.960  0.00  0.00    +0.000 NA
ATOM      4  C   UNL     1       1.734   3.693  20.661  0.00  0.00    +0.000 A 
ATOM      5  N   UNL     1       1.117   2.613  21.282  0.00  0.00    +0.000 N 
ATOM      6  C   UNL     1       2.769   3.543  19.729  0.00  0.00    +0.000 A 
ATOM      7  N   UNL     1       3.349   2.435  19.148  0.00  0.00    +0.000 NA
ATOM      8  C   UNL     1       4.258   2.930  18.332  0.00  0.00    +0.000 A 
ATOM      9  N   UNL     1       4.314   4.300  18.392  0.00  0.00    +0.000 N 
ATOM     10  C   UNL     1       3.340   4.711  19.264  0.00  0.00    +0.000 A 
ATOM     11  N   UNL     1       3.002   5.961  19.598  0.00  0.00    +0.000 NA
ATOM     12  H   UNL     1       0.429   7.176  20.824  0.00  0.00    +0.000 HD
ATOM     13  H   UNL     1       0.210   2.839  21.663  0.00  0.00    +0.000 HD
ATOM     14  H   UNL     1       1.237   1.733  20.794  0.00  0.00    +0.000 HD
ENDROOT
BRANCH   9  15
ATOM     15  C1* UNL     1       5.246   5.123  17.654  0.00  0.00    +0.000 C 
ATOM     16  O4* UNL     1       4.658   5.496  16.387  0.00  0.00    +0.000 OA
ATOM     17  C4* UNL     1       5.682   5.432  15.365  0.00  0.00    +0.000 C 
ATOM     18  C3* UNL     1       7.008   5.211  16.086  0.00  0.00    +0.000 C 
ATOM     19  C2* UNL     1       6.604   4.488  17.364  0.00  0.00    +0.000 C 
BRANCH  18  20
ATOM     20  O3* UNL     1       7.625   6.457  16.461  0.00  0.00    +0.000 OA
ATOM     21  H3* UNL     1       6.982   6.991  16.963  0.00  0.00    +0.000 HD
ENDBRANCH  18  20
BRANCH  19  22
ATOM     22  O2* UNL     1       7.552   4.722  18.407  0.00  0.00    +0.000 OA
ATOM     23  H2* UNL     1       7.133   5.368  19.016  0.00  0.00    +0.000 HD
ENDBRANCH  19  22
BRANCH  17  24
ATOM     24  C5* UNL     1       5.367   4.296  14.396  0.00  0.00    +0.000 C 
BRANCH  24  25
ATOM     25  O5* UNL     1       6.557   3.642  13.973  0.00  0.00    +0.000 OA
ATOM     26  H5* UNL     1       7.296   4.092  14.428  0.00  0.00    +0.000 HD
ENDBRANCH  24  25
ENDBRANCH  17  24
ENDBRANCH   9  15
BRANCH   1  27
ATOM     27  C   UNL     1       2.016   8.404  20.151  0.00  0.00    +0.000 C 
BRANCH  27  29
ATOM     28  C   UNL     1       2.083   9.271  17.765  0.00  0.00    +0.000 C 
ATOM     29  C   UNL     1       1.188   8.915  18.959  0.00  0.00    +0.000 C 
BRANCH  29  30
ATOM     30  C   UNL     1       0.199  10.002  19.344  0.00  0.00    +0.000 A 
ATOM     31  C   UNL     1      -0.817  10.365  18.441  0.00  0.00    +0.000 A 
ATOM     32  C   UNL     1      -1.701  11.400  18.745  0.00  0.00    +0.000 A 
ATOM     33  C   UNL     1      -1.588  12.083  19.953  0.00  0.00    +0.000 A 
ATOM     34  C   UNL     1      -0.604  11.716  20.866  0.00  0.00    +0.000 A 
ATOM     35  C   UNL     1       0.275  10.677  20.570  0.00  0.00    +0.000 A 
ENDBRANCH  29  30
ENDBRANCH  27  29
ENDBRANCH   1  27
TORSDOF 8
ENDMDL
MODEL 2
REMARK VINA RESULT:      -8.4      0.738      1.383
REMARK  Name = 
REMARK  9 active torsions:
REMARK  status: ('A' for Active; 'I' for Inactive)
REMARK    1  A    between atoms: C_1  and  C_2
REMARK    2  A    between atoms: C_2  and  C_3
REMARK    3  A    between atoms: C_2  and  C_24
REMARK    4  A    between atoms: C_3  and  N_4
REMARK    5  A    between atoms: N_12  and  C1*_13
REMARK    6  A    between atoms: C4*_15  and  C5*_16
REMARK    7  A    between atoms: C5*_16  and  O5*_17
REMARK    8  A    between atoms: C3*_18  and  O3*_19
REMARK    9  A    between atoms: C2*_20  and  O2*_21
REMARK                            x       y       z     vdW  Elec       q    Type
REMARK                         _______ _______ _______ _____ _____    ______ ____
ROOT
ATOM      1  N   UNL     1       1.319   7.050  20.788  0.00  0.00    +0.000 N 
ATOM      2  C   UNL     1       2.014   5.867  20.561  0.00  0.00    +0.000 A 
ATOM      3  N   UNL     1       1.533   4.783  21.205  0.00  0.00    +0.000 NA
ATOM      4  C   UNL     1       2.143   3.585  21.060  0.00  0.00    +0.000 A 
ATOM      5  N   UNL     1       1.685   2.506  21.808  0.00  0.00    +0.000 N 
ATOM      6  C   UNL     1       3.205   3.482  20.151  0.00  0.00    +0.000 A 
ATOM      7  N   UNL     1       3.954   2.412  19.708  0.00  0.00    +0.000 NA
ATOM      8  C   UNL     1       4.792   2.936  18.837  0.00  0.00    +0.000 A 
ATOM      9  N   UNL     1       4.641   4.297  18.730  0.00  0.00    +0.000 N 
ATOM     10  C   UNL     1       3.603   4.657  19.547  0.00  0.00    +0.000 A 
ATOM     11  N   UNL     1       3.076   5.873  19.728  0.00  0.00    +0.000 NA
ATOM     12  H   UNL     1       0.329   6.825  20.801  0.00  0.00    +0.000 HD
ATOM     13  H   UNL     1       0.748   2.637  22.160  0.00  0.00    +0.000 HD
ATOM     14  H   UNL     1       1.943   1.602  21.430  0.00  0.00    +0.000 HD
ENDROOT
BRANCH   9  15
ATOM     15  C1* UNL     1       5.453   5.156  17.897  0.00  0.00    +0.000 C 
ATOM     16  O4* UNL     1       4.718   5.494  16.699  0.00  0.00    +0.000 OA
ATOM     17  C4* UNL     1       5.630   5.470  15.574  0.00  0.00    +0.000 C 
ATOM     18  C3* UNL     1       7.033   5.314  16.152  0.00  0.00    +0.000 C 
ATOM     19  C2* UNL     1       6.800   4.581  17.467  0.00  0.00    +0.000 C 
BRANCH  18  20
ATOM     20  O3* UNL     1       7.629   6.588  16.458  0.00  0.00    +0.000 OA
ATOM     21  H3* UNL     1       7.068   7.297  16.091  0.00  0.00    +0.000 HD
ENDBRANCH  18  20
BRANCH  19  22
ATOM     22  O2* UNL     1       7.840   4.864  18.403  0.00  0.00    +0.000 OA
ATOM     23  H2* UNL     1       8.567   4.235  18.202  0.00  0.00    +0.000 HD
ENDBRANCH  19  22
BRANCH  17  24
ATOM     24  C5* UNL     1       5.267   4.315  14.646  0.00  0.00    +0.000 C 
BRANCH  24  25
ATOM     25  O5* UNL     1       6.429   3.600  14.243  0.00  0.00    +0.000 OA
ATOM     26  H5* UNL     1       6.178   3.097  13.441  0.00  0.00    +0.000 HD
ENDBRANCH  24  25
ENDBRANCH  17  24
ENDBRANCH   9  15
BRANCH   1  27
ATOM     27  C   UNL     1       1.726   8.188  19.982  0.00  0.00    +0.000 C 
BRANCH  27  29
ATOM     28  C   UNL     1       0.801   9.486  21.959  0.00  0.00    +0.000 C 
ATOM     29  C   UNL     1       1.166   9.536  20.470  0.00  0.00    +0.000 C 
BRANCH  29  30
ATOM     30  C   UNL     1       0.066  10.083  19.576  0.00  0.00    +0.000 A 
ATOM     31  C   UNL     1      -0.819  11.052  20.081  0.00  0.00    +0.000 A 
ATOM     32  C   UNL     1      -1.873  11.527  19.302  0.00  0.00    +0.000 A 
ATOM     33  C   UNL     1      -2.056  11.046  18.008  0.00  0.00    +0.000 A 
ATOM     34  C   UNL     1      -1.172  10.107  17.486  0.00  0.00    +0.000 A 
ATOM     35  C   UNL     1      -0.113   9.637  18.259  0.00  0.00    +0.000 A 
ENDBRANCH  29  30
ENDBRANCH  27  29
ENDBRANCH   1  27
TORSDOF 8
ENDMDL
MODEL 3
REMARK VINA RESULT:      -8.4      0.915      1.415
REMARK  Name = 
REMARK  9 active torsions:
REMARK  status: ('A' for Active; 'I' for Inactive)
REMARK    1  A    between atoms: C_1  and  C_2
REMARK    2  A    between atoms: C_2  and  C_3
REMARK    3  A    between atoms: C_2  and  C_24
REMARK    4  A    between atoms: C_3  and  N_4
REMARK    5  A    between atoms: N_12  and  C1*_13
REMARK    6  A    between atoms: C4*_15  and  C5*_16
REMARK    7  A    between atoms: C5*_16  and  O5*_17
REMARK    8  A    between atoms: C3*_18  and  O3*_19
REMARK    9  A    between atoms: C2*_20  and  O2*_21
REMARK                            x       y       z     vdW  Elec       q    Type
REMARK                         _______ _______ _______ _____ _____    ______ ____
ROOT
ATOM      1  N   UNL     1       1.469   7.091  20.848  0.00  0.00    +0.000 N 
ATOM      2  C   UNL     1       2.112   5.887  20.578  0.00  0.00    +0.000 A 
ATOM      3  N   UNL     1       1.608   4.810  21.216  0.00  0.00    +0.000 NA
ATOM      4  C   UNL     1       2.167   3.593  21.030  0.00  0.00    +0.000 A 
ATOM      5  N   UNL     1       1.690   2.518  21.771  0.00  0.00    +0.000 N 
ATOM      6  C   UNL     1       3.197   3.468  20.088  0.00  0.00    +0.000 A 
ATOM      7  N   UNL     1       3.892   2.379  19.603  0.00  0.00    +0.000 NA
ATOM      8  C   UNL     1       4.724   2.889  18.717  0.00  0.00    +0.000 A 
ATOM      9  N   UNL     1       4.622   4.256  18.640  0.00  0.00    +0.000 N 
ATOM     10  C   UNL     1       3.622   4.639  19.494  0.00  0.00    +0.000 A 
ATOM     11  N   UNL     1       3.148   5.871  19.713  0.00  0.00    +0.000 NA
ATOM     12  H   UNL     1       0.472   6.903  20.886  0.00  0.00    +0.000 HD
ATOM     13  H   UNL     1       0.770   2.677  22.153  0.00  0.00    +0.000 HD
ATOM     14  H   UNL     1       1.903   1.612  21.369  0.00  0.00    +0.000 HD
ENDROOT
BRANCH   9  15
ATOM     15  C1* UNL     1       5.441   5.101  17.799  0.00  0.00    +0.000 C 
ATOM     16  O4* UNL     1       4.722   5.404  16.581  0.00  0.00    +0.000 OA
ATOM     17  C4* UNL     1       5.652   5.360  15.472  0.00  0.00    +0.000 C 
ATOM     18  C3* UNL     1       7.047   5.227  16.075  0.00  0.00    +0.000 C 
ATOM     19  C2* UNL     1       6.798   4.525  17.404  0.00  0.00    +0.000 C 
BRANCH  18  20
ATOM     20  O3* UNL     1       7.630   6.512  16.360  0.00  0.00    +0.000 OA
ATOM     21  H3* UNL     1       8.050   6.857  15.549  0.00  0.00    +0.000 HD
ENDBRANCH  18  20
BRANCH  19  22
ATOM     22  O2* UNL     1       7.822   4.837  18.349  0.00  0.00    +0.000 OA
ATOM     23  H2* UNL     1       7.938   4.033  18.902  0.00  0.00    +0.000 HD
ENDBRANCH  19  22
BRANCH  17  24
ATOM     24  C5* UNL     1       5.312   4.180  14.567  0.00  0.00    +0.000 C 
BRANCH  24  25
ATOM     25  O5* UNL     1       6.491   3.580  14.044  0.00  0.00    +0.000 OA
ATOM     26  H5* UNL     1       6.915   3.111  14.790  0.00  0.00    +0.000 HD
ENDBRANCH  24  25
ENDBRANCH  17  24
ENDBRANCH   9  15
BRANCH   1  27
ATOM     27  C   UNL     1       1.895   8.229  20.051  0.00  0.00    +0.000 C 
BRANCH  27  29
ATOM     28  C   UNL     1       1.167  10.066  18.455  0.00  0.00    +0.000 C 
ATOM     29  C   UNL     1       0.748   9.159  19.620  0.00  0.00    +0.000 C 
BRANCH  29  30
ATOM     30  C   UNL     1       0.108   9.895  20.785  0.00  0.00    +0.000 A 
ATOM     31  C   UNL     1       0.166   9.335  22.074  0.00  0.00    +0.000 A 
ATOM     32  C   UNL     1      -0.464   9.959  23.150  0.00  0.00    +0.000 A 
ATOM     33  C   UNL     1      -1.156  11.152  22.956  0.00  0.00    +0.000 A 
ATOM     34  C   UNL     1      -1.200  11.730  21.692  0.00  0.00    +0.000 A 
ATOM     35  C   UNL     1      -0.564  11.113  20.617  0.00  0.00    +0.000 A 
ENDBRANCH  29  30
ENDBRANCH  27  29
ENDBRANCH   1  27
TORSDOF 8
ENDMDL
MODEL 4
REMARK VINA RESULT:      -8.2      1.199      2.095
REMARK  Name = 
REMARK  9 active torsions:
REMARK  status: ('A' for Active; 'I' for Inactive)
REMARK    1  A    between atoms: C_1  and  C_2
REMARK    2  A    between atoms: C_2  and  C_3
REMARK    3  A    between atoms: C_2  and  C_24
REMARK    4  A    between atoms: C_3  and  N_4
REMARK    5  A    between atoms: N_12  and  C1*_13
REMARK    6  A    between atoms: C4*_15  and  C5*_16
REMARK    7  A    between atoms: C5*_16  and  O5*_17
REMARK    8  A    between atoms: C3*_18  and  O3*_19
REMARK    9  A    between atoms: C2*_20  and  O2*_21
REMARK                            x       y       z     vdW  Elec       q    Type
REMARK                         _______ _______ _______ _____ _____    ______ ____
ROOT
ATOM      1  N   UNL     1       1.464   7.056  20.953  0.00  0.00    +0.000 N 
ATOM      2  C   UNL     1       1.939   5.810  20.557  0.00  0.00    +0.000 A 
ATOM      3  N   UNL     1       1.600   4.782  21.361  0.00  0.00    +0.000 NA
ATOM      4  C   UNL     1       2.020   3.530  21.070  0.00  0.00    +0.000 A 
ATOM      5  N   UNL     1       1.737   2.505  21.965  0.00  0.00    +0.000 N 
ATOM      6  C   UNL     1       2.713   3.320  19.870  0.00  0.00    +0.000 A 
ATOM      7  N   UNL     1       3.179   2.181  19.248  0.00  0.00    +0.000 NA
ATOM      8  C   UNL     1       3.730   2.618  18.133  0.00  0.00    +0.000 A 
ATOM      9  N   UNL     1       3.674   3.986  18.031  0.00  0.00    +0.000 N 
ATOM     10  C   UNL     1       2.996   4.449  19.127  0.00  0.00    +0.000 A 
ATOM     11  N   UNL     1       2.667   5.711  19.424  0.00  0.00    +0.000 NA
ATOM     12  H   UNL     1       0.517   6.927  21.294  0.00  0.00    +0.000 HD
ATOM     13  H   UNL     1       0.981   2.727  22.596  0.00  0.00    +0.000 HD
ATOM     14  H   UNL     1       1.776   1.577  21.556  0.00  0.00    +0.000 HD
ENDROOT
BRANCH   9  15
ATOM     15  C1* UNL     1       4.242   4.759  16.949  0.00  0.00    +0.000 C 
ATOM     16  O4* UNL     1       5.321   4.012  16.343  0.00  0.00    +0.000 OA
ATOM     17  C4* UNL     1       6.400   4.927  16.031  0.00  0.00    +0.000 C 
ATOM     18  C3* UNL     1       5.863   6.335  16.272  0.00  0.00    +0.000 C 
ATOM     19  C2* UNL     1       4.788   6.132  17.332  0.00  0.00    +0.000 C 
BRANCH  18  20
ATOM     20  O3* UNL     1       5.226   6.871  15.097  0.00  0.00    +0.000 OA
ATOM     21  H3* UNL     1       5.563   6.401  14.311  0.00  0.00    +0.000 HD
ENDBRANCH  18  20
BRANCH  19  22
ATOM     22  O2* UNL     1       3.795   7.156  17.259  0.00  0.00    +0.000 OA
ATOM     23  H2* UNL     1       4.235   7.934  16.851  0.00  0.00    +0.000 HD
ENDBRANCH  19  22
BRANCH  17  24
ATOM     24  C5* UNL     1       7.602   4.620  16.918  0.00  0.00    +0.000 C 
BRANCH  24  25
ATOM     25  O5* UNL     1       7.192   4.067  18.163  0.00  0.00    +0.000 OA
ATOM     26  H5* UNL     1       7.978   3.624  18.540  0.00  0.00    +0.000 HD
ENDBRANCH  24  25
ENDBRANCH  17  24
ENDBRANCH   9  15
BRANCH   1  27
ATOM     27  C   UNL     1       1.685   8.146  20.018  0.00  0.00    +0.000 C 
BRANCH  27  29
ATOM     28  C   UNL     1       0.816   9.473  22.001  0.00  0.00    +0.000 C 
ATOM     29  C   UNL     1       1.169   9.510  20.508  0.00  0.00    +0.000 C 
BRANCH  29  30
ATOM     30  C   UNL     1       0.077  10.086  19.623  0.00  0.00    +0.000 A 
ATOM     31  C   UNL     1      -0.784  11.073  20.138  0.00  0.00    +0.000 A 
ATOM     32  C   UNL     1      -1.831  11.575  19.367  0.00  0.00    +0.000 A 
ATOM     33  C   UNL     1      -2.033  11.105  18.072  0.00  0.00    +0.000 A 
ATOM     34  C   UNL     1      -1.173  10.149  17.541  0.00  0.00    +0.000 A 
ATOM     35  C   UNL     1      -0.120   9.651  18.306  0.00  0.00    +0.000 A 
ENDBRANCH  29  30
ENDBRANCH  27  29
ENDBRANCH   1  27
TORSDOF 8
ENDMDL
MODEL 5
REMARK VINA RESULT:      -8.1      1.307      2.054
REMARK  Name = 
REMARK  9 active torsions:
REMARK  status: ('A' for Active; 'I' for Inactive)
REMARK    1  A    between atoms: C_1  and  C_2
REMARK    2  A    between atoms: C_2  and  C_3
REMARK    3  A    between atoms: C_2  and  C_24
REMARK    4  A    between atoms: C_3  and  N_4
REMARK    5  A    between atoms: N_12  and  C1*_13
REMARK    6  A    between atoms: C4*_15  and  C5*_16
REMARK    7  A    between atoms: C5*_16  and  O5*_17
REMARK    8  A    between atoms: C3*_18  and  O3*_19
REMARK    9  A    between atoms: C2*_20  and  O2*_21
REMARK                            x       y       z     vdW  Elec       q    Type
REMARK                         _______ _______ _______ _____ _____    ______ ____
ROOT
ATOM      1  N   UNL     1       1.639   7.003  21.021  0.00  0.00    +0.000 N 
ATOM      2  C   UNL     1       2.036   5.744  20.581  0.00  0.00    +0.000 A 
ATOM      3  N   UNL     1       1.629   4.711  21.348  0.00  0.00    +0.000 NA
ATOM      4  C   UNL     1       1.971   3.446  21.013  0.00  0.00    +0.000 A 
ATOM      5  N   UNL     1       1.620   2.410  21.870  0.00  0.00    +0.000 N 
ATOM      6  C   UNL     1       2.655   3.236  19.807  0.00  0.00    +0.000 A 
ATOM      7  N   UNL     1       3.051   2.092  19.146  0.00  0.00    +0.000 NA
ATOM      8  C   UNL     1       3.633   2.533  18.049  0.00  0.00    +0.000 A 
ATOM      9  N   UNL     1       3.664   3.904  17.996  0.00  0.00    +0.000 N 
ATOM     10  C   UNL     1       3.011   4.370  19.106  0.00  0.00    +0.000 A 
ATOM     11  N   UNL     1       2.761   5.639  19.447  0.00  0.00    +0.000 NA
ATOM     12  H   UNL     1       0.684   6.922  21.355  0.00  0.00    +0.000 HD
ATOM     13  H   UNL     1       0.878   2.656  22.508  0.00  0.00    +0.000 HD
ATOM     14  H   UNL     1       1.603   1.497  21.429  0.00  0.00    +0.000 HD
ENDROOT
BRANCH   9  15
ATOM     15  C1* UNL     1       4.284   4.678  16.943  0.00  0.00    +0.000 C 
ATOM     16  O4* UNL     1       5.414   3.948  16.415  0.00  0.00    +0.000 OA
ATOM     17  C4* UNL     1       6.492   4.882  16.162  0.00  0.00    +0.000 C 
ATOM     18  C3* UNL     1       5.912   6.281  16.351  0.00  0.00    +0.000 C 
ATOM     19  C2* UNL     1       4.776   6.066  17.343  0.00  0.00    +0.000 C 
BRANCH  18  20
ATOM     20  O3* UNL     1       5.340   6.791  15.132  0.00  0.00    +0.000 OA
ATOM     21  H3* UNL     1       5.709   7.676  14.955  0.00  0.00    +0.000 HD
ENDBRANCH  18  20
BRANCH  19  22
ATOM     22  O2* UNL     1       3.769   7.068  17.195  0.00  0.00    +0.000 OA
ATOM     23  H2* UNL     1       4.192   7.810  16.710  0.00  0.00    +0.000 HD
ENDBRANCH  19  22
BRANCH  17  24
ATOM     24  C5* UNL     1       7.641   4.610  17.127  0.00  0.00    +0.000 C 
BRANCH  24  25
ATOM     25  O5* UNL     1       7.161   4.081  18.358  0.00  0.00    +0.000 OA
ATOM     26  H5* UNL     1       7.828   4.312  19.035  0.00  0.00    +0.000 HD
ENDBRANCH  24  25
ENDBRANCH  17  24
ENDBRANCH   9  15
BRANCH   1  27
ATOM     27  C   UNL     1       1.932   8.109  20.125  0.00  0.00    +0.000 C 
BRANCH  27  29
ATOM     28  C   UNL     1       0.954   9.691  18.396  0.00  0.00    +0.000 C 
ATOM     29  C   UNL     1       0.693   8.911  19.691  0.00  0.00    +0.000 C 
BRANCH  29  30
ATOM     30  C   UNL     1       0.100   9.745  20.814  0.00  0.00    +0.000 A 
ATOM     31  C   UNL     1      -0.061  11.131  20.637  0.00  0.00    +0.000 A 
ATOM     32  C   UNL     1      -0.546  11.928  21.672  0.00  0.00    +0.000 A 
ATOM     33  C   UNL     1      -0.883  11.355  22.896  0.00  0.00    +0.000 A 
ATOM     34  C   UNL     1      -0.754   9.982  23.076  0.00  0.00    +0.000 A 
ATOM     35  C   UNL     1      -0.277   9.181  22.040  0.00  0.00    +0.000 A 
ENDBRANCH  29  30
ENDBRANCH  27  29
ENDBRANCH   1  27
TORSDOF 8
ENDMDL
MODEL 6
REMARK VINA RESULT:      -8.1      1.131      1.488
REMARK  Name = 
REMARK  9 active torsions:
REMARK  status: ('A' for Active; 'I' for Inactive)
REMARK    1  A    between atoms: C_1  and  C_2
REMARK    2  A    between atoms: C_2  and  C_3
REMARK    3  A    between atoms: C_2  and  C_24
REMARK    4  A    between atoms: C_3  and  N_4
REMARK    5  A    between atoms: N_12  and  C1*_13
REMARK    6  A    between atoms: C4*_15  and  C5*_16
REMARK    7  A    between atoms: C5*_16  and  O5*_17
REMARK    8  A    between atoms: C3*_18  and  O3*_19
REMARK    9  A    between atoms: C2*_20  and  O2*_21
REMARK                            x       y       z     vdW  Elec       q    Type
REMARK                         _______ _______ _______ _____ _____    ______ ____
ROOT
ATOM      1  N   UNL     1       0.899   7.383  20.678  0.00  0.00    +0.000 N 
ATOM      2  C   UNL     1       1.627   6.215  20.480  0.00  0.00    +0.000 A 
ATOM      3  N   UNL     1       0.977   5.073  20.788  0.00  0.00    +0.000 NA
ATOM      4  C   UNL     1       1.600   3.881  20.642  0.00  0.00    +0.000 A 
ATOM      5  N   UNL     1       0.944   2.728  21.056  0.00  0.00    +0.000 N 
ATOM      6  C   UNL     1       2.878   3.862  20.066  0.00  0.00    +0.000 A 
ATOM      7  N   UNL     1       3.720   2.834  19.697  0.00  0.00    +0.000 NA
ATOM      8  C   UNL     1       4.774   3.440  19.189  0.00  0.00    +0.000 A 
ATOM      9  N   UNL     1       4.664   4.807  19.251  0.00  0.00    +0.000 N 
ATOM     10  C   UNL     1       3.436   5.093  19.786  0.00  0.00    +0.000 A 
ATOM     11  N   UNL     1       2.883   6.293  19.992  0.00  0.00    +0.000 NA
ATOM     12  H   UNL     1      -0.054   7.205  20.375  0.00  0.00    +0.000 HD
ATOM     13  H   UNL     1      -0.055   2.850  21.144  0.00  0.00    +0.000 HD
ATOM     14  H   UNL     1       1.297   1.877  20.634  0.00  0.00    +0.000 HD
ENDROOT
BRANCH   9  15
ATOM     15  C1* UNL     1       5.683   5.740  18.823  0.00  0.00    +0.000 C 
ATOM     16  O4* UNL     1       5.475   6.069  17.431  0.00  0.00    +0.000 OA
ATOM     17  C4* UNL     1       6.764   6.135  16.774  0.00  0.00    +0.000 C 
ATOM     18  C3* UNL     1       7.820   6.047  17.871  0.00  0.00    +0.000 C 
ATOM     19  C2* UNL     1       7.124   5.261  18.975  0.00  0.00    +0.000 C 
BRANCH  18  20
ATOM     20  O3* UNL     1       8.153   7.345  18.398  0.00  0.00    +0.000 OA
ATOM     21  H3* UNL     1       8.513   7.240  19.298  0.00  0.00    +0.000 HD
ENDBRANCH  18  20
BRANCH  19  22
ATOM     22  O2* UNL     1       7.674   5.578  20.255  0.00  0.00    +0.000 OA
ATOM     23  H2* UNL     1       8.454   4.991  20.369  0.00  0.00    +0.000 HD
ENDBRANCH  19  22
BRANCH  17  24
ATOM     24  C5* UNL     1       6.888   4.990  15.774  0.00  0.00    +0.000 C 
BRANCH  24  25
ATOM     25  O5* UNL     1       7.666   5.376  14.647  0.00  0.00    +0.000 OA
ATOM     26  H5* UNL     1       7.080   5.295  13.868  0.00  0.00    +0.000 HD
ENDBRANCH  24  25
ENDBRANCH  17  24
ENDBRANCH   9  15
BRANCH   1  27
ATOM     27  C   UNL     1       1.523   8.607  20.202  0.00  0.00    +0.000 C 
BRANCH  27  29
ATOM     28  C   UNL     1       2.200   9.207  17.829  0.00  0.00    +0.000 C 
ATOM     29  C   UNL     1       1.034   9.064  18.817  0.00  0.00    +0.000 C 
BRANCH  29  30
ATOM     30  C   UNL     1       0.116  10.273  18.878  0.00  0.00    +0.000 A 
ATOM     31  C   UNL     1       0.525  11.419  19.585  0.00  0.00    +0.000 A 
ATOM     32  C   UNL     1      -0.323  12.518  19.707  0.00  0.00    +0.000 A 
ATOM     33  C   UNL     1      -1.586  12.494  19.124  0.00  0.00    +0.000 A 
ATOM     34  C   UNL     1      -1.993  11.378  18.399  0.00  0.00    +0.000 A 
ATOM     35  C   UNL     1      -1.145  10.281  18.268  0.00  0.00    +0.000 A 
ENDBRANCH  29  30
ENDBRANCH  27  29
ENDBRANCH   1  27
TORSDOF 8
ENDMDL
MODEL 7
REMARK VINA RESULT:      -8.1      1.300      1.795
REMARK  Name = 
REMARK  9 active torsions:
REMARK  status: ('A' for Active; 'I' for Inactive)
REMARK    1  A    between atoms: C_1  and  C_2
REMARK    2  A    between atoms: C_2  and  C_3
REMARK    3  A    between atoms: C_2  and  C_24
REMARK    4  A    between atoms: C_3  and  N_4
REMARK    5  A    between atoms: N_12  and  C1*_13
REMARK    6  A    between atoms: C4*_15  and  C5*_16
REMARK    7  A    between atoms: C5*_16  and  O5*_17
REMARK    8  A    between atoms: C3*_18  and  O3*_19
REMARK    9  A    between atoms: C2*_20  and  O2*_21
REMARK                            x       y       z     vdW  Elec       q    Type
REMARK                         _______ _______ _______ _____ _____    ______ ____
ROOT
ATOM      1  N   UNL     1       0.930   7.210  20.830  0.00  0.00    +0.000 N 
ATOM      2  C   UNL     1       1.655   6.055  20.553  0.00  0.00    +0.000 A 
ATOM      3  N   UNL     1       1.016   4.897  20.818  0.00  0.00    +0.000 NA
ATOM      4  C   UNL     1       1.637   3.716  20.593  0.00  0.00    +0.000 A 
ATOM      5  N   UNL     1       0.993   2.541  20.963  0.00  0.00    +0.000 N 
ATOM      6  C   UNL     1       2.899   3.731  19.984  0.00  0.00    +0.000 A 
ATOM      7  N   UNL     1       3.734   2.727  19.541  0.00  0.00    +0.000 NA
ATOM      8  C   UNL     1       4.773   3.362  19.039  0.00  0.00    +0.000 A 
ATOM      9  N   UNL     1       4.662   4.723  19.175  0.00  0.00    +0.000 N 
ATOM     10  C   UNL     1       3.447   4.977  19.755  0.00  0.00    +0.000 A 
ATOM     11  N   UNL     1       2.898   6.163  20.039  0.00  0.00    +0.000 NA
ATOM     12  H   UNL     1      -0.029   7.044  20.543  0.00  0.00    +0.000 HD
ATOM     13  H   UNL     1      -0.003   2.655  21.082  0.00  0.00    +0.000 HD
ATOM     14  H   UNL     1       1.337   1.715  20.488  0.00  0.00    +0.000 HD
ENDROOT
BRANCH   9  15
ATOM     15  C1* UNL     1       5.668   5.680  18.771  0.00  0.00    +0.000 C 
ATOM     16  O4* UNL     1       5.504   5.982  17.366  0.00  0.00    +0.000 OA
ATOM     17  C4* UNL     1       6.815   6.078  16.758  0.00  0.00    +0.000 C 
ATOM     18  C3* UNL     1       7.830   6.039  17.896  0.00  0.00    +0.000 C 
ATOM     19  C2* UNL     1       7.117   5.249  18.986  0.00  0.00    +0.000 C 
BRANCH  18  20
ATOM     20  O3* UNL     1       8.103   7.355  18.413  0.00  0.00    +0.000 OA
ATOM     21  H3* UNL     1       8.506   7.271  19.298  0.00  0.00    +0.000 HD
ENDBRANCH  18  20
BRANCH  19  22
ATOM     22  O2* UNL     1       7.607   5.602  20.280  0.00  0.00    +0.000 OA
ATOM     23  H2* UNL     1       8.570   5.411  20.268  0.00  0.00    +0.000 HD
ENDBRANCH  19  22
BRANCH  17  24
ATOM     24  C5* UNL     1       7.012   4.921  15.783  0.00  0.00    +0.000 C 
BRANCH  24  25
ATOM     25  O5* UNL     1       7.541   5.381  14.545  0.00  0.00    +0.000 OA
ATOM     26  H5* UNL     1       8.511   5.269  14.601  0.00  0.00    +0.000 HD
ENDBRANCH  24  25
ENDBRANCH  17  24
ENDBRANCH   9  15
BRANCH   1  27
ATOM     27  C   UNL     1       1.540   8.458  20.404  0.00  0.00    +0.000 C 
BRANCH  27  29
ATOM     28  C   UNL     1       0.065   9.360  22.265  0.00  0.00    +0.000 C 
ATOM     29  C   UNL     1       0.908   9.712  21.032  0.00  0.00    +0.000 C 
BRANCH  29  30
ATOM     30  C   UNL     1       0.194  10.591  20.019  0.00  0.00    +0.000 A 
ATOM     31  C   UNL     1       0.513  11.959  19.941  0.00  0.00    +0.000 A 
ATOM     32  C   UNL     1      -0.170  12.798  19.062  0.00  0.00    +0.000 A 
ATOM     33  C   UNL     1      -1.175  12.286  18.246  0.00  0.00    +0.000 A 
ATOM     34  C   UNL     1      -1.483  10.930  18.294  0.00  0.00    +0.000 A 
ATOM     35  C   UNL     1      -0.797  10.087  19.165  0.00  0.00    +0.000 A 
ENDBRANCH  29  30
ENDBRANCH  27  29
ENDBRANCH   1  27
TORSDOF 8
ENDMDL
MODEL 8
REMARK VINA RESULT:      -8.0      1.275      1.376
REMARK  Name = 
REMARK  9 active torsions:
REMARK  status: ('A' for Active; 'I' for Inactive)
REMARK    1  A    between atoms: C_1  and  C_2
REMARK    2  A    between atoms: C_2  and  C_3
REMARK    3  A    between atoms: C_2  and  C_24
REMARK    4  A    between atoms: C_3  and  N_4
REMARK    5  A    between atoms: N_12  and  C1*_13
REMARK    6  A    between atoms: C4*_15  and  C5*_16
REMARK    7  A    between atoms: C5*_16  and  O5*_17
REMARK    8  A    between atoms: C3*_18  and  O3*_19
REMARK    9  A    between atoms: C2*_20  and  O2*_21
REMARK                            x       y       z     vdW  Elec       q    Type
REMARK                         _______ _______ _______ _____ _____    ______ ____
ROOT
ATOM      1  N   UNL     1       0.947   7.413  20.670  0.00  0.00    +0.000 N 
ATOM      2  C   UNL     1       1.656   6.230  20.490  0.00  0.00    +0.000 A 
ATOM      3  N   UNL     1       0.995   5.104  20.831  0.00  0.00    +0.000 NA
ATOM      4  C   UNL     1       1.599   3.901  20.704  0.00  0.00    +0.000 A 
ATOM      5  N   UNL     1       0.931   2.767  21.151  0.00  0.00    +0.000 N 
ATOM      6  C   UNL     1       2.870   3.851  20.114  0.00  0.00    +0.000 A 
ATOM      7  N   UNL     1       3.693   2.803  19.759  0.00  0.00    +0.000 NA
ATOM      8  C   UNL     1       4.750   3.382  19.227  0.00  0.00    +0.000 A 
ATOM      9  N   UNL     1       4.660   4.752  19.260  0.00  0.00    +0.000 N 
ATOM     10  C   UNL     1       3.441   5.067  19.801  0.00  0.00    +0.000 A 
ATOM     11  N   UNL     1       2.908   6.279  19.987  0.00  0.00    +0.000 NA
ATOM     12  H   UNL     1      -0.011   7.242  20.382  0.00  0.00    +0.000 HD
ATOM     13  H   UNL     1      -0.064   2.905  21.247  0.00  0.00    +0.000 HD
ATOM     14  H   UNL     1       1.268   1.902  20.744  0.00  0.00    +0.000 HD
ENDROOT
BRANCH   9  15
ATOM     15  C1* UNL     1       5.687   5.661  18.800  0.00  0.00    +0.000 C 
ATOM     16  O4* UNL     1       5.509   5.908  17.387  0.00  0.00    +0.000 OA
ATOM     17  C4* UNL     1       6.811   5.939  16.754  0.00  0.00    +0.000 C 
ATOM     18  C3* UNL     1       7.844   5.916  17.878  0.00  0.00    +0.000 C 
ATOM     19  C2* UNL     1       7.125   5.195  19.010  0.00  0.00    +0.000 C 
BRANCH  18  20
ATOM     20  O3* UNL     1       8.164   7.244  18.335  0.00  0.00    +0.000 OA
ATOM     21  H3* UNL     1       7.355   7.663  18.684  0.00  0.00    +0.000 HD
ENDBRANCH  18  20
BRANCH  19  22
ATOM     22  O2* UNL     1       7.647   5.586  20.281  0.00  0.00    +0.000 OA
ATOM     23  H2* UNL     1       7.963   6.510  20.173  0.00  0.00    +0.000 HD
ENDBRANCH  19  22
BRANCH  17  24
ATOM     24  C5* UNL     1       6.958   4.737  15.826  0.00  0.00    +0.000 C 
BRANCH  24  25
ATOM     25  O5* UNL     1       5.791   3.924  15.854  0.00  0.00    +0.000 OA
ATOM     26  H5* UNL     1       5.805   3.453  16.712  0.00  0.00    +0.000 HD
ENDBRANCH  24  25
ENDBRANCH  17  24
ENDBRANCH   9  15
BRANCH   1  27
ATOM     27  C   UNL     1       1.583   8.617  20.161  0.00  0.00    +0.000 C 
BRANCH  27  29
ATOM     28  C   UNL     1       2.281   8.776  17.724  0.00  0.00    +0.000 C 
ATOM     29  C   UNL     1       1.150   9.001  18.736  0.00  0.00    +0.000 C 
BRANCH  29  30
ATOM     30  C   UNL     1       0.509  10.377  18.659  0.00  0.00    +0.000 A 
ATOM     31  C   UNL     1      -0.857  10.489  18.342  0.00  0.00    +0.000 A 
ATOM     32  C   UNL     1      -1.455  11.741  18.207  0.00  0.00    +0.000 A 
ATOM     33  C   UNL     1      -0.702  12.897  18.389  0.00  0.00    +0.000 A 
ATOM     34  C   UNL     1       0.644  12.801  18.728  0.00  0.00    +0.000 A 
ATOM     35  C   UNL     1       1.243  11.552  18.873  0.00  0.00    +0.000 A 
ENDBRANCH  29  30
ENDBRANCH  27  29
ENDBRANCH   1  27
TORSDOF 8
ENDMDL
MODEL 9
REMARK VINA RESULT:      -7.8      1.466      2.564
REMARK  Name = 
REMARK  9 active torsions:
REMARK  status: ('A' for Active; 'I' for Inactive)
REMARK    1  A    between atoms: C_1  and  C_2
REMARK    2  A    between atoms: C_2  and  C_3
REMARK    3  A    between atoms: C_2  and  C_24
REMARK    4  A    between atoms: C_3  and  N_4
REMARK    5  A    between atoms: N_12  and  C1*_13
REMARK    6  A    between atoms: C4*_15  and  C5*_16
REMARK    7  A    between atoms: C5*_16  and  O5*_17
REMARK    8  A    between atoms: C3*_18  and  O3*_19
REMARK    9  A    between atoms: C2*_20  and  O2*_21
REMARK                            x       y       z     vdW  Elec       q    Type
REMARK                         _______ _______ _______ _____ _____    ______ ____
ROOT
ATOM      1  N   UNL     1       1.607   6.952  20.663  0.00  0.00    +0.000 N 
ATOM      2  C   UNL     1       2.210   5.705  20.534  0.00  0.00    +0.000 A 
ATOM      3  N   UNL     1       1.674   4.725  21.293  0.00  0.00    +0.000 NA
ATOM      4  C   UNL     1       2.193   3.478  21.250  0.00  0.00    +0.000 A 
ATOM      5  N   UNL     1       1.685   2.512  22.110  0.00  0.00    +0.000 N 
ATOM      6  C   UNL     1       3.216   3.211  20.328  0.00  0.00    +0.000 A 
ATOM      7  N   UNL     1       3.874   2.052  19.974  0.00  0.00    +0.000 NA
ATOM      8  C   UNL     1       4.719   2.429  19.035  0.00  0.00    +0.000 A 
ATOM      9  N   UNL     1       4.660   3.780  18.800  0.00  0.00    +0.000 N 
ATOM     10  C   UNL     1       3.676   4.292  19.604  0.00  0.00    +0.000 A 
ATOM     11  N   UNL     1       3.242   5.555  19.678  0.00  0.00    +0.000 NA
ATOM     12  H   UNL     1       0.605   6.802  20.722  0.00  0.00    +0.000 HD
ATOM     13  H   UNL     1       0.771   2.743  22.471  0.00  0.00    +0.000 HD
ATOM     14  H   UNL     1       1.867   1.559  21.815  0.00  0.00    +0.000 HD
ENDROOT
BRANCH   9  15
ATOM     15  C1* UNL     1       5.503   4.495  17.867  0.00  0.00    +0.000 C 
ATOM     16  O4* UNL     1       6.887   4.321  18.242  0.00  0.00    +0.000 OA
ATOM     17  C4* UNL     1       7.579   5.580  18.055  0.00  0.00    +0.000 C 
ATOM     18  C3* UNL     1       6.610   6.509  17.331  0.00  0.00    +0.000 C 
ATOM     19  C2* UNL     1       5.239   5.994  17.751  0.00  0.00    +0.000 C 
BRANCH  18  20
ATOM     20  O3* UNL     1       6.711   6.375  15.901  0.00  0.00    +0.000 OA
ATOM     21  H3* UNL     1       6.609   7.255  15.492  0.00  0.00    +0.000 HD
ENDBRANCH  18  20
BRANCH  19  22
ATOM     22  O2* UNL     1       4.252   6.303  16.767  0.00  0.00    +0.000 OA
ATOM     23  H2* UNL     1       4.744   6.503  15.940  0.00  0.00    +0.000 HD
ENDBRANCH  19  22
BRANCH  17  24
ATOM     24  C5* UNL     1       7.996   6.141  19.412  0.00  0.00    +0.000 C 
BRANCH  24  25
ATOM     25  O5* UNL     1       7.771   5.192  20.448  0.00  0.00    +0.000 OA
ATOM     26  H5* UNL     1       8.250   5.525  21.234  0.00  0.00    +0.000 HD
ENDBRANCH  24  25
ENDBRANCH  17  24
ENDBRANCH   9  15
BRANCH   1  27
ATOM     27  C   UNL     1       2.066   7.976  19.739  0.00  0.00    +0.000 C 
BRANCH  27  29
ATOM     28  C   UNL     1       1.538  10.063  18.392  0.00  0.00    +0.000 C 
ATOM     29  C   UNL     1       1.012   9.048  19.415  0.00  0.00    +0.000 C 
BRANCH  29  30
ATOM     30  C   UNL     1       0.398   9.674  20.655  0.00  0.00    +0.000 A 
ATOM     31  C   UNL     1       0.576   9.054  21.905  0.00  0.00    +0.000 A 
ATOM     32  C   UNL     1      -0.027   9.574  23.050  0.00  0.00    +0.000 A 
ATOM     33  C   UNL     1      -0.810  10.722  22.965  0.00  0.00    +0.000 A 
ATOM     34  C   UNL     1      -0.973  11.361  21.740  0.00  0.00    +0.000 A 
ATOM     35  C   UNL     1      -0.366  10.848  20.596  0.00  0.00    +0.000 A 
ENDBRANCH  29  30
ENDBRANCH  27  29
ENDBRANCH   1  27
TORSDOF 8
ENDMDL
