MODEL 1
REMARK VINA RESULT:      -7.5      0.000      0.000
REMARK  Name = 
REMARK  7 active torsions:
REMARK  status: ('A' for Active; 'I' for Inactive)
REMARK    1  A    between atoms: C_1  and  C_2
REMARK    2  A    between atoms: N_7  and  C_8
REMARK    3  A    between atoms: N_16  and  C1*_17
REMARK    4  A    between atoms: C4*_19  and  C5*_20
REMARK    5  A    between atoms: C5*_20  and  O5*_21
REMARK    6  A    between atoms: C3*_22  and  O3*_23
REMARK    7  A    between atoms: C2*_24  and  O2*_25
REMARK                            x       y       z     vdW  Elec       q    Type
REMARK                         _______ _______ _______ _____ _____    ______ ____
ROOT
ATOM      1  C   UNL     1       3.258   6.579  18.597  0.00  0.00    +0.000 A 
ATOM      2  N   UNL     1       3.078   5.794  19.699  0.00  0.00    +0.000 NA
ATOM      3  C   UNL     1       2.214   6.170  20.659  0.00  0.00    +0.000 A 
ATOM      4  N   UNL     1       1.459   7.284  20.705  0.00  0.00    +0.000 NA
ATOM      5  C   UNL     1       1.679   8.054  19.631  0.00  0.00    +0.000 A 
ATOM      6  C   UNL     1       2.533   7.798  18.567  0.00  0.00    +0.000 A 
ATOM      7  N   UNL     1       2.477   8.837  17.652  0.00  0.00    +0.000 NA
ATOM      8  C   UNL     1       1.596   9.681  18.141  0.00  0.00    +0.000 A 
ATOM      9  N   UNL     1       1.077   9.245  19.331  0.00  0.00    +0.000 N 
ENDROOT
BRANCH   1  16
ATOM     10  C   UNL     1       6.321   3.522  13.816  0.00  0.00    +0.000 C 
ATOM     11  C   UNL     1       6.744   4.703  14.649  0.00  0.00    +0.000 C 
ATOM     12  O   UNL     1       7.755   5.340  14.352  0.00  0.00    +0.000 OA
ATOM     13  N   UNL     1       5.917   5.055  15.699  0.00  0.00    +0.000 N 
ATOM     14  C   UNL     1       6.254   6.237  16.505  0.00  0.00    +0.000 C 
ATOM     15  C   UNL     1       4.992   7.010  16.923  0.00  0.00    +0.000 C 
ATOM     16  N   UNL     1       4.052   6.089  17.576  0.00  0.00    +0.000 N 
ATOM     17  C   UNL     1       3.654   4.929  16.775  0.00  0.00    +0.000 C 
ATOM     18  C   UNL     1       4.910   4.171  16.304  0.00  0.00    +0.000 C 
ENDBRANCH   1  16
BRANCH   9  19
ATOM     19  C1* UNL     1       0.034   9.915  20.073  0.00  0.00    +0.000 C 
ATOM     20  O4* UNL     1      -0.929  10.483  19.160  0.00  0.00    +0.000 OA
ATOM     21  C4* UNL     1      -1.338  11.776  19.674  0.00  0.00    +0.000 C 
ATOM     22  C3* UNL     1      -0.731  11.907  21.070  0.00  0.00    +0.000 C 
ATOM     23  C2* UNL     1       0.513  11.034  20.997  0.00  0.00    +0.000 C 
BRANCH  22  24
ATOM     24  O3* UNL     1      -1.587  11.353  22.088  0.00  0.00    +0.000 OA
ATOM     25  H3* UNL     1      -1.340  10.420  22.243  0.00  0.00    +0.000 HD
ENDBRANCH  22  24
BRANCH  23  26
ATOM     26  O2* UNL     1       0.893  10.554  22.286  0.00  0.00    +0.000 OA
ATOM     27  H2* UNL     1       1.862  10.690  22.354  0.00  0.00    +0.000 HD
ENDBRANCH  23  26
BRANCH  21  28
ATOM     28  C5* UNL     1      -0.872  12.870  18.712  0.00  0.00    +0.000 C 
BRANCH  28  29
ATOM     29  O5* UNL     1      -1.300  12.560  17.388  0.00  0.00    +0.000 OA
ATOM     30  H5* UNL     1      -0.563  12.071  16.973  0.00  0.00    +0.000 HD
ENDBRANCH  28  29
ENDBRANCH  21  28
ENDBRANCH   9  19
TORSDOF 6
ENDMDL
MODEL 2
REMARK VINA RESULT:      -7.3      2.163      8.666
REMARK  Name = 
REMARK  7 active torsions:
REMARK  status: ('A' for Active; 'I' for Inactive)
REMARK    1  A    between atoms: C_1  and  C_2
REMARK    2  A    between atoms: N_7  and  C_8
REMARK    3  A    between atoms: N_16  and  C1*_17
REMARK    4  A    between atoms: C4*_19  and  C5*_20
REMARK    5  A    between atoms: C5*_20  and  O5*_21
REMARK    6  A    between atoms: C3*_22  and  O3*_23
REMARK    7  A    between atoms: C2*_24  and  O2*_25
REMARK                            x       y       z     vdW  Elec       q    Type
REMARK                         _______ _______ _______ _____ _____    ______ ____
ROOT
ATOM      1  C   UNL     1       1.499   7.528  20.277  0.00  0.00    +0.000 A 
ATOM      2  N   UNL     1       1.308   6.432  21.069  0.00  0.00    +0.000 NA
ATOM      3  C   UNL     1       2.005   5.305  20.835  0.00  0.00    +0.000 A 
ATOM      4  N   UNL     1       2.912   5.076  19.867  0.00  0.00    +0.000 NA
ATOM      5  C   UNL     1       3.055   6.153  19.083  0.00  0.00    +0.000 A 
ATOM      6  C   UNL     1       2.412   7.377  19.201  0.00  0.00    +0.000 A 
ATOM      7  N   UNL     1       2.833   8.234  18.198  0.00  0.00    +0.000 NA
ATOM      8  C   UNL     1       3.723   7.553  17.512  0.00  0.00    +0.000 A 
ATOM      9  N   UNL     1       3.901   6.292  18.017  0.00  0.00    +0.000 N 
ENDROOT
BRANCH   1  16
ATOM     10  C   UNL     1      -1.148  13.356  21.060  0.00  0.00    +0.000 C 
ATOM     11  C   UNL     1      -0.945  12.236  22.045  0.00  0.00    +0.000 C 
ATOM     12  O   UNL     1      -1.456  12.294  23.163  0.00  0.00    +0.000 OA
ATOM     13  N   UNL     1      -0.221  11.143  21.607  0.00  0.00    +0.000 N 
ATOM     14  C   UNL     1      -0.047   9.997  22.510  0.00  0.00    +0.000 C 
ATOM     15  C   UNL     1      -0.099   8.664  21.744  0.00  0.00    +0.000 C 
ATOM     16  N   UNL     1       0.864   8.703  20.635  0.00  0.00    +0.000 N 
ATOM     17  C   UNL     1       0.682   9.804  19.686  0.00  0.00    +0.000 C 
ATOM     18  C   UNL     1       0.679  11.146  20.444  0.00  0.00    +0.000 C 
ENDBRANCH   1  16
BRANCH   9  19
ATOM     19  C1* UNL     1       4.863   5.333  17.527  0.00  0.00    +0.000 C 
ATOM     20  O4* UNL     1       5.669   4.846  18.622  0.00  0.00    +0.000 OA
ATOM     21  C4* UNL     1       7.036   4.710  18.156  0.00  0.00    +0.000 C 
ATOM     22  C3* UNL     1       7.014   4.946  16.647  0.00  0.00    +0.000 C 
ATOM     23  C2* UNL     1       5.813   5.859  16.451  0.00  0.00    +0.000 C 
BRANCH  22  24
ATOM     24  O3* UNL     1       6.759   3.733  15.913  0.00  0.00    +0.000 OA
ATOM     25  H3* UNL     1       7.235   3.767  15.060  0.00  0.00    +0.000 HD
ENDBRANCH  22  24
BRANCH  23  26
ATOM     26  O2* UNL     1       5.270   5.736  15.137  0.00  0.00    +0.000 OA
ATOM     27  H2* UNL     1       5.999   5.956  14.518  0.00  0.00    +0.000 HD
ENDBRANCH  23  26
BRANCH  21  28
ATOM     28  C5* UNL     1       7.924   5.706  18.906  0.00  0.00    +0.000 C 
BRANCH  28  29
ATOM     29  O5* UNL     1       7.848   5.456  20.307  0.00  0.00    +0.000 OA
ATOM     30  H5* UNL     1       8.749   5.197  20.584  0.00  0.00    +0.000 HD
ENDBRANCH  28  29
ENDBRANCH  21  28
ENDBRANCH   9  19
TORSDOF 6
ENDMDL
MODEL 3
REMARK VINA RESULT:      -7.2      2.166      8.647
REMARK  Name = 
REMARK  7 active torsions:
REMARK  status: ('A' for Active; 'I' for Inactive)
REMARK    1  A    between atoms: C_1  and  C_2
REMARK    2  A    between atoms: N_7  and  C_8
REMARK    3  A    between atoms: N_16  and  C1*_17
REMARK    4  A    between atoms: C4*_19  and  C5*_20
REMARK    5  A    between atoms: C5*_20  and  O5*_21
REMARK    6  A    between atoms: C3*_22  and  O3*_23
REMARK    7  A    between atoms: C2*_24  and  O2*_25
REMARK                            x       y       z     vdW  Elec       q    Type
REMARK                         _______ _______ _______ _____ _____    ______ ____
ROOT
ATOM      1  C   UNL     1       1.525   7.561  20.248  0.00  0.00    +0.000 A 
ATOM      2  N   UNL     1       1.329   6.467  21.042  0.00  0.00    +0.000 NA
ATOM      3  C   UNL     1       2.019   5.336  20.811  0.00  0.00    +0.000 A 
ATOM      4  N   UNL     1       2.924   5.099  19.843  0.00  0.00    +0.000 NA
ATOM      5  C   UNL     1       3.074   6.174  19.057  0.00  0.00    +0.000 A 
ATOM      6  C   UNL     1       2.437   7.402  19.173  0.00  0.00    +0.000 A 
ATOM      7  N   UNL     1       2.863   8.255  18.168  0.00  0.00    +0.000 NA
ATOM      8  C   UNL     1       3.750   7.567  17.484  0.00  0.00    +0.000 A 
ATOM      9  N   UNL     1       3.920   6.307  17.990  0.00  0.00    +0.000 N 
ENDROOT
BRANCH   1  16
ATOM     10  C   UNL     1      -1.102  12.848  22.841  0.00  0.00    +0.000 C 
ATOM     11  C   UNL     1      -1.270  12.246  21.472  0.00  0.00    +0.000 C 
ATOM     12  O   UNL     1      -1.873  12.862  20.593  0.00  0.00    +0.000 OA
ATOM     13  N   UNL     1      -0.669  11.021  21.251  0.00  0.00    +0.000 N 
ATOM     14  C   UNL     1      -0.752  10.419  19.912  0.00  0.00    +0.000 C 
ATOM     15  C   UNL     1       0.552   9.693  19.541  0.00  0.00    +0.000 C 
ATOM     16  N   UNL     1       0.897   8.740  20.604  0.00  0.00    +0.000 N 
ATOM     17  C   UNL     1       1.042   9.320  21.942  0.00  0.00    +0.000 C 
ATOM     18  C   UNL     1      -0.238  10.097  22.310  0.00  0.00    +0.000 C 
ENDBRANCH   1  16
BRANCH   9  19
ATOM     19  C1* UNL     1       4.877   5.342  17.502  0.00  0.00    +0.000 C 
ATOM     20  O4* UNL     1       5.677   4.848  18.599  0.00  0.00    +0.000 OA
ATOM     21  C4* UNL     1       7.044   4.704  18.137  0.00  0.00    +0.000 C 
ATOM     22  C3* UNL     1       7.027   4.941  16.627  0.00  0.00    +0.000 C 
ATOM     23  C2* UNL     1       5.833   5.861  16.429  0.00  0.00    +0.000 C 
BRANCH  22  24
ATOM     24  O3* UNL     1       6.766   3.730  15.892  0.00  0.00    +0.000 OA
ATOM     25  H3* UNL     1       6.114   3.190  16.382  0.00  0.00    +0.000 HD
ENDBRANCH  22  24
BRANCH  23  26
ATOM     26  O2* UNL     1       5.292   5.743  15.114  0.00  0.00    +0.000 OA
ATOM     27  H2* UNL     1       5.961   5.257  14.585  0.00  0.00    +0.000 HD
ENDBRANCH  23  26
BRANCH  21  28
ATOM     28  C5* UNL     1       7.937   5.693  18.889  0.00  0.00    +0.000 C 
BRANCH  28  29
ATOM     29  O5* UNL     1       7.838   5.459  20.292  0.00  0.00    +0.000 OA
ATOM     30  H5* UNL     1       7.578   6.312  20.690  0.00  0.00    +0.000 HD
ENDBRANCH  28  29
ENDBRANCH  21  28
ENDBRANCH   9  19
TORSDOF 6
ENDMDL
MODEL 4
REMARK VINA RESULT:      -7.1      0.693      1.195
REMARK  Name = 
REMARK  7 active torsions:
REMARK  status: ('A' for Active; 'I' for Inactive)
REMARK    1  A    between atoms: C_1  and  C_2
REMARK    2  A    between atoms: N_7  and  C_8
REMARK    3  A    between atoms: N_16  and  C1*_17
REMARK    4  A    between atoms: C4*_19  and  C5*_20
REMARK    5  A    between atoms: C5*_20  and  O5*_21
REMARK    6  A    between atoms: C3*_22  and  O3*_23
REMARK    7  A    between atoms: C2*_24  and  O2*_25
REMARK                            x       y       z     vdW  Elec       q    Type
REMARK                         _______ _______ _______ _____ _____    ______ ____
ROOT
ATOM      1  C   UNL     1       3.294   6.549  18.559  0.00  0.00    +0.000 A 
ATOM      2  N   UNL     1       3.078   5.763  19.654  0.00  0.00    +0.000 NA
ATOM      3  C   UNL     1       2.198   6.149  20.595  0.00  0.00    +0.000 A 
ATOM      4  N   UNL     1       1.459   7.274  20.628  0.00  0.00    +0.000 NA
ATOM      5  C   UNL     1       1.714   8.044  19.562  0.00  0.00    +0.000 A 
ATOM      6  C   UNL     1       2.588   7.779  18.516  0.00  0.00    +0.000 A 
ATOM      7  N   UNL     1       2.568   8.821  17.604  0.00  0.00    +0.000 NA
ATOM      8  C   UNL     1       1.689   9.676  18.076  0.00  0.00    +0.000 A 
ATOM      9  N   UNL     1       1.137   9.245  19.252  0.00  0.00    +0.000 N 
ENDROOT
BRANCH   1  16
ATOM     10  C   UNL     1       7.402   5.165  13.784  0.00  0.00    +0.000 C 
ATOM     11  C   UNL     1       6.299   4.341  14.393  0.00  0.00    +0.000 C 
ATOM     12  O   UNL     1       6.176   3.153  14.094  0.00  0.00    +0.000 OA
ATOM     13  N   UNL     1       5.495   4.966  15.327  0.00  0.00    +0.000 N 
ATOM     14  C   UNL     1       4.443   4.187  15.995  0.00  0.00    +0.000 C 
ATOM     15  C   UNL     1       4.292   4.596  17.470  0.00  0.00    +0.000 C 
ATOM     16  N   UNL     1       4.104   6.050  17.554  0.00  0.00    +0.000 N 
ATOM     17  C   UNL     1       5.165   6.856  16.945  0.00  0.00    +0.000 C 
ATOM     18  C   UNL     1       5.366   6.423  15.479  0.00  0.00    +0.000 C 
ENDBRANCH   1  16
BRANCH   9  19
ATOM     19  C1* UNL     1       0.088   9.928  19.973  0.00  0.00    +0.000 C 
ATOM     20  O4* UNL     1      -0.873  10.471  19.042  0.00  0.00    +0.000 OA
ATOM     21  C4* UNL     1      -1.289  11.774  19.523  0.00  0.00    +0.000 C 
ATOM     22  C3* UNL     1      -0.689  11.941  20.919  0.00  0.00    +0.000 C 
ATOM     23  C2* UNL     1       0.558  11.071  20.872  0.00  0.00    +0.000 C 
BRANCH  22  24
ATOM     24  O3* UNL     1      -1.549  11.408  21.945  0.00  0.00    +0.000 OA
ATOM     25  H3* UNL     1      -1.680  10.452  21.790  0.00  0.00    +0.000 HD
ENDBRANCH  22  24
BRANCH  23  26
ATOM     26  O2* UNL     1       0.933  10.623  22.174  0.00  0.00    +0.000 OA
ATOM     27  H2* UNL     1       1.887  10.833  22.272  0.00  0.00    +0.000 HD
ENDBRANCH  23  26
BRANCH  21  28
ATOM     28  C5* UNL     1      -0.822  12.846  18.537  0.00  0.00    +0.000 C 
BRANCH  28  29
ATOM     29  O5* UNL     1      -1.308  12.544  17.232  0.00  0.00    +0.000 OA
ATOM     30  H5* UNL     1      -2.026  13.183  17.056  0.00  0.00    +0.000 HD
ENDBRANCH  28  29
ENDBRANCH  21  28
ENDBRANCH   9  19
TORSDOF 6
ENDMDL
MODEL 5
REMARK VINA RESULT:      -7.0      3.169      8.858
REMARK  Name = 
REMARK  7 active torsions:
REMARK  status: ('A' for Active; 'I' for Inactive)
REMARK    1  A    between atoms: C_1  and  C_2
REMARK    2  A    between atoms: N_7  and  C_8
REMARK    3  A    between atoms: N_16  and  C1*_17
REMARK    4  A    between atoms: C4*_19  and  C5*_20
REMARK    5  A    between atoms: C5*_20  and  O5*_21
REMARK    6  A    between atoms: C3*_22  and  O3*_23
REMARK    7  A    between atoms: C2*_24  and  O2*_25
REMARK                            x       y       z     vdW  Elec       q    Type
REMARK                         _______ _______ _______ _____ _____    ______ ____
ROOT
ATOM      1  C   UNL     1       1.053   9.876  19.551  0.00  0.00    +0.000 A 
ATOM      2  N   UNL     1       1.547  10.330  18.362  0.00  0.00    +0.000 NA
ATOM      3  C   UNL     1       2.266   9.510  17.576  0.00  0.00    +0.000 A 
ATOM      4  N   UNL     1       2.606   8.227  17.805  0.00  0.00    +0.000 NA
ATOM      5  C   UNL     1       2.140   7.816  18.992  0.00  0.00    +0.000 A 
ATOM      6  C   UNL     1       1.386   8.543  19.903  0.00  0.00    +0.000 A 
ATOM      7  N   UNL     1       1.098   7.762  21.011  0.00  0.00    +0.000 NA
ATOM      8  C   UNL     1       1.641   6.593  20.761  0.00  0.00    +0.000 A 
ATOM      9  N   UNL     1       2.272   6.572  19.546  0.00  0.00    +0.000 N 
ENDROOT
BRANCH   1  16
ATOM     10  C   UNL     1      -2.417  13.413  23.678  0.00  0.00    +0.000 C 
ATOM     11  C   UNL     1      -2.619  13.149  22.209  0.00  0.00    +0.000 C 
ATOM     12  O   UNL     1      -3.471  13.774  21.579  0.00  0.00    +0.000 OA
ATOM     13  N   UNL     1      -1.770  12.233  21.618  0.00  0.00    +0.000 N 
ATOM     14  C   UNL     1      -1.886  11.985  20.174  0.00  0.00    +0.000 C 
ATOM     15  C   UNL     1      -0.507  11.763  19.529  0.00  0.00    +0.000 C 
ATOM     16  N   UNL     1       0.207  10.709  20.261  0.00  0.00    +0.000 N 
ATOM     17  C   UNL     1       0.388  10.954  21.694  0.00  0.00    +0.000 C 
ATOM     18  C   UNL     1      -0.981  11.230  22.348  0.00  0.00    +0.000 C 
ENDBRANCH   1  16
BRANCH   9  19
ATOM     19  C1* UNL     1       2.897   5.410  18.958  0.00  0.00    +0.000 C 
ATOM     20  O4* UNL     1       1.915   4.368  18.770  0.00  0.00    +0.000 OA
ATOM     21  C4* UNL     1       2.532   3.096  19.093  0.00  0.00    +0.000 C 
ATOM     22  C3* UNL     1       4.021   3.368  19.301  0.00  0.00    +0.000 C 
ATOM     23  C2* UNL     1       4.052   4.817  19.763  0.00  0.00    +0.000 C 
BRANCH  22  24
ATOM     24  O3* UNL     1       4.763   3.292  18.069  0.00  0.00    +0.000 OA
ATOM     25  H3* UNL     1       4.600   4.101  17.545  0.00  0.00    +0.000 HD
ENDBRANCH  22  24
BRANCH  23  26
ATOM     26  O2* UNL     1       5.302   5.437  19.461  0.00  0.00    +0.000 OA
ATOM     27  H2* UNL     1       5.099   6.373  19.247  0.00  0.00    +0.000 HD
ENDBRANCH  23  26
BRANCH  21  28
ATOM     28  C5* UNL     1       1.851   2.507  20.330  0.00  0.00    +0.000 C 
BRANCH  28  29
ATOM     29  O5* UNL     1       0.604   3.162  20.551  0.00  0.00    +0.000 OA
ATOM     30  H5* UNL     1       0.272   2.828  21.407  0.00  0.00    +0.000 HD
ENDBRANCH  28  29
ENDBRANCH  21  28
ENDBRANCH   9  19
TORSDOF 6
ENDMDL
MODEL 6
REMARK VINA RESULT:      -7.0      2.744      8.632
REMARK  Name = 
REMARK  7 active torsions:
REMARK  status: ('A' for Active; 'I' for Inactive)
REMARK    1  A    between atoms: C_1  and  C_2
REMARK    2  A    between atoms: N_7  and  C_8
REMARK    3  A    between atoms: N_16  and  C1*_17
REMARK    4  A    between atoms: C4*_19  and  C5*_20
REMARK    5  A    between atoms: C5*_20  and  O5*_21
REMARK    6  A    between atoms: C3*_22  and  O3*_23
REMARK    7  A    between atoms: C2*_24  and  O2*_25
REMARK                            x       y       z     vdW  Elec       q    Type
REMARK                         _______ _______ _______ _____ _____    ______ ____
ROOT
ATOM      1  C   UNL     1       1.519   9.075  19.230  0.00  0.00    +0.000 A 
ATOM      2  N   UNL     1       2.165   9.413  18.076  0.00  0.00    +0.000 NA
ATOM      3  C   UNL     1       2.939   8.507  17.450  0.00  0.00    +0.000 A 
ATOM      4  N   UNL     1       3.199   7.239  17.821  0.00  0.00    +0.000 NA
ATOM      5  C   UNL     1       2.582   6.944  18.973  0.00  0.00    +0.000 A 
ATOM      6  C   UNL     1       1.757   7.768  19.727  0.00  0.00    +0.000 A 
ATOM      7  N   UNL     1       1.311   7.093  20.852  0.00  0.00    +0.000 NA
ATOM      8  C   UNL     1       1.833   5.891  20.763  0.00  0.00    +0.000 A 
ATOM      9  N   UNL     1       2.600   5.749  19.638  0.00  0.00    +0.000 N 
ENDROOT
BRANCH   1  16
ATOM     10  C   UNL     1      -2.154  13.172  22.593  0.00  0.00    +0.000 C 
ATOM     11  C   UNL     1      -2.322  12.631  21.198  0.00  0.00    +0.000 C 
ATOM     12  O   UNL     1      -3.188  13.091  20.454  0.00  0.00    +0.000 OA
ATOM     13  N   UNL     1      -1.428  11.657  20.795  0.00  0.00    +0.000 N 
ATOM     14  C   UNL     1      -1.511  11.139  19.422  0.00  0.00    +0.000 C 
ATOM     15  C   UNL     1      -0.114  10.859  18.843  0.00  0.00    +0.000 C 
ATOM     16  N   UNL     1       0.630   9.990  19.765  0.00  0.00    +0.000 N 
ATOM     17  C   UNL     1       0.777  10.505  21.129  0.00  0.00    +0.000 C 
ATOM     18  C   UNL     1      -0.612  10.841  21.707  0.00  0.00    +0.000 C 
ENDBRANCH   1  16
BRANCH   9  19
ATOM     19  C1* UNL     1       3.243   4.523  19.225  0.00  0.00    +0.000 C 
ATOM     20  O4* UNL     1       4.677   4.694  19.238  0.00  0.00    +0.000 OA
ATOM     21  C4* UNL     1       5.229   4.006  18.087  0.00  0.00    +0.000 C 
ATOM     22  C3* UNL     1       4.084   3.217  17.454  0.00  0.00    +0.000 C 
ATOM     23  C2* UNL     1       2.850   4.020  17.837  0.00  0.00    +0.000 C 
BRANCH  22  24
ATOM     24  O3* UNL     1       3.943   1.906  18.034  0.00  0.00    +0.000 OA
ATOM     25  H3* UNL     1       3.065   1.544  17.801  0.00  0.00    +0.000 HD
ENDBRANCH  22  24
BRANCH  23  26
ATOM     26  O2* UNL     1       1.680   3.203  17.863  0.00  0.00    +0.000 OA
ATOM     27  H2* UNL     1       1.964   2.330  18.210  0.00  0.00    +0.000 HD
ENDBRANCH  23  26
BRANCH  21  28
ATOM     28  C5* UNL     1       5.849   5.032  17.137  0.00  0.00    +0.000 C 
BRANCH  28  29
ATOM     29  O5* UNL     1       6.044   6.266  17.823  0.00  0.00    +0.000 OA
ATOM     30  H5* UNL     1       5.333   6.319  18.492  0.00  0.00    +0.000 HD
ENDBRANCH  28  29
ENDBRANCH  21  28
ENDBRANCH   9  19
TORSDOF 6
ENDMDL
MODEL 7
REMARK VINA RESULT:      -7.0      3.249      8.226
REMARK  Name = 
REMARK  7 active torsions:
REMARK  status: ('A' for Active; 'I' for Inactive)
REMARK    1  A    between atoms: C_1  and  C_2
REMARK    2  A    between atoms: N_7  and  C_8
REMARK    3  A    between atoms: N_16  and  C1*_17
REMARK    4  A    between atoms: C4*_19  and  C5*_20
REMARK    5  A    between atoms: C5*_20  and  O5*_21
REMARK    6  A    between atoms: C3*_22  and  O3*_23
REMARK    7  A    between atoms: C2*_24  and  O2*_25
REMARK                            x       y       z     vdW  Elec       q    Type
REMARK                         _______ _______ _______ _____ _____    ______ ____
ROOT
ATOM      1  C   UNL     1       0.908  10.268  20.114  0.00  0.00    +0.000 A 
ATOM      2  N   UNL     1       0.386   9.893  21.318  0.00  0.00    +0.000 NA
ATOM      3  C   UNL     1       0.512   8.622  21.739  0.00  0.00    +0.000 A 
ATOM      4  N   UNL     1       1.104   7.592  21.104  0.00  0.00    +0.000 NA
ATOM      5  C   UNL     1       1.577   7.976  19.911  0.00  0.00    +0.000 A 
ATOM      6  C   UNL     1       1.523   9.244  19.348  0.00  0.00    +0.000 A 
ATOM      7  N   UNL     1       2.126   9.236  18.100  0.00  0.00    +0.000 NA
ATOM      8  C   UNL     1       2.551   8.004  17.931  0.00  0.00    +0.000 A 
ATOM      9  N   UNL     1       2.253   7.208  19.004  0.00  0.00    +0.000 N 
ENDROOT
BRANCH   1  16
ATOM     10  C   UNL     1      -0.228  16.380  18.399  0.00  0.00    +0.000 C 
ATOM     11  C   UNL     1       1.073  15.652  18.616  0.00  0.00    +0.000 C 
ATOM     12  O   UNL     1       2.136  16.273  18.629  0.00  0.00    +0.000 OA
ATOM     13  N   UNL     1       0.995  14.294  18.856  0.00  0.00    +0.000 N 
ATOM     14  C   UNL     1       2.231  13.548  19.134  0.00  0.00    +0.000 C 
ATOM     15  C   UNL     1       2.002  12.457  20.193  0.00  0.00    +0.000 C 
ATOM     16  N   UNL     1       0.874  11.610  19.783  0.00  0.00    +0.000 N 
ATOM     17  C   UNL     1      -0.388  12.318  19.552  0.00  0.00    +0.000 C 
ATOM     18  C   UNL     1      -0.165  13.451  18.530  0.00  0.00    +0.000 C 
ENDBRANCH   1  16
BRANCH   9  19
ATOM     19  C1* UNL     1       2.655   5.828  19.147  0.00  0.00    +0.000 C 
ATOM     20  O4* UNL     1       3.977   5.760  19.723  0.00  0.00    +0.000 OA
ATOM     21  C4* UNL     1       4.706   4.692  19.068  0.00  0.00    +0.000 C 
ATOM     22  C3* UNL     1       3.704   3.952  18.183  0.00  0.00    +0.000 C 
ATOM     23  C2* UNL     1       2.673   5.020  17.850  0.00  0.00    +0.000 C 
BRANCH  22  24
ATOM     24  O3* UNL     1       3.023   2.902  18.897  0.00  0.00    +0.000 OA
ATOM     25  H3* UNL     1       2.475   3.297  19.603  0.00  0.00    +0.000 HD
ENDBRANCH  22  24
BRANCH  23  26
ATOM     26  O2* UNL     1       1.402   4.446  17.547  0.00  0.00    +0.000 OA
ATOM     27  H2* UNL     1       0.741   5.159  17.680  0.00  0.00    +0.000 HD
ENDBRANCH  23  26
BRANCH  21  28
ATOM     28  C5* UNL     1       5.875   5.289  18.281  0.00  0.00    +0.000 C 
BRANCH  28  29
ATOM     29  O5* UNL     1       6.892   4.306  18.110  0.00  0.00    +0.000 OA
ATOM     30  H5* UNL     1       7.477   4.384  18.889  0.00  0.00    +0.000 HD
ENDBRANCH  28  29
ENDBRANCH  21  28
ENDBRANCH   9  19
TORSDOF 6
ENDMDL
MODEL 8
REMARK VINA RESULT:      -7.0      3.241      8.349
REMARK  Name = 
REMARK  7 active torsions:
REMARK  status: ('A' for Active; 'I' for Inactive)
REMARK    1  A    between atoms: C_1  and  C_2
REMARK    2  A    between atoms: N_7  and  C_8
REMARK    3  A    between atoms: N_16  and  C1*_17
REMARK    4  A    between atoms: C4*_19  and  C5*_20
REMARK    5  A    between atoms: C5*_20  and  O5*_21
REMARK    6  A    between atoms: C3*_22  and  O3*_23
REMARK    7  A    between atoms: C2*_24  and  O2*_25
REMARK                            x       y       z     vdW  Elec       q    Type
REMARK                         _______ _______ _______ _____ _____    ______ ____
ROOT
ATOM      1  C   UNL     1       0.935  10.388  20.024  0.00  0.00    +0.000 A 
ATOM      2  N   UNL     1       0.484  10.081  21.276  0.00  0.00    +0.000 NA
ATOM      3  C   UNL     1       0.610   8.828  21.747  0.00  0.00    +0.000 A 
ATOM      4  N   UNL     1       1.138   7.756  21.125  0.00  0.00    +0.000 NA
ATOM      5  C   UNL     1       1.541   8.075  19.887  0.00  0.00    +0.000 A 
ATOM      6  C   UNL     1       1.477   9.316  19.269  0.00  0.00    +0.000 A 
ATOM      7  N   UNL     1       1.997   9.237  17.988  0.00  0.00    +0.000 NA
ATOM      8  C   UNL     1       2.385   7.989  17.849  0.00  0.00    +0.000 A 
ATOM      9  N   UNL     1       2.141   7.250  18.976  0.00  0.00    +0.000 N 
ENDROOT
BRANCH   1  16
ATOM     10  C   UNL     1       1.798  16.558  18.360  0.00  0.00    +0.000 C 
ATOM     11  C   UNL     1       0.533  15.788  18.628  0.00  0.00    +0.000 C 
ATOM     12  O   UNL     1      -0.563  16.290  18.381  0.00  0.00    +0.000 OA
ATOM     13  N   UNL     1       0.677  14.496  19.097  0.00  0.00    +0.000 N 
ATOM     14  C   UNL     1      -0.526  13.680  19.317  0.00  0.00    +0.000 C 
ATOM     15  C   UNL     1      -0.286  12.210  18.935  0.00  0.00    +0.000 C 
ATOM     16  N   UNL     1       0.907  11.715  19.634  0.00  0.00    +0.000 N 
ATOM     17  C   UNL     1       2.136  12.475  19.391  0.00  0.00    +0.000 C 
ATOM     18  C   UNL     1       1.897  13.962  19.719  0.00  0.00    +0.000 C 
ENDBRANCH   1  16
BRANCH   9  19
ATOM     19  C1* UNL     1       2.522   5.869  19.157  0.00  0.00    +0.000 C 
ATOM     20  O4* UNL     1       3.806   5.797  19.815  0.00  0.00    +0.000 OA
ATOM     21  C4* UNL     1       4.565   4.717  19.217  0.00  0.00    +0.000 C 
ATOM     22  C3* UNL     1       3.614   3.975  18.279  0.00  0.00    +0.000 C 
ATOM     23  C2* UNL     1       2.614   5.047  17.872  0.00  0.00    +0.000 C 
BRANCH  22  24
ATOM     24  O3* UNL     1       2.882   2.938  18.960  0.00  0.00    +0.000 OA
ATOM     25  H3* UNL     1       2.146   3.340  19.463  0.00  0.00    +0.000 HD
ENDBRANCH  22  24
BRANCH  23  26
ATOM     26  O2* UNL     1       1.360   4.478  17.497  0.00  0.00    +0.000 OA
ATOM     27  H2* UNL     1       1.540   3.540  17.274  0.00  0.00    +0.000 HD
ENDBRANCH  23  26
BRANCH  21  28
ATOM     28  C5* UNL     1       5.785   5.297  18.498  0.00  0.00    +0.000 C 
BRANCH  28  29
ATOM     29  O5* UNL     1       6.744   4.268  18.272  0.00  0.00    +0.000 OA
ATOM     30  H5* UNL     1       7.413   4.649  17.670  0.00  0.00    +0.000 HD
ENDBRANCH  28  29
ENDBRANCH  21  28
ENDBRANCH   9  19
TORSDOF 6
ENDMDL
MODEL 9
REMARK VINA RESULT:      -7.0      3.347      8.074
REMARK  Name = 
REMARK  7 active torsions:
REMARK  status: ('A' for Active; 'I' for Inactive)
REMARK    1  A    between atoms: C_1  and  C_2
REMARK    2  A    between atoms: N_7  and  C_8
REMARK    3  A    between atoms: N_16  and  C1*_17
REMARK    4  A    between atoms: C4*_19  and  C5*_20
REMARK    5  A    between atoms: C5*_20  and  O5*_21
REMARK    6  A    between atoms: C3*_22  and  O3*_23
REMARK    7  A    between atoms: C2*_24  and  O2*_25
REMARK                            x       y       z     vdW  Elec       q    Type
REMARK                         _______ _______ _______ _____ _____    ______ ____
ROOT
ATOM      1  C   UNL     1       1.102   9.757  19.965  0.00  0.00    +0.000 A 
ATOM      2  N   UNL     1       0.690   9.172  21.128  0.00  0.00    +0.000 NA
ATOM      3  C   UNL     1       0.961   7.875  21.359  0.00  0.00    +0.000 A 
ATOM      4  N   UNL     1       1.608   7.006  20.560  0.00  0.00    +0.000 NA
ATOM      5  C   UNL     1       1.971   7.594  19.412  0.00  0.00    +0.000 A 
ATOM      6  C   UNL     1       1.764   8.914  19.035  0.00  0.00    +0.000 A 
ATOM      7  N   UNL     1       2.290   9.136  17.773  0.00  0.00    +0.000 NA
ATOM      8  C   UNL     1       2.819   7.989  17.413  0.00  0.00    +0.000 A 
ATOM      9  N   UNL     1       2.662   7.028  18.376  0.00  0.00    +0.000 N 
ENDROOT
BRANCH   1  16
ATOM     10  C   UNL     1      -0.352  15.882  18.568  0.00  0.00    +0.000 C 
ATOM     11  C   UNL     1       0.711  15.313  19.470  0.00  0.00    +0.000 C 
ATOM     12  O   UNL     1       1.361  16.054  20.207  0.00  0.00    +0.000 OA
ATOM     13  N   UNL     1       0.862  13.939  19.465  0.00  0.00    +0.000 N 
ATOM     14  C   UNL     1       1.844  13.328  20.373  0.00  0.00    +0.000 C 
ATOM     15  C   UNL     1       1.332  11.992  20.937  0.00  0.00    +0.000 C 
ATOM     16  N   UNL     1       0.922  11.121  19.828  0.00  0.00    +0.000 N 
ATOM     17  C   UNL     1      -0.098  11.681  18.937  0.00  0.00    +0.000 C 
ATOM     18  C   UNL     1       0.377  13.047  18.402  0.00  0.00    +0.000 C 
ENDBRANCH   1  16
BRANCH   9  19
ATOM     19  C1* UNL     1       3.200   5.690  18.305  0.00  0.00    +0.000 C 
ATOM     20  O4* UNL     1       2.135   4.726  18.454  0.00  0.00    +0.000 OA
ATOM     21  C4* UNL     1       2.624   3.629  19.267  0.00  0.00    +0.000 C 
ATOM     22  C3* UNL     1       4.124   3.854  19.457  0.00  0.00    +0.000 C 
ATOM     23  C2* UNL     1       4.269   5.364  19.348  0.00  0.00    +0.000 C 
BRANCH  22  24
ATOM     24  O3* UNL     1       4.898   3.268  18.393  0.00  0.00    +0.000 OA
ATOM     25  H3* UNL     1       5.637   2.756  18.777  0.00  0.00    +0.000 HD
ENDBRANCH  22  24
BRANCH  23  26
ATOM     26  O2* UNL     1       5.579   5.736  18.920  0.00  0.00    +0.000 OA
ATOM     27  H2* UNL     1       6.150   4.953  19.075  0.00  0.00    +0.000 HD
ENDBRANCH  23  26
BRANCH  21  28
ATOM     28  C5* UNL     1       1.851   3.597  20.587  0.00  0.00    +0.000 C 
BRANCH  28  29
ATOM     29  O5* UNL     1       0.518   4.056  20.374  0.00  0.00    +0.000 OA
ATOM     30  H5* UNL     1       0.110   3.420  19.755  0.00  0.00    +0.000 HD
ENDBRANCH  28  29
ENDBRANCH  21  28
ENDBRANCH   9  19
TORSDOF 6
ENDMDL
