MODEL 1
REMARK VINA RESULT:      -9.4      0.000      0.000
REMARK  Name = 
REMARK  8 active torsions:
REMARK  status: ('A' for Active; 'I' for Inactive)
REMARK    1  A    between atoms: C_1  and  C_2
REMARK    2  A    between atoms: C_5  and  C_6
REMARK    3  A    between atoms: C_6  and  C_7
REMARK    4  A    between atoms: C_7  and  N_8
REMARK    5  A    between atoms: N_8  and  C_9
REMARK    6  A    between atoms: C_9  and  C_10
REMARK    7  A    between atoms: C_9  and  C_17
REMARK    8  A    between atoms: C_20  and  C_21
REMARK                            x       y       z     vdW  Elec       q    Type
REMARK                         _______ _______ _______ _____ _____    ______ ____
ROOT
ATOM      1  C   UNL     1       6.504   6.171  16.491  0.00  0.00    +0.000 C 
ENDROOT
BRANCH   1   2
ATOM      2  C   UNL     1       6.444   5.382  15.183  0.00  0.00    +0.000 A 
ATOM      3  C   UNL     1       7.488   5.423  14.241  0.00  0.00    +0.000 A 
ATOM      4  C   UNL     1       7.439   4.633  13.089  0.00  0.00    +0.000 A 
ATOM      5  C   UNL     1       6.344   3.807  12.867  0.00  0.00    +0.000 A 
ATOM      6  F   UNL     1       6.307   3.035  11.773  0.00  0.00    +0.000 F 
ATOM      7  C   UNL     1       5.291   3.762  13.770  0.00  0.00    +0.000 A 
ATOM      8  C   UNL     1       5.339   4.547  14.924  0.00  0.00    +0.000 A 
ENDBRANCH   1   2
BRANCH   1   9
ATOM      9  C   UNL     1       6.022   5.329  17.650  0.00  0.00    +0.000 A 
ATOM     10  N   UNL     1       6.733   4.826  18.642  0.00  0.00    +0.000 NA
ATOM     11  N   UNL     1       5.844   4.183  19.474  0.00  0.00    +0.000 NA
ATOM     12  C   UNL     1       4.651   4.306  18.923  0.00  0.00    +0.000 A 
ATOM     13  O   UNL     1       4.683   5.046  17.767  0.00  0.00    +0.000 OA
BRANCH  12  14
ATOM     14  C   UNL     1       3.359   3.847  19.415  0.00  0.00    +0.000 A 
ATOM     15  C   UNL     1       2.628   4.714  20.253  0.00  0.00    +0.000 A 
ATOM     16  C   UNL     1       1.386   4.345  20.779  0.00  0.00    +0.000 A 
ATOM     17  C   UNL     1       0.854   3.091  20.486  0.00  0.00    +0.000 A 
ATOM     18  C   UNL     1       1.569   2.213  19.672  0.00  0.00    +0.000 A 
ATOM     19  C   UNL     1       2.814   2.582  19.142  0.00  0.00    +0.000 A 
ATOM     20 CL   UNL     1       3.637   1.379  18.208  0.00  0.00    +0.000 Cl
ENDBRANCH  12  14
ENDBRANCH   1   9
BRANCH   1  21
ATOM     21  N   UNL     1       7.822   6.830  16.734  0.00  0.00    +0.000 NA
ATOM     22  H   UNL     1       8.362   6.226  17.357  0.00  0.00    +0.000 HD
BRANCH  21  23
ATOM     23  C   UNL     1       7.624   8.136  17.393  0.00  0.00    +0.000 C 
BRANCH  23  24
ATOM     24  C   UNL     1       8.499   8.366  18.640  0.00  0.00    +0.000 C 
BRANCH  24  29
ATOM     25  C   UNL     1       9.765  14.055  19.071  0.00  0.00    +0.000 C 
ATOM     26  C   UNL     1       9.467  12.588  18.962  0.00  0.00    +0.000 A 
ATOM     27  C   UNL     1       9.808  11.702  19.989  0.00  0.00    +0.000 A 
ATOM     28  C   UNL     1       9.522  10.335  19.876  0.00  0.00    +0.000 A 
ATOM     29  C   UNL     1       8.894   9.828  18.731  0.00  0.00    +0.000 A 
ATOM     30  C   UNL     1       8.566  10.717  17.698  0.00  0.00    +0.000 A 
ATOM     31  C   UNL     1       8.853  12.082  17.811  0.00  0.00    +0.000 A 
ENDBRANCH  24  29
ENDBRANCH  23  24
ENDBRANCH  21  23
ENDBRANCH   1  21
TORSDOF 7
ENDMDL
MODEL 2
REMARK VINA RESULT:      -9.1      4.472      7.240
REMARK  Name = 
REMARK  8 active torsions:
REMARK  status: ('A' for Active; 'I' for Inactive)
REMARK    1  A    between atoms: C_1  and  C_2
REMARK    2  A    between atoms: C_5  and  C_6
REMARK    3  A    between atoms: C_6  and  C_7
REMARK    4  A    between atoms: C_7  and  N_8
REMARK    5  A    between atoms: N_8  and  C_9
REMARK    6  A    between atoms: C_9  and  C_10
REMARK    7  A    between atoms: C_9  and  C_17
REMARK    8  A    between atoms: C_20  and  C_21
REMARK                            x       y       z     vdW  Elec       q    Type
REMARK                         _______ _______ _______ _____ _____    ______ ____
ROOT
ATOM      1  C   UNL     1       3.420   6.143  18.798  0.00  0.00    +0.000 C 
ENDROOT
BRANCH   1   2
ATOM      2  C   UNL     1       2.557   4.883  18.711  0.00  0.00    +0.000 A 
ATOM      3  C   UNL     1       2.680   3.969  17.649  0.00  0.00    +0.000 A 
ATOM      4  C   UNL     1       1.931   2.789  17.635  0.00  0.00    +0.000 A 
ATOM      5  C   UNL     1       1.050   2.521  18.675  0.00  0.00    +0.000 A 
ATOM      6  F   UNL     1       0.347   1.381  18.671  0.00  0.00    +0.000 F 
ATOM      7  C   UNL     1       0.894   3.415  19.725  0.00  0.00    +0.000 A 
ATOM      8  C   UNL     1       1.643   4.593  19.744  0.00  0.00    +0.000 A 
ENDBRANCH   1   2
BRANCH   1   9
ATOM      9  C   UNL     1       2.558   7.381  18.897  0.00  0.00    +0.000 A 
ATOM     10  N   UNL     1       2.174   8.185  17.924  0.00  0.00    +0.000 NA
ATOM     11  N   UNL     1       1.360   9.135  18.500  0.00  0.00    +0.000 NA
ATOM     12  C   UNL     1       1.324   8.871  19.792  0.00  0.00    +0.000 A 
ATOM     13  O   UNL     1       2.047   7.750  20.118  0.00  0.00    +0.000 OA
BRANCH  12  14
ATOM     14  C   UNL     1       0.577   9.543  20.848  0.00  0.00    +0.000 A 
ATOM     15  C   UNL     1       0.597   8.968  22.136  0.00  0.00    +0.000 A 
ATOM     16  C   UNL     1      -0.104   9.541  23.201  0.00  0.00    +0.000 A 
ATOM     17  C   UNL     1      -0.852  10.698  22.997  0.00  0.00    +0.000 A 
ATOM     18  C   UNL     1      -0.898  11.272  21.727  0.00  0.00    +0.000 A 
ATOM     19  C   UNL     1      -0.194  10.700  20.657  0.00  0.00    +0.000 A 
ATOM     20 CL   UNL     1      -0.389  11.463  19.116  0.00  0.00    +0.000 Cl
ENDBRANCH  12  14
ENDBRANCH   1   9
BRANCH   1  21
ATOM     21  N   UNL     1       4.487   6.067  19.840  0.00  0.00    +0.000 NA
ATOM     22  H   UNL     1       4.731   7.023  20.104  0.00  0.00    +0.000 HD
BRANCH  21  23
ATOM     23  C   UNL     1       5.687   5.405  19.292  0.00  0.00    +0.000 C 
BRANCH  23  24
ATOM     24  C   UNL     1       6.402   6.190  18.177  0.00  0.00    +0.000 C 
BRANCH  24  29
ATOM     25  C   UNL     1       5.765   3.701  12.928  0.00  0.00    +0.000 C 
ATOM     26  C   UNL     1       5.916   4.318  14.288  0.00  0.00    +0.000 A 
ATOM     27  C   UNL     1       6.694   3.708  15.277  0.00  0.00    +0.000 A 
ATOM     28  C   UNL     1       6.830   4.295  16.541  0.00  0.00    +0.000 A 
ATOM     29  C   UNL     1       6.186   5.502  16.841  0.00  0.00    +0.000 A 
ATOM     30  C   UNL     1       5.397   6.105  15.852  0.00  0.00    +0.000 A 
ATOM     31  C   UNL     1       5.260   5.517  14.590  0.00  0.00    +0.000 A 
ENDBRANCH  24  29
ENDBRANCH  23  24
ENDBRANCH  21  23
ENDBRANCH   1  21
TORSDOF 7
ENDMDL
MODEL 3
REMARK VINA RESULT:      -8.9      4.480      7.516
REMARK  Name = 
REMARK  8 active torsions:
REMARK  status: ('A' for Active; 'I' for Inactive)
REMARK    1  A    between atoms: C_1  and  C_2
REMARK    2  A    between atoms: C_5  and  C_6
REMARK    3  A    between atoms: C_6  and  C_7
REMARK    4  A    between atoms: C_7  and  N_8
REMARK    5  A    between atoms: N_8  and  C_9
REMARK    6  A    between atoms: C_9  and  C_10
REMARK    7  A    between atoms: C_9  and  C_17
REMARK    8  A    between atoms: C_20  and  C_21
REMARK                            x       y       z     vdW  Elec       q    Type
REMARK                         _______ _______ _______ _____ _____    ______ ____
ROOT
ATOM      1  C   UNL     1       3.538   6.339  17.938  0.00  0.00    +0.000 C 
ENDROOT
BRANCH   1   2
ATOM      2  C   UNL     1       2.896   5.125  18.610  0.00  0.00    +0.000 A 
ATOM      3  C   UNL     1       3.235   4.734  19.918  0.00  0.00    +0.000 A 
ATOM      4  C   UNL     1       2.577   3.665  20.534  0.00  0.00    +0.000 A 
ATOM      5  C   UNL     1       1.586   2.977  19.844  0.00  0.00    +0.000 A 
ATOM      6  F   UNL     1       0.943   1.965  20.443  0.00  0.00    +0.000 F 
ATOM      7  C   UNL     1       1.246   3.330  18.546  0.00  0.00    +0.000 A 
ATOM      8  C   UNL     1       1.899   4.399  17.929  0.00  0.00    +0.000 A 
ENDBRANCH   1   2
BRANCH   1   9
ATOM      9  C   UNL     1       2.736   7.592  18.209  0.00  0.00    +0.000 A 
ATOM     10  N   UNL     1       2.413   8.550  17.361  0.00  0.00    +0.000 NA
ATOM     11  N   UNL     1       1.634   9.446  18.060  0.00  0.00    +0.000 NA
ATOM     12  C   UNL     1       1.557   8.995  19.298  0.00  0.00    +0.000 A 
ATOM     13  O   UNL     1       2.217   7.802  19.463  0.00  0.00    +0.000 OA
BRANCH  12  14
ATOM     14  C   UNL     1       0.821   9.540  20.431  0.00  0.00    +0.000 A 
ATOM     15  C   UNL     1       0.382   8.641  21.425  0.00  0.00    +0.000 A 
ATOM     16  C   UNL     1      -0.343   9.079  22.537  0.00  0.00    +0.000 A 
ATOM     17  C   UNL     1      -0.655  10.430  22.673  0.00  0.00    +0.000 A 
ATOM     18  C   UNL     1      -0.244  11.333  21.693  0.00  0.00    +0.000 A 
ATOM     19  C   UNL     1       0.484  10.895  20.577  0.00  0.00    +0.000 A 
ATOM     20 CL   UNL     1       0.873  12.098  19.394  0.00  0.00    +0.000 Cl
ENDBRANCH  12  14
ENDBRANCH   1   9
BRANCH   1  21
ATOM     21  N   UNL     1       4.996   6.484  18.229  0.00  0.00    +0.000 NA
ATOM     22  H   UNL     1       5.103   7.233  18.916  0.00  0.00    +0.000 HD
BRANCH  21  23
ATOM     23  C   UNL     1       5.724   6.860  17.000  0.00  0.00    +0.000 C 
BRANCH  23  24
ATOM     24  C   UNL     1       6.947   5.979  16.684  0.00  0.00    +0.000 C 
BRANCH  24  29
ATOM     25  C   UNL     1       5.695   2.927  11.859  0.00  0.00    +0.000 C 
ATOM     26  C   UNL     1       6.042   3.697  13.100  0.00  0.00    +0.000 A 
ATOM     27  C   UNL     1       7.142   4.560  13.133  0.00  0.00    +0.000 A 
ATOM     28  C   UNL     1       7.453   5.275  14.296  0.00  0.00    +0.000 A 
ATOM     29  C   UNL     1       6.672   5.138  15.450  0.00  0.00    +0.000 A 
ATOM     30  C   UNL     1       5.577   4.263  15.418  0.00  0.00    +0.000 A 
ATOM     31  C   UNL     1       5.268   3.548  14.257  0.00  0.00    +0.000 A 
ENDBRANCH  24  29
ENDBRANCH  23  24
ENDBRANCH  21  23
ENDBRANCH   1  21
TORSDOF 7
ENDMDL
MODEL 4
REMARK VINA RESULT:      -8.9      4.876      7.600
REMARK  Name = 
REMARK  8 active torsions:
REMARK  status: ('A' for Active; 'I' for Inactive)
REMARK    1  A    between atoms: C_1  and  C_2
REMARK    2  A    between atoms: C_5  and  C_6
REMARK    3  A    between atoms: C_6  and  C_7
REMARK    4  A    between atoms: C_7  and  N_8
REMARK    5  A    between atoms: N_8  and  C_9
REMARK    6  A    between atoms: C_9  and  C_10
REMARK    7  A    between atoms: C_9  and  C_17
REMARK    8  A    between atoms: C_20  and  C_21
REMARK                            x       y       z     vdW  Elec       q    Type
REMARK                         _______ _______ _______ _____ _____    ______ ____
ROOT
ATOM      1  C   UNL     1       3.009   6.764  17.914  0.00  0.00    +0.000 C 
ENDROOT
BRANCH   1   2
ATOM      2  C   UNL     1       2.418   5.557  18.643  0.00  0.00    +0.000 A 
ATOM      3  C   UNL     1       2.356   5.494  20.047  0.00  0.00    +0.000 A 
ATOM      4  C   UNL     1       1.742   4.411  20.685  0.00  0.00    +0.000 A 
ATOM      5  C   UNL     1       1.197   3.384  19.924  0.00  0.00    +0.000 A 
ATOM      6  F   UNL     1       0.591   2.357  20.536  0.00  0.00    +0.000 F 
ATOM      7  C   UNL     1       1.261   3.412  18.538  0.00  0.00    +0.000 A 
ATOM      8  C   UNL     1       1.871   4.493  17.898  0.00  0.00    +0.000 A 
ENDBRANCH   1   2
BRANCH   1   9
ATOM      9  C   UNL     1       2.294   8.036  18.309  0.00  0.00    +0.000 A 
ATOM     10  N   UNL     1       2.063   9.103  17.569  0.00  0.00    +0.000 NA
ATOM     11  N   UNL     1       1.335   9.972  18.351  0.00  0.00    +0.000 NA
ATOM     12  C   UNL     1       1.195   9.396  19.529  0.00  0.00    +0.000 A 
ATOM     13  O   UNL     1       1.762   8.146  19.571  0.00  0.00    +0.000 OA
BRANCH  12  14
ATOM     14  C   UNL     1       0.474   9.867  20.705  0.00  0.00    +0.000 A 
ATOM     15  C   UNL     1       0.638   9.150  21.908  0.00  0.00    +0.000 A 
ATOM     16  C   UNL     1      -0.029   9.527  23.078  0.00  0.00    +0.000 A 
ATOM     17  C   UNL     1      -0.885  10.626  23.065  0.00  0.00    +0.000 A 
ATOM     18  C   UNL     1      -1.072  11.338  21.881  0.00  0.00    +0.000 A 
ATOM     19  C   UNL     1      -0.404  10.963  20.706  0.00  0.00    +0.000 A 
ATOM     20 CL   UNL     1      -0.775  11.879  19.286  0.00  0.00    +0.000 Cl
ENDBRANCH  12  14
ENDBRANCH   1   9
BRANCH   1  21
ATOM     21  N   UNL     1       4.496   6.854  18.012  0.00  0.00    +0.000 NA
ATOM     22  H   UNL     1       4.877   6.749  17.070  0.00  0.00    +0.000 HD
BRANCH  21  23
ATOM     23  C   UNL     1       5.017   5.763  18.859  0.00  0.00    +0.000 C 
BRANCH  23  24
ATOM     24  C   UNL     1       6.332   5.134  18.361  0.00  0.00    +0.000 C 
BRANCH  24  29
ATOM     25  C   UNL     1       6.058   3.599  12.729  0.00  0.00    +0.000 C 
ATOM     26  C   UNL     1       6.104   4.006  14.173  0.00  0.00    +0.000 A 
ATOM     27  C   UNL     1       5.149   3.545  15.086  0.00  0.00    +0.000 A 
ATOM     28  C   UNL     1       5.204   3.930  16.431  0.00  0.00    +0.000 A 
ATOM     29  C   UNL     1       6.212   4.787  16.889  0.00  0.00    +0.000 A 
ATOM     30  C   UNL     1       7.160   5.258  15.969  0.00  0.00    +0.000 A 
ATOM     31  C   UNL     1       7.103   4.874  14.625  0.00  0.00    +0.000 A 
ENDBRANCH  24  29
ENDBRANCH  23  24
ENDBRANCH  21  23
ENDBRANCH   1  21
TORSDOF 7
ENDMDL
MODEL 5
REMARK VINA RESULT:      -8.8      1.341      1.606
REMARK  Name = 
REMARK  8 active torsions:
REMARK  status: ('A' for Active; 'I' for Inactive)
REMARK    1  A    between atoms: C_1  and  C_2
REMARK    2  A    between atoms: C_5  and  C_6
REMARK    3  A    between atoms: C_6  and  C_7
REMARK    4  A    between atoms: C_7  and  N_8
REMARK    5  A    between atoms: N_8  and  C_9
REMARK    6  A    between atoms: C_9  and  C_10
REMARK    7  A    between atoms: C_9  and  C_17
REMARK    8  A    between atoms: C_20  and  C_21
REMARK                            x       y       z     vdW  Elec       q    Type
REMARK                         _______ _______ _______ _____ _____    ______ ____
ROOT
ATOM      1  C   UNL     1       6.016   6.704  16.658  0.00  0.00    +0.000 C 
ENDROOT
BRANCH   1   2
ATOM      2  C   UNL     1       6.119   5.665  15.541  0.00  0.00    +0.000 A 
ATOM      3  C   UNL     1       5.043   4.823  15.207  0.00  0.00    +0.000 A 
ATOM      4  C   UNL     1       5.142   3.934  14.132  0.00  0.00    +0.000 A 
ATOM      5  C   UNL     1       6.317   3.876  13.393  0.00  0.00    +0.000 A 
ATOM      6  F   UNL     1       6.403   3.038  12.351  0.00  0.00    +0.000 F 
ATOM      7  C   UNL     1       7.401   4.681  13.713  0.00  0.00    +0.000 A 
ATOM      8  C   UNL     1       7.305   5.572  14.784  0.00  0.00    +0.000 A 
ENDBRANCH   1   2
BRANCH   1   9
ATOM      9  C   UNL     1       4.736   6.527  17.442  0.00  0.00    +0.000 A 
ATOM     10  N   UNL     1       3.727   7.370  17.554  0.00  0.00    +0.000 NA
ATOM     11  N   UNL     1       2.775   6.741  18.324  0.00  0.00    +0.000 NA
ATOM     12  C   UNL     1       3.274   5.567  18.661  0.00  0.00    +0.000 A 
ATOM     13  O   UNL     1       4.515   5.351  18.115  0.00  0.00    +0.000 OA
BRANCH  12  14
ATOM     14  C   UNL     1       2.661   4.495  19.434  0.00  0.00    +0.000 A 
ATOM     15  C   UNL     1       2.517   4.685  20.824  0.00  0.00    +0.000 A 
ATOM     16  C   UNL     1       1.953   3.701  21.641  0.00  0.00    +0.000 A 
ATOM     17  C   UNL     1       1.530   2.496  21.083  0.00  0.00    +0.000 A 
ATOM     18  C   UNL     1       1.679   2.282  19.713  0.00  0.00    +0.000 A 
ATOM     19  C   UNL     1       2.244   3.269  18.892  0.00  0.00    +0.000 A 
ATOM     20 CL   UNL     1       2.442   2.857  17.223  0.00  0.00    +0.000 Cl
ENDBRANCH  12  14
ENDBRANCH   1   9
BRANCH   1  21
ATOM     21  N   UNL     1       7.238   6.788  17.512  0.00  0.00    +0.000 NA
ATOM     22  H   UNL     1       6.987   6.462  18.447  0.00  0.00    +0.000 HD
BRANCH  21  23
ATOM     23  C   UNL     1       7.697   8.188  17.606  0.00  0.00    +0.000 C 
BRANCH  23  24
ATOM     24  C   UNL     1       8.654   8.474  18.779  0.00  0.00    +0.000 C 
BRANCH  24  29
ATOM     25  C   UNL     1       9.655  14.226  19.046  0.00  0.00    +0.000 C 
ATOM     26  C   UNL     1       9.425  12.744  18.979  0.00  0.00    +0.000 A 
ATOM     27  C   UNL     1       9.784  11.908  20.041  0.00  0.00    +0.000 A 
ATOM     28  C   UNL     1       9.562  10.527  19.968  0.00  0.00    +0.000 A 
ATOM     29  C   UNL     1       8.982   9.955  18.829  0.00  0.00    +0.000 A 
ATOM     30  C   UNL     1       8.636  10.794  17.761  0.00  0.00    +0.000 A 
ATOM     31  C   UNL     1       8.859  12.173  17.834  0.00  0.00    +0.000 A 
ENDBRANCH  24  29
ENDBRANCH  23  24
ENDBRANCH  21  23
ENDBRANCH   1  21
TORSDOF 7
ENDMDL
MODEL 6
REMARK VINA RESULT:      -8.8      4.849      7.632
REMARK  Name = 
REMARK  8 active torsions:
REMARK  status: ('A' for Active; 'I' for Inactive)
REMARK    1  A    between atoms: C_1  and  C_2
REMARK    2  A    between atoms: C_5  and  C_6
REMARK    3  A    between atoms: C_6  and  C_7
REMARK    4  A    between atoms: C_7  and  N_8
REMARK    5  A    between atoms: N_8  and  C_9
REMARK    6  A    between atoms: C_9  and  C_10
REMARK    7  A    between atoms: C_9  and  C_17
REMARK    8  A    between atoms: C_20  and  C_21
REMARK                            x       y       z     vdW  Elec       q    Type
REMARK                         _______ _______ _______ _____ _____    ______ ____
ROOT
ATOM      1  C   UNL     1       3.081   6.729  18.084  0.00  0.00    +0.000 C 
ENDROOT
BRANCH   1   2
ATOM      2  C   UNL     1       2.336   5.487  18.574  0.00  0.00    +0.000 A 
ATOM      3  C   UNL     1       1.924   4.471  17.692  0.00  0.00    +0.000 A 
ATOM      4  C   UNL     1       1.311   3.312  18.179  0.00  0.00    +0.000 A 
ATOM      5  C   UNL     1       1.099   3.167  19.544  0.00  0.00    +0.000 A 
ATOM      6  F   UNL     1       0.529   2.047  20.010  0.00  0.00    +0.000 F 
ATOM      7  C   UNL     1       1.478   4.162  20.433  0.00  0.00    +0.000 A 
ATOM      8  C   UNL     1       2.093   5.319  19.952  0.00  0.00    +0.000 A 
ENDBRANCH   1   2
BRANCH   1   9
ATOM      9  C   UNL     1       2.272   7.979  18.342  0.00  0.00    +0.000 A 
ATOM     10  N   UNL     1       1.854   8.873  17.466  0.00  0.00    +0.000 NA
ATOM     11  N   UNL     1       1.114   9.796  18.172  0.00  0.00    +0.000 NA
ATOM     12  C   UNL     1       1.154   9.427  19.438  0.00  0.00    +0.000 A 
ATOM     13  O   UNL     1       1.857   8.261  19.621  0.00  0.00    +0.000 OA
BRANCH  12  14
ATOM     14  C   UNL     1       0.503  10.030  20.593  0.00  0.00    +0.000 A 
ATOM     15  C   UNL     1       0.047   9.171  21.614  0.00  0.00    +0.000 A 
ATOM     16  C   UNL     1      -0.601   9.667  22.750  0.00  0.00    +0.000 A 
ATOM     17  C   UNL     1      -0.817  11.036  22.882  0.00  0.00    +0.000 A 
ATOM     18  C   UNL     1      -0.388  11.901  21.876  0.00  0.00    +0.000 A 
ATOM     19  C   UNL     1       0.263  11.406  20.736  0.00  0.00    +0.000 A 
ATOM     20 CL   UNL     1       0.681  12.570  19.525  0.00  0.00    +0.000 Cl
ENDBRANCH  12  14
ENDBRANCH   1   9
BRANCH   1  21
ATOM     21  N   UNL     1       4.491   6.813  18.571  0.00  0.00    +0.000 NA
ATOM     22  H   UNL     1       5.052   7.232  17.827  0.00  0.00    +0.000 HD
BRANCH  21  23
ATOM     23  C   UNL     1       5.012   5.461  18.853  0.00  0.00    +0.000 C 
BRANCH  23  24
ATOM     24  C   UNL     1       6.429   5.192  18.310  0.00  0.00    +0.000 C 
BRANCH  24  29
ATOM     25  C   UNL     1       5.935   3.619  12.703  0.00  0.00    +0.000 C 
ATOM     26  C   UNL     1       6.087   4.009  14.145  0.00  0.00    +0.000 A 
ATOM     27  C   UNL     1       7.148   4.815  14.569  0.00  0.00    +0.000 A 
ATOM     28  C   UNL     1       7.277   5.174  15.916  0.00  0.00    +0.000 A 
ATOM     29  C   UNL     1       6.348   4.731  16.866  0.00  0.00    +0.000 A 
ATOM     30  C   UNL     1       5.293   3.913  16.441  0.00  0.00    +0.000 A 
ATOM     31  C   UNL     1       5.166   3.553  15.094  0.00  0.00    +0.000 A 
ENDBRANCH  24  29
ENDBRANCH  23  24
ENDBRANCH  21  23
ENDBRANCH   1  21
TORSDOF 7
ENDMDL
MODEL 7
REMARK VINA RESULT:      -8.8      5.068      7.926
REMARK  Name = 
REMARK  8 active torsions:
REMARK  status: ('A' for Active; 'I' for Inactive)
REMARK    1  A    between atoms: C_1  and  C_2
REMARK    2  A    between atoms: C_5  and  C_6
REMARK    3  A    between atoms: C_6  and  C_7
REMARK    4  A    between atoms: C_7  and  N_8
REMARK    5  A    between atoms: N_8  and  C_9
REMARK    6  A    between atoms: C_9  and  C_10
REMARK    7  A    between atoms: C_9  and  C_17
REMARK    8  A    between atoms: C_20  and  C_21
REMARK                            x       y       z     vdW  Elec       q    Type
REMARK                         _______ _______ _______ _____ _____    ______ ____
ROOT
ATOM      1  C   UNL     1       2.728   7.167  17.772  0.00  0.00    +0.000 C 
ENDROOT
BRANCH   1   2
ATOM      2  C   UNL     1       2.179   5.980  18.564  0.00  0.00    +0.000 A 
ATOM      3  C   UNL     1       1.519   4.908  17.937  0.00  0.00    +0.000 A 
ATOM      4  C   UNL     1       1.095   3.801  18.679  0.00  0.00    +0.000 A 
ATOM      5  C   UNL     1       1.319   3.765  20.049  0.00  0.00    +0.000 A 
ATOM      6  F   UNL     1       0.930   2.695  20.755  0.00  0.00    +0.000 F 
ATOM      7  C   UNL     1       1.951   4.817  20.696  0.00  0.00    +0.000 A 
ATOM      8  C   UNL     1       2.378   5.923  19.958  0.00  0.00    +0.000 A 
ENDBRANCH   1   2
BRANCH   1   9
ATOM      9  C   UNL     1       2.103   8.462  18.240  0.00  0.00    +0.000 A 
ATOM     10  N   UNL     1       1.967   9.589  17.567  0.00  0.00    +0.000 NA
ATOM     11  N   UNL     1       1.292  10.460  18.395  0.00  0.00    +0.000 NA
ATOM     12  C   UNL     1       1.088   9.821  19.531  0.00  0.00    +0.000 A 
ATOM     13  O   UNL     1       1.559   8.532  19.499  0.00  0.00    +0.000 OA
BRANCH  12  14
ATOM     14  C   UNL     1       0.384  10.270  20.725  0.00  0.00    +0.000 A 
ATOM     15  C   UNL     1       0.077   9.308  21.709  0.00  0.00    +0.000 A 
ATOM     16  C   UNL     1      -0.610   9.652  22.877  0.00  0.00    +0.000 A 
ATOM     17  C   UNL     1      -1.015  10.969  23.081  0.00  0.00    +0.000 A 
ATOM     18  C   UNL     1      -0.735  11.933  22.113  0.00  0.00    +0.000 A 
ATOM     19  C   UNL     1      -0.046  11.590  20.940  0.00  0.00    +0.000 A 
ATOM     20 CL   UNL     1       0.177  12.857  19.783  0.00  0.00    +0.000 Cl
ENDBRANCH  12  14
ENDBRANCH   1   9
BRANCH   1  21
ATOM     21  N   UNL     1       4.219   7.207  17.707  0.00  0.00    +0.000 NA
ATOM     22  H   UNL     1       4.522   8.108  18.082  0.00  0.00    +0.000 HD
BRANCH  21  23
ATOM     23  C   UNL     1       4.670   7.100  16.306  0.00  0.00    +0.000 C 
BRANCH  23  24
ATOM     24  C   UNL     1       5.532   5.860  16.001  0.00  0.00    +0.000 C 
BRANCH  24  29
ATOM     25  C   UNL     1       4.414   1.914  20.164  0.00  0.00    +0.000 C 
ATOM     26  C   UNL     1       4.715   2.908  19.080  0.00  0.00    +0.000 A 
ATOM     27  C   UNL     1       4.256   2.715  17.773  0.00  0.00    +0.000 A 
ATOM     28  C   UNL     1       4.543   3.652  16.772  0.00  0.00    +0.000 A 
ATOM     29  C   UNL     1       5.297   4.796  17.058  0.00  0.00    +0.000 A 
ATOM     30  C   UNL     1       5.767   4.980  18.365  0.00  0.00    +0.000 A 
ATOM     31  C   UNL     1       5.482   4.043  19.365  0.00  0.00    +0.000 A 
ENDBRANCH  24  29
ENDBRANCH  23  24
ENDBRANCH  21  23
ENDBRANCH   1  21
TORSDOF 7
ENDMDL
MODEL 8
REMARK VINA RESULT:      -8.7      4.981      7.982
REMARK  Name = 
REMARK  8 active torsions:
REMARK  status: ('A' for Active; 'I' for Inactive)
REMARK    1  A    between atoms: C_1  and  C_2
REMARK    2  A    between atoms: C_5  and  C_6
REMARK    3  A    between atoms: C_6  and  C_7
REMARK    4  A    between atoms: C_7  and  N_8
REMARK    5  A    between atoms: N_8  and  C_9
REMARK    6  A    between atoms: C_9  and  C_10
REMARK    7  A    between atoms: C_9  and  C_17
REMARK    8  A    between atoms: C_20  and  C_21
REMARK                            x       y       z     vdW  Elec       q    Type
REMARK                         _______ _______ _______ _____ _____    ______ ____
ROOT
ATOM      1  C   UNL     1       2.834   7.435  17.883  0.00  0.00    +0.000 C 
ENDROOT
BRANCH   1   2
ATOM      2  C   UNL     1       2.337   6.227  18.679  0.00  0.00    +0.000 A 
ATOM      3  C   UNL     1       2.521   6.125  20.069  0.00  0.00    +0.000 A 
ATOM      4  C   UNL     1       1.990   5.045  20.781  0.00  0.00    +0.000 A 
ATOM      5  C   UNL     1       1.282   4.058  20.106  0.00  0.00    +0.000 A 
ATOM      6  F   UNL     1       0.757   3.034  20.792  0.00  0.00    +0.000 F 
ATOM      7  C   UNL     1       1.102   4.124  18.732  0.00  0.00    +0.000 A 
ATOM      8  C   UNL     1       1.628   5.203  18.018  0.00  0.00    +0.000 A 
ENDBRANCH   1   2
BRANCH   1   9
ATOM      9  C   UNL     1       2.063   8.680  18.258  0.00  0.00    +0.000 A 
ATOM     10  N   UNL     1       1.832   9.747  17.517  0.00  0.00    +0.000 NA
ATOM     11  N   UNL     1       1.043  10.586  18.273  0.00  0.00    +0.000 NA
ATOM     12  C   UNL     1       0.870   9.994  19.439  0.00  0.00    +0.000 A 
ATOM     13  O   UNL     1       1.473   8.762  19.495  0.00  0.00    +0.000 OA
BRANCH  12  14
ATOM     14  C   UNL     1       0.084  10.432  20.586  0.00  0.00    +0.000 A 
ATOM     15  C   UNL     1      -0.886  11.433  20.374  0.00  0.00    +0.000 A 
ATOM     16  C   UNL     1      -1.673  11.920  21.422  0.00  0.00    +0.000 A 
ATOM     17  C   UNL     1      -1.497  11.421  22.711  0.00  0.00    +0.000 A 
ATOM     18  C   UNL     1      -0.532  10.442  22.944  0.00  0.00    +0.000 A 
ATOM     19  C   UNL     1       0.258   9.951  21.893  0.00  0.00    +0.000 A 
ATOM     20 CL   UNL     1       1.469   8.792  22.321  0.00  0.00    +0.000 Cl
ENDBRANCH  12  14
ENDBRANCH   1   9
BRANCH   1  21
ATOM     21  N   UNL     1       4.316   7.610  17.923  0.00  0.00    +0.000 NA
ATOM     22  H   UNL     1       4.509   8.610  18.000  0.00  0.00    +0.000 HD
BRANCH  21  23
ATOM     23  C   UNL     1       4.922   7.105  16.675  0.00  0.00    +0.000 C 
BRANCH  23  24
ATOM     24  C   UNL     1       6.022   6.046  16.877  0.00  0.00    +0.000 C 
BRANCH  24  29
ATOM     25  C   UNL     1       3.443   1.233  18.960  0.00  0.00    +0.000 C 
ATOM     26  C   UNL     1       4.122   2.453  18.409  0.00  0.00    +0.000 A 
ATOM     27  C   UNL     1       4.048   2.770  17.049  0.00  0.00    +0.000 A 
ATOM     28  C   UNL     1       4.684   3.913  16.547  0.00  0.00    +0.000 A 
ATOM     29  C   UNL     1       5.409   4.758  17.396  0.00  0.00    +0.000 A 
ATOM     30  C   UNL     1       5.492   4.431  18.756  0.00  0.00    +0.000 A 
ATOM     31  C   UNL     1       4.858   3.288  19.257  0.00  0.00    +0.000 A 
ENDBRANCH  24  29
ENDBRANCH  23  24
ENDBRANCH  21  23
ENDBRANCH   1  21
TORSDOF 7
ENDMDL
MODEL 9
REMARK VINA RESULT:      -8.7      5.514      8.120
REMARK  Name = 
REMARK  8 active torsions:
REMARK  status: ('A' for Active; 'I' for Inactive)
REMARK    1  A    between atoms: C_1  and  C_2
REMARK    2  A    between atoms: C_5  and  C_6
REMARK    3  A    between atoms: C_6  and  C_7
REMARK    4  A    between atoms: C_7  and  N_8
REMARK    5  A    between atoms: N_8  and  C_9
REMARK    6  A    between atoms: C_9  and  C_10
REMARK    7  A    between atoms: C_9  and  C_17
REMARK    8  A    between atoms: C_20  and  C_21
REMARK                            x       y       z     vdW  Elec       q    Type
REMARK                         _______ _______ _______ _____ _____    ______ ____
ROOT
ATOM      1  C   UNL     1       2.687   7.401  17.520  0.00  0.00    +0.000 C 
ENDROOT
BRANCH   1   2
ATOM      2  C   UNL     1       2.251   6.261  18.441  0.00  0.00    +0.000 A 
ATOM      3  C   UNL     1       2.353   6.355  19.840  0.00  0.00    +0.000 A 
ATOM      4  C   UNL     1       1.877   5.327  20.660  0.00  0.00    +0.000 A 
ATOM      5  C   UNL     1       1.307   4.198  20.085  0.00  0.00    +0.000 A 
ATOM      6  F   UNL     1       0.833   3.222  20.871  0.00  0.00    +0.000 F 
ATOM      7  C   UNL     1       1.212   4.070  18.706  0.00  0.00    +0.000 A 
ATOM      8  C   UNL     1       1.684   5.097  17.885  0.00  0.00    +0.000 A 
ENDBRANCH   1   2
BRANCH   1   9
ATOM      9  C   UNL     1       1.946   8.676  17.853  0.00  0.00    +0.000 A 
ATOM     10  N   UNL     1       2.451   9.844  18.201  0.00  0.00    +0.000 NA
ATOM     11  N   UNL     1       1.385  10.704  18.348  0.00  0.00    +0.000 NA
ATOM     12  C   UNL     1       0.295  10.000  18.112  0.00  0.00    +0.000 A 
ATOM     13  O   UNL     1       0.575   8.701  17.767  0.00  0.00    +0.000 OA
BRANCH  12  14
ATOM     14  C   UNL     1      -1.095  10.436  18.092  0.00  0.00    +0.000 A 
ATOM     15  C   UNL     1      -1.942   9.891  17.104  0.00  0.00    +0.000 A 
ATOM     16  C   UNL     1      -3.285  10.267  17.006  0.00  0.00    +0.000 A 
ATOM     17  C   UNL     1      -3.808  11.207  17.891  0.00  0.00    +0.000 A 
ATOM     18  C   UNL     1      -2.984  11.769  18.865  0.00  0.00    +0.000 A 
ATOM     19  C   UNL     1      -1.636  11.393  18.965  0.00  0.00    +0.000 A 
ATOM     20 CL   UNL     1      -0.698  12.215  20.166  0.00  0.00    +0.000 Cl
ENDBRANCH  12  14
ENDBRANCH   1   9
BRANCH   1  21
ATOM     21  N   UNL     1       4.169   7.572  17.437  0.00  0.00    +0.000 NA
ATOM     22  H   UNL     1       4.369   8.573  17.471  0.00  0.00    +0.000 HD
BRANCH  21  23
ATOM     23  C   UNL     1       4.672   7.031  16.158  0.00  0.00    +0.000 C 
BRANCH  23  24
ATOM     24  C   UNL     1       5.838   6.034  16.296  0.00  0.00    +0.000 C 
BRANCH  24  29
ATOM     25  C   UNL     1       4.239   2.045  20.257  0.00  0.00    +0.000 C 
ATOM     26  C   UNL     1       4.666   3.050  19.227  0.00  0.00    +0.000 A 
ATOM     27  C   UNL     1       4.406   2.850  17.868  0.00  0.00    +0.000 A 
ATOM     28  C   UNL     1       4.808   3.797  16.918  0.00  0.00    +0.000 A 
ATOM     29  C   UNL     1       5.482   4.961  17.309  0.00  0.00    +0.000 A 
ATOM     30  C   UNL     1       5.753   5.153  18.671  0.00  0.00    +0.000 A 
ATOM     31  C   UNL     1       5.352   4.205  19.619  0.00  0.00    +0.000 A 
ENDBRANCH  24  29
ENDBRANCH  23  24
ENDBRANCH  21  23
ENDBRANCH   1  21
TORSDOF 7
ENDMDL
