MODEL 1
REMARK VINA RESULT:      -7.9      0.000      0.000
REMARK  Name = 
REMARK  7 active torsions:
REMARK  status: ('A' for Active; 'I' for Inactive)
REMARK    1  A    between atoms: C_1  and  C_2
REMARK    2  A    between atoms: C_2  and  C_4
REMARK    3  A    between atoms: C_4  and  C_5
REMARK    4  A    between atoms: C_5  and  C_6
REMARK    5  A    between atoms: C_5  and  C_12
REMARK    6  A    between atoms: C_13  and  O_14
REMARK    7  A    between atoms: C_19  and  O_20
REMARK                            x       y       z     vdW  Elec       q    Type
REMARK                         _______ _______ _______ _____ _____    ______ ____
ROOT
ATOM      1  C   UNL     1       2.749   5.988  19.122  0.00  0.00    +0.000 A 
ATOM      2  C   UNL     1       2.799   7.126  18.408  0.00  0.00    +0.000 A 
ATOM      3  C   UNL     1       2.014   8.290  18.813  0.00  0.00    +0.000 A 
ATOM      4  C   UNL     1       1.745   9.367  17.962  0.00  0.00    +0.000 A 
ATOM      5  C   UNL     1       1.017  10.470  18.419  0.00  0.00    +0.000 A 
ATOM      6  C   UNL     1       0.588  10.528  19.746  0.00  0.00    +0.000 A 
ATOM      7  C   UNL     1       0.846   9.456  20.596  0.00  0.00    +0.000 A 
ATOM      8  C   UNL     1       1.519   8.333  20.111  0.00  0.00    +0.000 A 
ATOM      9  O   UNL     1       1.636   7.209  20.944  0.00  0.00    +0.000 OA
ATOM     10  C   UNL     1       1.942   5.981  20.378  0.00  0.00    +0.000 A 
ATOM     11  O   UNL     1       1.641   4.932  20.939  0.00  0.00    +0.000 OA
ENDROOT
BRANCH   2  12
ATOM     12  O   UNL     1       3.579   7.312  17.288  0.00  0.00    +0.000 OA
ATOM     13  H   UNL     1       3.100   6.983  16.508  0.00  0.00    +0.000 HD
ENDBRANCH   2  12
BRANCH   7  14
ATOM     14  O   UNL     1       0.441   9.491  21.898  0.00  0.00    +0.000 OA
ATOM     15  H   UNL     1      -0.425   9.929  21.948  0.00  0.00    +0.000 HD
ENDBRANCH   7  14
BRANCH   1  16
ATOM     16  C   UNL     1       3.413   4.660  18.751  0.00  0.00    +0.000 C 
BRANCH  16  17
ATOM     17  C   UNL     1       4.901   4.834  18.389  0.00  0.00    +0.000 A 
ATOM     18  C   UNL     1       5.442   4.402  17.167  0.00  0.00    +0.000 A 
ATOM     19  C   UNL     1       6.806   4.530  16.891  0.00  0.00    +0.000 A 
ATOM     20  C   UNL     1       7.658   5.094  17.832  0.00  0.00    +0.000 A 
ATOM     21  C   UNL     1       7.146   5.531  19.051  0.00  0.00    +0.000 A 
ATOM     22  C   UNL     1       5.781   5.399  19.330  0.00  0.00    +0.000 A 
ENDBRANCH  16  17
BRANCH  16  23
ATOM     23  C   UNL     1       2.624   3.880  17.677  0.00  0.00    +0.000 C 
BRANCH  23  25
ATOM     24  C   UNL     1       0.832   2.307  18.687  0.00  0.00    +0.000 C 
ATOM     25  C   UNL     1       2.185   2.483  18.057  0.00  0.00    +0.000 C 
ATOM     26  O   UNL     1       2.965   1.535  17.958  0.00  0.00    +0.000 OA
ENDBRANCH  23  25
ENDBRANCH  16  23
ENDBRANCH   1  16
TORSDOF 6
ENDMDL
MODEL 2
REMARK VINA RESULT:      -7.8      0.528      1.197
REMARK  Name = 
REMARK  7 active torsions:
REMARK  status: ('A' for Active; 'I' for Inactive)
REMARK    1  A    between atoms: C_1  and  C_2
REMARK    2  A    between atoms: C_2  and  C_4
REMARK    3  A    between atoms: C_4  and  C_5
REMARK    4  A    between atoms: C_5  and  C_6
REMARK    5  A    between atoms: C_5  and  C_12
REMARK    6  A    between atoms: C_13  and  O_14
REMARK    7  A    between atoms: C_19  and  O_20
REMARK                            x       y       z     vdW  Elec       q    Type
REMARK                         _______ _______ _______ _____ _____    ______ ____
ROOT
ATOM      1  C   UNL     1       2.761   5.985  19.138  0.00  0.00    +0.000 A 
ATOM      2  C   UNL     1       2.826   7.112  18.408  0.00  0.00    +0.000 A 
ATOM      3  C   UNL     1       2.043   8.287  18.785  0.00  0.00    +0.000 A 
ATOM      4  C   UNL     1       1.792   9.352  17.914  0.00  0.00    +0.000 A 
ATOM      5  C   UNL     1       1.064  10.466  18.346  0.00  0.00    +0.000 A 
ATOM      6  C   UNL     1       0.617  10.545  19.666  0.00  0.00    +0.000 A 
ATOM      7  C   UNL     1       0.858   9.485  20.535  0.00  0.00    +0.000 A 
ATOM      8  C   UNL     1       1.530   8.351  20.075  0.00  0.00    +0.000 A 
ATOM      9  O   UNL     1       1.630   7.239  20.926  0.00  0.00    +0.000 OA
ATOM     10  C   UNL     1       1.936   6.001  20.383  0.00  0.00    +0.000 A 
ATOM     11  O   UNL     1       1.622   4.962  20.955  0.00  0.00    +0.000 OA
ENDROOT
BRANCH   2  12
ATOM     12  O   UNL     1       3.623   7.277  17.296  0.00  0.00    +0.000 OA
ATOM     13  H   UNL     1       3.086   7.642  16.572  0.00  0.00    +0.000 HD
ENDBRANCH   2  12
BRANCH   7  14
ATOM     14  O   UNL     1       0.435   9.541  21.831  0.00  0.00    +0.000 OA
ATOM     15  H   UNL     1       0.056  10.419  22.002  0.00  0.00    +0.000 HD
ENDBRANCH   7  14
BRANCH   1  16
ATOM     16  C   UNL     1       3.422   4.649  18.796  0.00  0.00    +0.000 C 
BRANCH  16  17
ATOM     17  C   UNL     1       4.915   4.808  18.450  0.00  0.00    +0.000 A 
ATOM     18  C   UNL     1       5.839   5.406  19.323  0.00  0.00    +0.000 A 
ATOM     19  C   UNL     1       7.177   5.579  18.957  0.00  0.00    +0.000 A 
ATOM     20  C   UNL     1       7.618   5.158  17.710  0.00  0.00    +0.000 A 
ATOM     21  C   UNL     1       6.723   4.561  16.826  0.00  0.00    +0.000 A 
ATOM     22  C   UNL     1       5.382   4.391  17.190  0.00  0.00    +0.000 A 
ENDBRANCH  16  17
BRANCH  16  23
ATOM     23  C   UNL     1       2.641   3.855  17.724  0.00  0.00    +0.000 C 
BRANCH  23  25
ATOM     24  C   UNL     1       3.289   1.415  18.299  0.00  0.00    +0.000 C 
ATOM     25  C   UNL     1       2.220   2.454  18.108  0.00  0.00    +0.000 C 
ATOM     26  O   UNL     1       1.027   2.150  18.148  0.00  0.00    +0.000 OA
ENDBRANCH  23  25
ENDBRANCH  16  23
ENDBRANCH   1  16
TORSDOF 6
ENDMDL
MODEL 3
REMARK VINA RESULT:      -7.7      1.683      4.013
REMARK  Name = 
REMARK  7 active torsions:
REMARK  status: ('A' for Active; 'I' for Inactive)
REMARK    1  A    between atoms: C_1  and  C_2
REMARK    2  A    between atoms: C_2  and  C_4
REMARK    3  A    between atoms: C_4  and  C_5
REMARK    4  A    between atoms: C_5  and  C_6
REMARK    5  A    between atoms: C_5  and  C_12
REMARK    6  A    between atoms: C_13  and  O_14
REMARK    7  A    between atoms: C_19  and  O_20
REMARK                            x       y       z     vdW  Elec       q    Type
REMARK                         _______ _______ _______ _____ _____    ______ ____
ROOT
ATOM      1  C   UNL     1       2.846   6.890  18.870  0.00  0.00    +0.000 A 
ATOM      2  C   UNL     1       2.207   7.093  20.034  0.00  0.00    +0.000 A 
ATOM      3  C   UNL     1       1.513   8.354  20.289  0.00  0.00    +0.000 A 
ATOM      4  C   UNL     1       1.128   8.772  21.568  0.00  0.00    +0.000 A 
ATOM      5  C   UNL     1       0.434   9.974  21.743  0.00  0.00    +0.000 A 
ATOM      6  C   UNL     1       0.079  10.748  20.638  0.00  0.00    +0.000 A 
ATOM      7  C   UNL     1       0.465  10.341  19.364  0.00  0.00    +0.000 A 
ATOM      8  C   UNL     1       1.212   9.172  19.207  0.00  0.00    +0.000 A 
ATOM      9  O   UNL     1       1.714   8.862  17.933  0.00  0.00    +0.000 OA
ATOM     10  C   UNL     1       2.751   7.950  17.821  0.00  0.00    +0.000 A 
ATOM     11  O   UNL     1       3.501   7.958  16.850  0.00  0.00    +0.000 OA
ENDROOT
BRANCH   2  12
ATOM     12  O   UNL     1       2.122   6.167  21.051  0.00  0.00    +0.000 OA
ATOM     13  H   UNL     1       2.206   5.274  20.675  0.00  0.00    +0.000 HD
ENDBRANCH   2  12
BRANCH   7  14
ATOM     14  O   UNL     1       0.125  11.079  18.268  0.00  0.00    +0.000 OA
ATOM     15  H   UNL     1      -0.298  11.903  18.561  0.00  0.00    +0.000 HD
ENDBRANCH   7  14
BRANCH   1  16
ATOM     16  C   UNL     1       3.713   5.681  18.515  0.00  0.00    +0.000 C 
BRANCH  16  17
ATOM     17  C   UNL     1       2.950   4.351  18.669  0.00  0.00    +0.000 A 
ATOM     18  C   UNL     1       1.669   4.142  18.133  0.00  0.00    +0.000 A 
ATOM     19  C   UNL     1       0.984   2.940  18.334  0.00  0.00    +0.000 A 
ATOM     20  C   UNL     1       1.569   1.921  19.075  0.00  0.00    +0.000 A 
ATOM     21  C   UNL     1       2.839   2.102  19.616  0.00  0.00    +0.000 A 
ATOM     22  C   UNL     1       3.523   3.307  19.419  0.00  0.00    +0.000 A 
ENDBRANCH  16  17
BRANCH  16  23
ATOM     23  C   UNL     1       5.069   5.682  19.257  0.00  0.00    +0.000 C 
BRANCH  23  25
ATOM     24  C   UNL     1       6.686   6.615  17.464  0.00  0.00    +0.000 C 
ATOM     25  C   UNL     1       6.299   5.502  18.396  0.00  0.00    +0.000 C 
ATOM     26  O   UNL     1       6.896   4.424  18.378  0.00  0.00    +0.000 OA
ENDBRANCH  23  25
ENDBRANCH  16  23
ENDBRANCH   1  16
TORSDOF 6
ENDMDL
MODEL 4
REMARK VINA RESULT:      -7.6      1.759      4.014
REMARK  Name = 
REMARK  7 active torsions:
REMARK  status: ('A' for Active; 'I' for Inactive)
REMARK    1  A    between atoms: C_1  and  C_2
REMARK    2  A    between atoms: C_2  and  C_4
REMARK    3  A    between atoms: C_4  and  C_5
REMARK    4  A    between atoms: C_5  and  C_6
REMARK    5  A    between atoms: C_5  and  C_12
REMARK    6  A    between atoms: C_13  and  O_14
REMARK    7  A    between atoms: C_19  and  O_20
REMARK                            x       y       z     vdW  Elec       q    Type
REMARK                         _______ _______ _______ _____ _____    ______ ____
ROOT
ATOM      1  C   UNL     1       3.681   6.419  18.480  0.00  0.00    +0.000 A 
ATOM      2  C   UNL     1       2.899   6.516  19.569  0.00  0.00    +0.000 A 
ATOM      3  C   UNL     1       2.059   7.694  19.778  0.00  0.00    +0.000 A 
ATOM      4  C   UNL     1       1.495   8.024  21.014  0.00  0.00    +0.000 A 
ATOM      5  C   UNL     1       0.670   9.146  21.142  0.00  0.00    +0.000 A 
ATOM      6  C   UNL     1       0.364   9.925  20.025  0.00  0.00    +0.000 A 
ATOM      7  C   UNL     1       0.928   9.605  18.792  0.00  0.00    +0.000 A 
ATOM      8  C   UNL     1       1.800   8.520  18.691  0.00  0.00    +0.000 A 
ATOM      9  O   UNL     1       2.468   8.308  17.474  0.00  0.00    +0.000 OA
ATOM     10  C   UNL     1       3.598   7.504  17.457  0.00  0.00    +0.000 A 
ATOM     11  O   UNL     1       4.446   7.621  16.578  0.00  0.00    +0.000 OA
ENDROOT
BRANCH   2  12
ATOM     12  O   UNL     1       2.794   5.548  20.544  0.00  0.00    +0.000 OA
ATOM     13  H   UNL     1       3.630   5.053  20.592  0.00  0.00    +0.000 HD
ENDBRANCH   2  12
BRANCH   7  14
ATOM     14  O   UNL     1       0.640  10.348  17.685  0.00  0.00    +0.000 OA
ATOM     15  H   UNL     1      -0.250  10.725  17.780  0.00  0.00    +0.000 HD
ENDBRANCH   7  14
BRANCH   1  16
ATOM     16  C   UNL     1       4.698   5.313  18.194  0.00  0.00    +0.000 C 
BRANCH  16  17
ATOM     17  C   UNL     1       4.074   3.907  18.297  0.00  0.00    +0.000 A 
ATOM     18  C   UNL     1       3.002   3.489  17.491  0.00  0.00    +0.000 A 
ATOM     19  C   UNL     1       2.429   2.224  17.644  0.00  0.00    +0.000 A 
ATOM     20  C   UNL     1       2.917   1.350  18.607  0.00  0.00    +0.000 A 
ATOM     21  C   UNL     1       3.980   1.740  19.417  0.00  0.00    +0.000 A 
ATOM     22  C   UNL     1       4.552   3.008  19.268  0.00  0.00    +0.000 A 
ENDBRANCH  16  17
BRANCH  16  23
ATOM     23  C   UNL     1       5.987   5.458  19.034  0.00  0.00    +0.000 C 
BRANCH  23  25
ATOM     24  C   UNL     1       7.757   7.075  18.055  0.00  0.00    +0.000 C 
ATOM     25  C   UNL     1       7.267   5.668  18.256  0.00  0.00    +0.000 C 
ATOM     26  O   UNL     1       7.827   4.718  17.707  0.00  0.00    +0.000 OA
ENDBRANCH  23  25
ENDBRANCH  16  23
ENDBRANCH   1  16
TORSDOF 6
ENDMDL
MODEL 5
REMARK VINA RESULT:      -7.6      1.692      4.030
REMARK  Name = 
REMARK  7 active torsions:
REMARK  status: ('A' for Active; 'I' for Inactive)
REMARK    1  A    between atoms: C_1  and  C_2
REMARK    2  A    between atoms: C_2  and  C_4
REMARK    3  A    between atoms: C_4  and  C_5
REMARK    4  A    between atoms: C_5  and  C_6
REMARK    5  A    between atoms: C_5  and  C_12
REMARK    6  A    between atoms: C_13  and  O_14
REMARK    7  A    between atoms: C_19  and  O_20
REMARK                            x       y       z     vdW  Elec       q    Type
REMARK                         _______ _______ _______ _____ _____    ______ ____
ROOT
ATOM      1  C   UNL     1       2.996   6.749  18.821  0.00  0.00    +0.000 A 
ATOM      2  C   UNL     1       2.348   6.938  19.983  0.00  0.00    +0.000 A 
ATOM      3  C   UNL     1       1.628   8.185  20.236  0.00  0.00    +0.000 A 
ATOM      4  C   UNL     1       1.230   8.594  21.513  0.00  0.00    +0.000 A 
ATOM      5  C   UNL     1       0.511   9.781  21.687  0.00  0.00    +0.000 A 
ATOM      6  C   UNL     1       0.146  10.550  20.581  0.00  0.00    +0.000 A 
ATOM      7  C   UNL     1       0.546  10.151  19.308  0.00  0.00    +0.000 A 
ATOM      8  C   UNL     1       1.316   8.998  19.153  0.00  0.00    +0.000 A 
ATOM      9  O   UNL     1       1.830   8.699  17.881  0.00  0.00    +0.000 OA
ATOM     10  C   UNL     1       2.885   7.807  17.773  0.00  0.00    +0.000 A 
ATOM     11  O   UNL     1       3.639   7.831  16.806  0.00  0.00    +0.000 OA
ENDROOT
BRANCH   2  12
ATOM     12  O   UNL     1       2.277   6.009  20.998  0.00  0.00    +0.000 OA
ATOM     13  H   UNL     1       1.467   5.482  20.890  0.00  0.00    +0.000 HD
ENDBRANCH   2  12
BRANCH   7  14
ATOM     14  O   UNL     1       0.197  10.884  18.211  0.00  0.00    +0.000 OA
ATOM     15  H   UNL     1       0.514  11.795  18.326  0.00  0.00    +0.000 HD
ENDBRANCH   7  14
BRANCH   1  16
ATOM     16  C   UNL     1       3.889   5.557  18.469  0.00  0.00    +0.000 C 
BRANCH  16  17
ATOM     17  C   UNL     1       3.133   4.217  18.558  0.00  0.00    +0.000 A 
ATOM     18  C   UNL     1       3.761   3.011  18.914  0.00  0.00    +0.000 A 
ATOM     19  C   UNL     1       3.057   1.805  18.936  0.00  0.00    +0.000 A 
ATOM     20  C   UNL     1       1.708   1.779  18.605  0.00  0.00    +0.000 A 
ATOM     21  C   UNL     1       1.062   2.960  18.250  0.00  0.00    +0.000 A 
ATOM     22  C   UNL     1       1.768   4.168  18.223  0.00  0.00    +0.000 A 
ENDBRANCH  16  17
BRANCH  16  23
ATOM     23  C   UNL     1       5.214   5.550  19.264  0.00  0.00    +0.000 C 
BRANCH  23  25
ATOM     24  C   UNL     1       6.809   6.615  17.524  0.00  0.00    +0.000 C 
ATOM     25  C   UNL     1       6.482   5.472  18.444  0.00  0.00    +0.000 C 
ATOM     26  O   UNL     1       7.164   4.446  18.446  0.00  0.00    +0.000 OA
ENDBRANCH  23  25
ENDBRANCH  16  23
ENDBRANCH   1  16
TORSDOF 6
ENDMDL
MODEL 6
REMARK VINA RESULT:      -7.6      1.905      4.103
REMARK  Name = 
REMARK  7 active torsions:
REMARK  status: ('A' for Active; 'I' for Inactive)
REMARK    1  A    between atoms: C_1  and  C_2
REMARK    2  A    between atoms: C_2  and  C_4
REMARK    3  A    between atoms: C_4  and  C_5
REMARK    4  A    between atoms: C_5  and  C_6
REMARK    5  A    between atoms: C_5  and  C_12
REMARK    6  A    between atoms: C_13  and  O_14
REMARK    7  A    between atoms: C_19  and  O_20
REMARK                            x       y       z     vdW  Elec       q    Type
REMARK                         _______ _______ _______ _____ _____    ______ ____
ROOT
ATOM      1  C   UNL     1       2.538   7.176  18.726  0.00  0.00    +0.000 A 
ATOM      2  C   UNL     1       2.116   7.160  20.002  0.00  0.00    +0.000 A 
ATOM      3  C   UNL     1       1.442   8.324  20.575  0.00  0.00    +0.000 A 
ATOM      4  C   UNL     1       1.285   8.517  21.952  0.00  0.00    +0.000 A 
ATOM      5  C   UNL     1       0.599   9.635  22.438  0.00  0.00    +0.000 A 
ATOM      6  C   UNL     1       0.025  10.548  21.552  0.00  0.00    +0.000 A 
ATOM      7  C   UNL     1       0.184  10.364  20.181  0.00  0.00    +0.000 A 
ATOM      8  C   UNL     1       0.924   9.279  19.709  0.00  0.00    +0.000 A 
ATOM      9  O   UNL     1       1.194   9.198  18.333  0.00  0.00    +0.000 OA
ATOM     10  C   UNL     1       2.221   8.376  17.896  0.00  0.00    +0.000 A 
ATOM     11  O   UNL     1       2.781   8.577  16.823  0.00  0.00    +0.000 OA
ENDROOT
BRANCH   2  12
ATOM     12  O   UNL     1       2.246   6.085  20.855  0.00  0.00    +0.000 OA
ATOM     13  H   UNL     1       1.904   5.288  20.416  0.00  0.00    +0.000 HD
ENDBRANCH   2  12
BRANCH   7  14
ATOM     14  O   UNL     1      -0.372  11.240  19.296  0.00  0.00    +0.000 OA
ATOM     15  H   UNL     1       0.149  12.060  19.292  0.00  0.00    +0.000 HD
ENDBRANCH   7  14
BRANCH   1  16
ATOM     16  C   UNL     1       3.362   6.088  18.035  0.00  0.00    +0.000 C 
BRANCH  16  17
ATOM     17  C   UNL     1       2.888   4.670  18.409  0.00  0.00    +0.000 A 
ATOM     18  C   UNL     1       3.723   3.728  19.032  0.00  0.00    +0.000 A 
ATOM     19  C   UNL     1       3.276   2.435  19.313  0.00  0.00    +0.000 A 
ATOM     20  C   UNL     1       1.982   2.056  18.978  0.00  0.00    +0.000 A 
ATOM     21  C   UNL     1       1.134   2.972  18.361  0.00  0.00    +0.000 A 
ATOM     22  C   UNL     1       1.582   4.267  18.075  0.00  0.00    +0.000 A 
ENDBRANCH  16  17
BRANCH  16  23
ATOM     23  C   UNL     1       4.883   6.280  18.228  0.00  0.00    +0.000 C 
BRANCH  23  25
ATOM     24  C   UNL     1       5.345   5.888  15.710  0.00  0.00    +0.000 C 
ATOM     25  C   UNL     1       5.675   6.615  16.983  0.00  0.00    +0.000 C 
ATOM     26  O   UNL     1       6.639   7.379  17.044  0.00  0.00    +0.000 OA
ENDBRANCH  23  25
ENDBRANCH  16  23
ENDBRANCH   1  16
TORSDOF 6
ENDMDL
MODEL 7
REMARK VINA RESULT:      -7.4      1.066      2.200
REMARK  Name = 
REMARK  7 active torsions:
REMARK  status: ('A' for Active; 'I' for Inactive)
REMARK    1  A    between atoms: C_1  and  C_2
REMARK    2  A    between atoms: C_2  and  C_4
REMARK    3  A    between atoms: C_4  and  C_5
REMARK    4  A    between atoms: C_5  and  C_6
REMARK    5  A    between atoms: C_5  and  C_12
REMARK    6  A    between atoms: C_13  and  O_14
REMARK    7  A    between atoms: C_19  and  O_20
REMARK                            x       y       z     vdW  Elec       q    Type
REMARK                         _______ _______ _______ _____ _____    ______ ____
ROOT
ATOM      1  C   UNL     1       2.885   6.180  18.909  0.00  0.00    +0.000 A 
ATOM      2  C   UNL     1       2.202   6.538  20.010  0.00  0.00    +0.000 A 
ATOM      3  C   UNL     1       1.736   7.913  20.179  0.00  0.00    +0.000 A 
ATOM      4  C   UNL     1       1.333   8.440  21.410  0.00  0.00    +0.000 A 
ATOM      5  C   UNL     1       0.863   9.754  21.501  0.00  0.00    +0.000 A 
ATOM      6  C   UNL     1       0.749  10.541  20.354  0.00  0.00    +0.000 A 
ATOM      7  C   UNL     1       1.155  10.024  19.126  0.00  0.00    +0.000 A 
ATOM      8  C   UNL     1       1.682   8.734  19.058  0.00  0.00    +0.000 A 
ATOM      9  O   UNL     1       2.220   8.292  17.838  0.00  0.00    +0.000 OA
ATOM     10  C   UNL     1       3.075   7.201  17.835  0.00  0.00    +0.000 A 
ATOM     11  O   UNL     1       3.890   7.037  16.933  0.00  0.00    +0.000 OA
ENDROOT
BRANCH   2  12
ATOM     12  O   UNL     1       1.863   5.680  21.033  0.00  0.00    +0.000 OA
ATOM     13  H   UNL     1       2.089   6.094  21.883  0.00  0.00    +0.000 HD
ENDBRANCH   2  12
BRANCH   7  14
ATOM     14  O   UNL     1       1.049  10.773  17.991  0.00  0.00    +0.000 OA
ATOM     15  H   UNL     1       0.547  10.271  17.328  0.00  0.00    +0.000 HD
ENDBRANCH   7  14
BRANCH   1  16
ATOM     16  C   UNL     1       3.538   4.820  18.655  0.00  0.00    +0.000 C 
BRANCH  16  17
ATOM     17  C   UNL     1       5.053   4.939  18.399  0.00  0.00    +0.000 A 
ATOM     18  C   UNL     1       5.670   4.439  17.240  0.00  0.00    +0.000 A 
ATOM     19  C   UNL     1       7.054   4.519  17.063  0.00  0.00    +0.000 A 
ATOM     20  C   UNL     1       7.849   5.104  18.040  0.00  0.00    +0.000 A 
ATOM     21  C   UNL     1       7.261   5.608  19.197  0.00  0.00    +0.000 A 
ATOM     22  C   UNL     1       5.876   5.524  19.378  0.00  0.00    +0.000 A 
ENDBRANCH  16  17
BRANCH  16  23
ATOM     23  C   UNL     1       2.809   4.004  17.563  0.00  0.00    +0.000 C 
BRANCH  23  25
ATOM     24  C   UNL     1       0.999   2.523  18.674  0.00  0.00    +0.000 C 
ATOM     25  C   UNL     1       2.323   2.631  17.971  0.00  0.00    +0.000 C 
ATOM     26  O   UNL     1       3.049   1.645  17.833  0.00  0.00    +0.000 OA
ENDBRANCH  23  25
ENDBRANCH  16  23
ENDBRANCH   1  16
TORSDOF 6
ENDMDL
MODEL 8
REMARK VINA RESULT:      -7.1      2.358      7.549
REMARK  Name = 
REMARK  7 active torsions:
REMARK  status: ('A' for Active; 'I' for Inactive)
REMARK    1  A    between atoms: C_1  and  C_2
REMARK    2  A    between atoms: C_2  and  C_4
REMARK    3  A    between atoms: C_4  and  C_5
REMARK    4  A    between atoms: C_5  and  C_6
REMARK    5  A    between atoms: C_5  and  C_12
REMARK    6  A    between atoms: C_13  and  O_14
REMARK    7  A    between atoms: C_19  and  O_20
REMARK                            x       y       z     vdW  Elec       q    Type
REMARK                         _______ _______ _______ _____ _____    ______ ____
ROOT
ATOM      1  C   UNL     1       1.059   9.602  19.484  0.00  0.00    +0.000 A 
ATOM      2  C   UNL     1       1.735   9.062  18.455  0.00  0.00    +0.000 A 
ATOM      3  C   UNL     1       2.495   7.827  18.632  0.00  0.00    +0.000 A 
ATOM      4  C   UNL     1       3.478   7.396  17.735  0.00  0.00    +0.000 A 
ATOM      5  C   UNL     1       4.146   6.185  17.941  0.00  0.00    +0.000 A 
ATOM      6  C   UNL     1       3.808   5.370  19.022  0.00  0.00    +0.000 A 
ATOM      7  C   UNL     1       2.835   5.797  19.922  0.00  0.00    +0.000 A 
ATOM      8  C   UNL     1       2.220   7.036  19.741  0.00  0.00    +0.000 A 
ATOM      9  O   UNL     1       1.352   7.507  20.741  0.00  0.00    +0.000 OA
ATOM     10  C   UNL     1       1.040   8.857  20.779  0.00  0.00    +0.000 A 
ATOM     11  O   UNL     1       0.672   9.393  21.819  0.00  0.00    +0.000 OA
ENDROOT
BRANCH   2  12
ATOM     12  O   UNL     1       1.758   9.581  17.178  0.00  0.00    +0.000 OA
ATOM     13  H   UNL     1       1.491  10.515  17.209  0.00  0.00    +0.000 HD
ENDBRANCH   2  12
BRANCH   7  14
ATOM     14  O   UNL     1       2.484   5.016  20.984  0.00  0.00    +0.000 OA
ATOM     15  H   UNL     1       1.706   5.403  21.418  0.00  0.00    +0.000 HD
ENDBRANCH   7  14
BRANCH   1  16
ATOM     16  C   UNL     1       0.329  10.946  19.479  0.00  0.00    +0.000 C 
BRANCH  16  17
ATOM     17  C   UNL     1      -1.064  10.850  18.827  0.00  0.00    +0.000 A 
ATOM     18  C   UNL     1      -1.362   9.941  17.799  0.00  0.00    +0.000 A 
ATOM     19  C   UNL     1      -2.622   9.915  17.195  0.00  0.00    +0.000 A 
ATOM     20  C   UNL     1      -3.612  10.797  17.610  0.00  0.00    +0.000 A 
ATOM     21  C   UNL     1      -3.342  11.707  18.629  0.00  0.00    +0.000 A 
ATOM     22  C   UNL     1      -2.079  11.737  19.231  0.00  0.00    +0.000 A 
ENDBRANCH  16  17
BRANCH  16  23
ATOM     23  C   UNL     1       1.188  12.087  18.890  0.00  0.00    +0.000 C 
BRANCH  23  25
ATOM     24  C   UNL     1       2.769  14.080  19.373  0.00  0.00    +0.000 C 
ATOM     25  C   UNL     1       1.913  12.959  19.891  0.00  0.00    +0.000 C 
ATOM     26  O   UNL     1       1.892  12.681  21.092  0.00  0.00    +0.000 OA
ENDBRANCH  23  25
ENDBRANCH  16  23
ENDBRANCH   1  16
TORSDOF 6
ENDMDL
MODEL 9
REMARK VINA RESULT:      -7.1      2.037      6.001
REMARK  Name = 
REMARK  7 active torsions:
REMARK  status: ('A' for Active; 'I' for Inactive)
REMARK    1  A    between atoms: C_1  and  C_2
REMARK    2  A    between atoms: C_2  and  C_4
REMARK    3  A    between atoms: C_4  and  C_5
REMARK    4  A    between atoms: C_5  and  C_6
REMARK    5  A    between atoms: C_5  and  C_12
REMARK    6  A    between atoms: C_13  and  O_14
REMARK    7  A    between atoms: C_19  and  O_20
REMARK                            x       y       z     vdW  Elec       q    Type
REMARK                         _______ _______ _______ _____ _____    ______ ____
ROOT
ATOM      1  C   UNL     1       3.180   5.072  18.751  0.00  0.00    +0.000 A 
ATOM      2  C   UNL     1       4.487   5.341  18.904  0.00  0.00    +0.000 A 
ATOM      3  C   UNL     1       5.457   4.909  17.899  0.00  0.00    +0.000 A 
ATOM      4  C   UNL     1       6.833   4.845  18.139  0.00  0.00    +0.000 A 
ATOM      5  C   UNL     1       7.714   4.457  17.124  0.00  0.00    +0.000 A 
ATOM      6  C   UNL     1       7.232   4.171  15.846  0.00  0.00    +0.000 A 
ATOM      7  C   UNL     1       5.862   4.227  15.603  0.00  0.00    +0.000 A 
ATOM      8  C   UNL     1       4.987   4.554  16.640  0.00  0.00    +0.000 A 
ATOM      9  O   UNL     1       3.605   4.459  16.408  0.00  0.00    +0.000 OA
ATOM     10  C   UNL     1       2.743   4.399  17.491  0.00  0.00    +0.000 A 
ATOM     11  O   UNL     1       1.629   3.896  17.388  0.00  0.00    +0.000 OA
ENDROOT
BRANCH   2  12
ATOM     12  O   UNL     1       5.022   6.044  19.962  0.00  0.00    +0.000 OA
ATOM     13  H   UNL     1       5.559   6.777  19.618  0.00  0.00    +0.000 HD
ENDBRANCH   2  12
BRANCH   7  14
ATOM     14  O   UNL     1       5.368   3.956  14.361  0.00  0.00    +0.000 OA
ATOM     15  H   UNL     1       6.094   3.995  13.716  0.00  0.00    +0.000 HD
ENDBRANCH   7  14
BRANCH   1  16
ATOM     16  C   UNL     1       2.075   5.350  19.773  0.00  0.00    +0.000 C 
BRANCH  16  17
ATOM     17  C   UNL     1       1.749   6.852  19.885  0.00  0.00    +0.000 A 
ATOM     18  C   UNL     1       1.231   7.433  21.054  0.00  0.00    +0.000 A 
ATOM     19  C   UNL     1       0.899   8.789  21.105  0.00  0.00    +0.000 A 
ATOM     20  C   UNL     1       1.080   9.594  19.987  0.00  0.00    +0.000 A 
ATOM     21  C   UNL     1       1.593   9.042  18.816  0.00  0.00    +0.000 A 
ATOM     22  C   UNL     1       1.922   7.682  18.763  0.00  0.00    +0.000 A 
ENDBRANCH  16  17
BRANCH  16  23
ATOM     23  C   UNL     1       2.355   4.695  21.145  0.00  0.00    +0.000 C 
BRANCH  23  25
ATOM     24  C   UNL     1       0.935   2.636  20.477  0.00  0.00    +0.000 C 
ATOM     25  C   UNL     1       2.098   3.207  21.237  0.00  0.00    +0.000 C 
ATOM     26  O   UNL     1       2.758   2.507  22.007  0.00  0.00    +0.000 OA
ENDBRANCH  23  25
ENDBRANCH  16  23
ENDBRANCH   1  16
TORSDOF 6
ENDMDL
