MODEL 1
REMARK VINA RESULT:      -8.8      0.000      0.000
REMARK  Name = 
REMARK  6 active torsions:
REMARK  status: ('A' for Active; 'I' for Inactive)
REMARK    1  A    between atoms: C_1  and  C_2
REMARK    2  A    between atoms: C_4  and  C_5
REMARK    3  A    between atoms: N_7  and  C_8
REMARK    4  A    between atoms: C_8  and  C_9
REMARK    5  A    between atoms: C_8  and  C_18
REMARK    6  A    between atoms: N_11  and  C_12
REMARK                            x       y       z     vdW  Elec       q    Type
REMARK                         _______ _______ _______ _____ _____    ______ ____
ROOT
ATOM      1  C   UNL     1       4.021   5.860  17.186  0.00  0.00    +0.000 C 
ENDROOT
BRANCH   1   8
ATOM      2  C   UNL     1       8.182   4.421  17.909  0.00  0.00    +0.000 C 
ATOM      3  C   UNL     1       7.423   5.305  18.905  0.00  0.00    +0.000 C 
ATOM      4  C   UNL     1       7.939   6.749  18.883  0.00  0.00    +0.000 C 
ATOM      5  C   UNL     1       7.541   7.456  17.583  0.00  0.00    +0.000 C 
ATOM      6  C   UNL     1       7.950   8.931  17.623  0.00  0.00    +0.000 C 
ATOM      7  C   UNL     1       6.025   7.353  17.387  0.00  0.00    +0.000 C 
ATOM      8  N   UNL     1       5.509   5.976  17.418  0.00  0.00    +0.000 NA
ATOM      9  C   UNL     1       5.903   5.278  18.655  0.00  0.00    +0.000 C 
ENDBRANCH   1   8
BRANCH   1  10
ATOM     10  C   UNL     1       3.184   6.812  18.057  0.00  0.00    +0.000 A 
ATOM     11  C   UNL     1       2.662   8.000  17.507  0.00  0.00    +0.000 A 
ATOM     12  C   UNL     1       1.920   8.895  18.286  0.00  0.00    +0.000 A 
ATOM     13  C   UNL     1       1.666   8.601  19.618  0.00  0.00    +0.000 A 
ATOM     14 CL   UNL     1       0.804   9.725  20.596  0.00  0.00    +0.000 Cl
ATOM     15  C   UNL     1       2.106   7.398  20.169  0.00  0.00    +0.000 A 
ATOM     16  C   UNL     1       2.845   6.503  19.387  0.00  0.00    +0.000 A 
ENDBRANCH   1  10
BRANCH   1  17
ATOM     17  C   UNL     1       3.542   4.370  17.224  0.00  0.00    +0.000 C 
ATOM     18  O   UNL     1       4.044   3.500  16.513  0.00  0.00    +0.000 OA
ATOM     19  N   UNL     1       2.546   4.092  18.139  0.00  0.00    +0.000 N 
ATOM     20  H   UNL     1       2.044   4.883  18.522  0.00  0.00    +0.000 HD
BRANCH  19  21
ATOM     21  C   UNL     1       2.042   2.757  18.425  0.00  0.00    +0.000 C 
ATOM     22  C   UNL     1       3.043   1.981  19.295  0.00  0.00    +0.000 C 
ATOM     23  C   UNL     1       3.148   2.537  20.717  0.00  0.00    +0.000 C 
ATOM     24  C   UNL     1       1.779   2.648  21.380  0.00  0.00    +0.000 C 
ATOM     25  C   UNL     1       0.780   3.420  20.522  0.00  0.00    +0.000 C 
ATOM     26  C   UNL     1       0.678   2.846  19.108  0.00  0.00    +0.000 C 
ENDBRANCH  19  21
ENDBRANCH   1  17
TORSDOF 4
ENDMDL
MODEL 2
REMARK VINA RESULT:      -7.9      1.192      1.928
REMARK  Name = 
REMARK  6 active torsions:
REMARK  status: ('A' for Active; 'I' for Inactive)
REMARK    1  A    between atoms: C_1  and  C_2
REMARK    2  A    between atoms: C_4  and  C_5
REMARK    3  A    between atoms: N_7  and  C_8
REMARK    4  A    between atoms: C_8  and  C_9
REMARK    5  A    between atoms: C_8  and  C_18
REMARK    6  A    between atoms: N_11  and  C_12
REMARK                            x       y       z     vdW  Elec       q    Type
REMARK                         _______ _______ _______ _____ _____    ______ ____
ROOT
ATOM      1  C   UNL     1       3.355   5.435  17.121  0.00  0.00    +0.000 C 
ENDROOT
BRANCH   1   8
ATOM      2  C   UNL     1       7.214   5.319  14.883  0.00  0.00    +0.000 C 
ATOM      3  C   UNL     1       6.849   4.296  15.965  0.00  0.00    +0.000 C 
ATOM      4  C   UNL     1       7.624   4.550  17.264  0.00  0.00    +0.000 C 
ATOM      5  C   UNL     1       7.129   5.822  17.960  0.00  0.00    +0.000 C 
ATOM      6  C   UNL     1       7.819   6.000  19.316  0.00  0.00    +0.000 C 
ATOM      7  C   UNL     1       5.613   5.736  18.168  0.00  0.00    +0.000 C 
ATOM      8  N   UNL     1       4.854   5.480  16.934  0.00  0.00    +0.000 NA
ATOM      9  C   UNL     1       5.334   4.270  16.244  0.00  0.00    +0.000 C 
ENDBRANCH   1   8
BRANCH   1  10
ATOM     10  C   UNL     1       2.806   6.583  17.986  0.00  0.00    +0.000 A 
ATOM     11  C   UNL     1       2.467   6.354  19.334  0.00  0.00    +0.000 A 
ATOM     12  C   UNL     1       1.940   7.375  20.133  0.00  0.00    +0.000 A 
ATOM     13  C   UNL     1       1.774   8.646  19.603  0.00  0.00    +0.000 A 
ATOM     14 CL   UNL     1       1.074   9.892  20.563  0.00  0.00    +0.000 Cl
ATOM     15  C   UNL     1       2.172   8.921  18.295  0.00  0.00    +0.000 A 
ATOM     16  C   UNL     1       2.700   7.898  17.499  0.00  0.00    +0.000 A 
ENDBRANCH   1  10
BRANCH   1  17
ATOM     17  C   UNL     1       2.868   4.013  17.561  0.00  0.00    +0.000 C 
ATOM     18  O   UNL     1       2.206   3.288  16.819  0.00  0.00    +0.000 OA
ATOM     19  N   UNL     1       3.267   3.614  18.821  0.00  0.00    +0.000 N 
ATOM     20  H   UNL     1       3.614   4.336  19.440  0.00  0.00    +0.000 HD
BRANCH  19  21
ATOM     21  C   UNL     1       3.030   2.291  19.377  0.00  0.00    +0.000 C 
ATOM     22  C   UNL     1       3.506   2.229  20.837  0.00  0.00    +0.000 C 
ATOM     23  C   UNL     1       2.643   3.072  21.777  0.00  0.00    +0.000 C 
ATOM     24  C   UNL     1       1.163   2.728  21.643  0.00  0.00    +0.000 C 
ATOM     25  C   UNL     1       0.682   2.789  20.195  0.00  0.00    +0.000 C 
ATOM     26  C   UNL     1       1.548   1.933  19.269  0.00  0.00    +0.000 C 
ENDBRANCH  19  21
ENDBRANCH   1  17
TORSDOF 4
ENDMDL
MODEL 3
REMARK VINA RESULT:      -7.6      1.778      5.331
REMARK  Name = 
REMARK  6 active torsions:
REMARK  status: ('A' for Active; 'I' for Inactive)
REMARK    1  A    between atoms: C_1  and  C_2
REMARK    2  A    between atoms: C_4  and  C_5
REMARK    3  A    between atoms: N_7  and  C_8
REMARK    4  A    between atoms: C_8  and  C_9
REMARK    5  A    between atoms: C_8  and  C_18
REMARK    6  A    between atoms: N_11  and  C_12
REMARK                            x       y       z     vdW  Elec       q    Type
REMARK                         _______ _______ _______ _____ _____    ______ ____
ROOT
ATOM      1  C   UNL     1       3.191   6.611  19.331  0.00  0.00    +0.000 C 
ENDROOT
BRANCH   1   8
ATOM      2  C   UNL     1       2.340   2.597  17.577  0.00  0.00    +0.000 C 
ATOM      3  C   UNL     1       1.247   3.496  18.167  0.00  0.00    +0.000 C 
ATOM      4  C   UNL     1       0.775   2.986  19.534  0.00  0.00    +0.000 C 
ATOM      5  C   UNL     1       1.856   3.191  20.600  0.00  0.00    +0.000 C 
ATOM      6  C   UNL     1       1.332   2.795  21.984  0.00  0.00    +0.000 C 
ATOM      7  C   UNL     1       2.284   4.662  20.620  0.00  0.00    +0.000 C 
ATOM      8  N   UNL     1       2.728   5.173  19.314  0.00  0.00    +0.000 NA
ATOM      9  C   UNL     1       1.704   4.964  18.274  0.00  0.00    +0.000 C 
ENDBRANCH   1   8
BRANCH   1  10
ATOM     10  C   UNL     1       2.108   7.603  19.788  0.00  0.00    +0.000 A 
ATOM     11  C   UNL     1       1.675   8.628  18.922  0.00  0.00    +0.000 A 
ATOM     12  C   UNL     1       0.711   9.558  19.325  0.00  0.00    +0.000 A 
ATOM     13  C   UNL     1       0.145   9.460  20.588  0.00  0.00    +0.000 A 
ATOM     14 CL   UNL     1      -1.000  10.635  21.110  0.00  0.00    +0.000 Cl
ATOM     15  C   UNL     1       0.498   8.412  21.438  0.00  0.00    +0.000 A 
ATOM     16  C   UNL     1       1.461   7.482  21.031  0.00  0.00    +0.000 A 
ENDBRANCH   1  10
BRANCH   1  17
ATOM     17  C   UNL     1       3.898   7.009  17.991  0.00  0.00    +0.000 C 
ATOM     18  O   UNL     1       3.478   7.914  17.271  0.00  0.00    +0.000 OA
ATOM     19  N   UNL     1       5.048   6.303  17.697  0.00  0.00    +0.000 N 
ATOM     20  H   UNL     1       5.203   5.447  18.213  0.00  0.00    +0.000 HD
BRANCH  19  21
ATOM     21  C   UNL     1       5.923   6.592  16.571  0.00  0.00    +0.000 C 
ATOM     22  C   UNL     1       7.336   6.050  16.838  0.00  0.00    +0.000 C 
ATOM     23  C   UNL     1       7.394   4.521  16.835  0.00  0.00    +0.000 C 
ATOM     24  C   UNL     1       6.788   3.937  15.564  0.00  0.00    +0.000 C 
ATOM     25  C   UNL     1       5.382   4.470  15.293  0.00  0.00    +0.000 C 
ATOM     26  C   UNL     1       5.343   5.999  15.288  0.00  0.00    +0.000 C 
ENDBRANCH  19  21
ENDBRANCH   1  17
TORSDOF 4
ENDMDL
MODEL 4
REMARK VINA RESULT:      -7.6      1.329      2.043
REMARK  Name = 
REMARK  6 active torsions:
REMARK  status: ('A' for Active; 'I' for Inactive)
REMARK    1  A    between atoms: C_1  and  C_2
REMARK    2  A    between atoms: C_4  and  C_5
REMARK    3  A    between atoms: N_7  and  C_8
REMARK    4  A    between atoms: C_8  and  C_9
REMARK    5  A    between atoms: C_8  and  C_18
REMARK    6  A    between atoms: N_11  and  C_12
REMARK                            x       y       z     vdW  Elec       q    Type
REMARK                         _______ _______ _______ _____ _____    ______ ____
ROOT
ATOM      1  C   UNL     1       3.027   5.800  17.332  0.00  0.00    +0.000 C 
ENDROOT
BRANCH   1   8
ATOM      2  C   UNL     1       7.166   5.888  18.997  0.00  0.00    +0.000 C 
ATOM      3  C   UNL     1       6.710   6.803  17.855  0.00  0.00    +0.000 C 
ATOM      4  C   UNL     1       7.275   6.343  16.506  0.00  0.00    +0.000 C 
ATOM      5  C   UNL     1       6.614   5.039  16.047  0.00  0.00    +0.000 C 
ATOM      6  C   UNL     1       7.092   4.655  14.644  0.00  0.00    +0.000 C 
ATOM      7  C   UNL     1       5.091   5.212  16.036  0.00  0.00    +0.000 C 
ATOM      8  N   UNL     1       4.532   5.665  17.319  0.00  0.00    +0.000 NA
ATOM      9  C   UNL     1       5.174   6.909  17.781  0.00  0.00    +0.000 C 
ENDBRANCH   1   8
BRANCH   1  10
ATOM     10  C   UNL     1       2.522   7.000  18.152  0.00  0.00    +0.000 A 
ATOM     11  C   UNL     1       2.316   6.871  19.541  0.00  0.00    +0.000 A 
ATOM     12  C   UNL     1       1.831   7.939  20.304  0.00  0.00    +0.000 A 
ATOM     13  C   UNL     1       1.574   9.159  19.694  0.00  0.00    +0.000 A 
ATOM     14 CL   UNL     1       0.925  10.459  20.617  0.00  0.00    +0.000 Cl
ATOM     15  C   UNL     1       1.841   9.338  18.337  0.00  0.00    +0.000 A 
ATOM     16  C   UNL     1       2.327   8.268  17.577  0.00  0.00    +0.000 A 
ENDBRANCH   1  10
BRANCH   1  17
ATOM     17  C   UNL     1       2.326   4.445  17.682  0.00  0.00    +0.000 C 
ATOM     18  O   UNL     1       1.275   4.093  17.147  0.00  0.00    +0.000 OA
ATOM     19  N   UNL     1       2.989   3.654  18.599  0.00  0.00    +0.000 N 
ATOM     20  H   UNL     1       3.715   4.100  19.145  0.00  0.00    +0.000 HD
BRANCH  19  21
ATOM     21  C   UNL     1       2.579   2.309  18.973  0.00  0.00    +0.000 C 
ATOM     22  C   UNL     1       3.370   1.829  20.200  0.00  0.00    +0.000 C 
ATOM     23  C   UNL     1       2.998   2.586  21.477  0.00  0.00    +0.000 C 
ATOM     24  C   UNL     1       1.493   2.569  21.724  0.00  0.00    +0.000 C 
ATOM     25  C   UNL     1       0.701   3.047  20.508  0.00  0.00    +0.000 C 
ATOM     26  C   UNL     1       1.075   2.274  19.243  0.00  0.00    +0.000 C 
ENDBRANCH  19  21
ENDBRANCH   1  17
TORSDOF 4
ENDMDL
MODEL 5
REMARK VINA RESULT:      -7.4      0.795      1.735
REMARK  Name = 
REMARK  6 active torsions:
REMARK  status: ('A' for Active; 'I' for Inactive)
REMARK    1  A    between atoms: C_1  and  C_2
REMARK    2  A    between atoms: C_4  and  C_5
REMARK    3  A    between atoms: N_7  and  C_8
REMARK    4  A    between atoms: C_8  and  C_9
REMARK    5  A    between atoms: C_8  and  C_18
REMARK    6  A    between atoms: N_11  and  C_12
REMARK                            x       y       z     vdW  Elec       q    Type
REMARK                         _______ _______ _______ _____ _____    ______ ____
ROOT
ATOM      1  C   UNL     1       3.684   6.502  17.603  0.00  0.00    +0.000 C 
ENDROOT
BRANCH   1   8
ATOM      2  C   UNL     1       7.671   8.505  17.572  0.00  0.00    +0.000 C 
ATOM      3  C   UNL     1       7.450   7.083  17.044  0.00  0.00    +0.000 C 
ATOM      4  C   UNL     1       8.000   6.030  18.014  0.00  0.00    +0.000 C 
ATOM      5  C   UNL     1       7.143   5.951  19.282  0.00  0.00    +0.000 C 
ATOM      6  C   UNL     1       7.623   4.813  20.188  0.00  0.00    +0.000 C 
ATOM      7  C   UNL     1       5.680   5.711  18.897  0.00  0.00    +0.000 C 
ATOM      8  N   UNL     1       5.138   6.704  17.957  0.00  0.00    +0.000 NA
ATOM      9  C   UNL     1       5.965   6.805  16.741  0.00  0.00    +0.000 C 
ENDBRANCH   1   8
BRANCH   1  10
ATOM     10  C   UNL     1       2.719   7.357  18.443  0.00  0.00    +0.000 A 
ATOM     11  C   UNL     1       2.058   8.457  17.860  0.00  0.00    +0.000 A 
ATOM     12  C   UNL     1       1.198   9.266  18.611  0.00  0.00    +0.000 A 
ATOM     13  C   UNL     1       0.963   8.968  19.945  0.00  0.00    +0.000 A 
ATOM     14 CL   UNL     1      -0.050   9.992  20.888  0.00  0.00    +0.000 Cl
ATOM     15  C   UNL     1       1.543   7.842  20.528  0.00  0.00    +0.000 A 
ATOM     16  C   UNL     1       2.402   7.034  19.774  0.00  0.00    +0.000 A 
ENDBRANCH   1  10
BRANCH   1  17
ATOM     17  C   UNL     1       3.306   4.983  17.544  0.00  0.00    +0.000 C 
ATOM     18  O   UNL     1       3.843   4.204  16.756  0.00  0.00    +0.000 OA
ATOM     19  N   UNL     1       2.362   4.572  18.463  0.00  0.00    +0.000 N 
ATOM     20  H   UNL     1       1.821   5.296  18.917  0.00  0.00    +0.000 HD
BRANCH  19  21
ATOM     21  C   UNL     1       1.958   3.188  18.663  0.00  0.00    +0.000 C 
ATOM     22  C   UNL     1       3.153   2.343  19.133  0.00  0.00    +0.000 C 
ATOM     23  C   UNL     1       3.607   2.696  20.550  0.00  0.00    +0.000 C 
ATOM     24  C   UNL     1       2.448   2.649  21.541  0.00  0.00    +0.000 C 
ATOM     25  C   UNL     1       1.258   3.488  21.081  0.00  0.00    +0.000 C 
ATOM     26  C   UNL     1       0.809   3.116  19.668  0.00  0.00    +0.000 C 
ENDBRANCH  19  21
ENDBRANCH   1  17
TORSDOF 4
ENDMDL
MODEL 6
REMARK VINA RESULT:      -7.4      1.817      5.421
REMARK  Name = 
REMARK  6 active torsions:
REMARK  status: ('A' for Active; 'I' for Inactive)
REMARK    1  A    between atoms: C_1  and  C_2
REMARK    2  A    between atoms: C_4  and  C_5
REMARK    3  A    between atoms: N_7  and  C_8
REMARK    4  A    between atoms: C_8  and  C_9
REMARK    5  A    between atoms: C_8  and  C_18
REMARK    6  A    between atoms: N_11  and  C_12
REMARK                            x       y       z     vdW  Elec       q    Type
REMARK                         _______ _______ _______ _____ _____    ______ ____
ROOT
ATOM      1  C   UNL     1       3.833   5.763  19.738  0.00  0.00    +0.000 C 
ENDROOT
BRANCH   1   8
ATOM      2  C   UNL     1       2.439   2.058  17.680  0.00  0.00    +0.000 C 
ATOM      3  C   UNL     1       1.476   3.105  18.249  0.00  0.00    +0.000 C 
ATOM      4  C   UNL     1       0.817   2.618  19.546  0.00  0.00    +0.000 C 
ATOM      5  C   UNL     1       1.830   2.574  20.695  0.00  0.00    +0.000 C 
ATOM      6  C   UNL     1       1.139   2.209  22.012  0.00  0.00    +0.000 C 
ATOM      7  C   UNL     1       2.504   3.943  20.837  0.00  0.00    +0.000 C 
ATOM      8  N   UNL     1       3.130   4.433  19.599  0.00  0.00    +0.000 NA
ATOM      9  C   UNL     1       2.171   4.461  18.481  0.00  0.00    +0.000 C 
ENDBRANCH   1   8
BRANCH   1  10
ATOM     10  C   UNL     1       2.965   6.965  19.328  0.00  0.00    +0.000 A 
ATOM     11  C   UNL     1       2.084   7.552  20.259  0.00  0.00    +0.000 A 
ATOM     12  C   UNL     1       1.265   8.629  19.902  0.00  0.00    +0.000 A 
ATOM     13  C   UNL     1       1.337   9.153  18.619  0.00  0.00    +0.000 A 
ATOM     14 CL   UNL     1       0.292  10.440  18.158  0.00  0.00    +0.000 Cl
ATOM     15  C   UNL     1       2.253   8.641  17.700  0.00  0.00    +0.000 A 
ATOM     16  C   UNL     1       3.072   7.566  18.061  0.00  0.00    +0.000 A 
ENDBRANCH   1  10
BRANCH   1  17
ATOM     17  C   UNL     1       5.252   5.742  19.076  0.00  0.00    +0.000 C 
ATOM     18  O   UNL     1       6.278   5.551  19.728  0.00  0.00    +0.000 OA
ATOM     19  N   UNL     1       5.267   5.912  17.706  0.00  0.00    +0.000 N 
ATOM     20  H   UNL     1       4.424   6.275  17.281  0.00  0.00    +0.000 HD
BRANCH  19  21
ATOM     21  C   UNL     1       6.460   5.805  16.878  0.00  0.00    +0.000 C 
ATOM     22  C   UNL     1       6.868   4.332  16.714  0.00  0.00    +0.000 C 
ATOM     23  C   UNL     1       5.878   3.536  15.861  0.00  0.00    +0.000 C 
ATOM     24  C   UNL     1       5.621   4.212  14.518  0.00  0.00    +0.000 C 
ATOM     25  C   UNL     1       5.213   5.675  14.674  0.00  0.00    +0.000 C 
ATOM     26  C   UNL     1       6.216   6.461  15.519  0.00  0.00    +0.000 C 
ENDBRANCH  19  21
ENDBRANCH   1  17
TORSDOF 4
ENDMDL
MODEL 7
REMARK VINA RESULT:      -7.4      1.712      5.097
REMARK  Name = 
REMARK  6 active torsions:
REMARK  status: ('A' for Active; 'I' for Inactive)
REMARK    1  A    between atoms: C_1  and  C_2
REMARK    2  A    between atoms: C_4  and  C_5
REMARK    3  A    between atoms: N_7  and  C_8
REMARK    4  A    between atoms: C_8  and  C_9
REMARK    5  A    between atoms: C_8  and  C_18
REMARK    6  A    between atoms: N_11  and  C_12
REMARK                            x       y       z     vdW  Elec       q    Type
REMARK                         _______ _______ _______ _____ _____    ______ ____
ROOT
ATOM      1  C   UNL     1       3.006   6.688  19.402  0.00  0.00    +0.000 C 
ENDROOT
BRANCH   1   8
ATOM      2  C   UNL     1       1.025   3.125  21.218  0.00  0.00    +0.000 C 
ATOM      3  C   UNL     1       2.505   3.141  20.820  0.00  0.00    +0.000 C 
ATOM      4  C   UNL     1       2.753   2.336  19.538  0.00  0.00    +0.000 C 
ATOM      5  C   UNL     1       2.168   3.053  18.317  0.00  0.00    +0.000 C 
ATOM      6  C   UNL     1       2.529   2.307  17.028  0.00  0.00    +0.000 C 
ATOM      7  C   UNL     1       2.719   4.481  18.248  0.00  0.00    +0.000 C 
ATOM      8  N   UNL     1       2.503   5.265  19.474  0.00  0.00    +0.000 NA
ATOM      9  C   UNL     1       3.043   4.577  20.660  0.00  0.00    +0.000 C 
ENDBRANCH   1   8
BRANCH   1  10
ATOM     10  C   UNL     1       1.960   7.734  19.829  0.00  0.00    +0.000 A 
ATOM     11  C   UNL     1       1.615   8.786  18.956  0.00  0.00    +0.000 A 
ATOM     12  C   UNL     1       0.688   9.764  19.332  0.00  0.00    +0.000 A 
ATOM     13  C   UNL     1       0.072   9.687  20.573  0.00  0.00    +0.000 A 
ATOM     14 CL   UNL     1      -1.027  10.919  21.062  0.00  0.00    +0.000 Cl
ATOM     15  C   UNL     1       0.337   8.617  21.425  0.00  0.00    +0.000 A 
ATOM     16  C   UNL     1       1.263   7.639  21.046  0.00  0.00    +0.000 A 
ENDBRANCH   1  10
BRANCH   1  17
ATOM     17  C   UNL     1       3.692   6.993  18.028  0.00  0.00    +0.000 C 
ATOM     18  O   UNL     1       3.161   7.699  17.172  0.00  0.00    +0.000 OA
ATOM     19  N   UNL     1       4.951   6.450  17.862  0.00  0.00    +0.000 N 
ATOM     20  H   UNL     1       5.220   5.718  18.506  0.00  0.00    +0.000 HD
BRANCH  19  21
ATOM     21  C   UNL     1       5.813   6.709  16.719  0.00  0.00    +0.000 C 
ATOM     22  C   UNL     1       7.251   6.259  17.019  0.00  0.00    +0.000 C 
ATOM     23  C   UNL     1       7.387   4.738  17.117  0.00  0.00    +0.000 C 
ATOM     24  C   UNL     1       6.814   4.041  15.888  0.00  0.00    +0.000 C 
ATOM     25  C   UNL     1       5.384   4.482  15.585  0.00  0.00    +0.000 C 
ATOM     26  C   UNL     1       5.266   6.003  15.478  0.00  0.00    +0.000 C 
ENDBRANCH  19  21
ENDBRANCH   1  17
TORSDOF 4
ENDMDL
MODEL 8
REMARK VINA RESULT:      -7.0      1.802      5.321
REMARK  Name = 
REMARK  6 active torsions:
REMARK  status: ('A' for Active; 'I' for Inactive)
REMARK    1  A    between atoms: C_1  and  C_2
REMARK    2  A    between atoms: C_4  and  C_5
REMARK    3  A    between atoms: N_7  and  C_8
REMARK    4  A    between atoms: C_8  and  C_9
REMARK    5  A    between atoms: C_8  and  C_18
REMARK    6  A    between atoms: N_11  and  C_12
REMARK                            x       y       z     vdW  Elec       q    Type
REMARK                         _______ _______ _______ _____ _____    ______ ____
ROOT
ATOM      1  C   UNL     1       3.617   5.684  19.626  0.00  0.00    +0.000 C 
ENDROOT
BRANCH   1   8
ATOM      2  C   UNL     1       0.160   2.977  18.835  0.00  0.00    +0.000 C 
ATOM      3  C   UNL     1       1.158   2.740  19.974  0.00  0.00    +0.000 C 
ATOM      4  C   UNL     1       2.118   1.589  19.651  0.00  0.00    +0.000 C 
ATOM      5  C   UNL     1       3.103   1.987  18.548  0.00  0.00    +0.000 C 
ATOM      6  C   UNL     1       4.137   0.880  18.320  0.00  0.00    +0.000 C 
ATOM      7  C   UNL     1       3.823   3.280  18.946  0.00  0.00    +0.000 C 
ATOM      8  N   UNL     1       2.918   4.393  19.272  0.00  0.00    +0.000 NA
ATOM      9  C   UNL     1       1.951   4.016  20.318  0.00  0.00    +0.000 C 
ENDBRANCH   1   8
BRANCH   1  10
ATOM     10  C   UNL     1       2.780   6.941  19.328  0.00  0.00    +0.000 A 
ATOM     11  C   UNL     1       2.028   7.549  20.353  0.00  0.00    +0.000 A 
ATOM     12  C   UNL     1       1.238   8.676  20.101  0.00  0.00    +0.000 A 
ATOM     13  C   UNL     1       1.212   9.228  18.829  0.00  0.00    +0.000 A 
ATOM     14 CL   UNL     1       0.199  10.580  18.500  0.00  0.00    +0.000 Cl
ATOM     15  C   UNL     1       2.005   8.693  17.814  0.00  0.00    +0.000 A 
ATOM     16  C   UNL     1       2.796   7.567  18.069  0.00  0.00    +0.000 A 
ENDBRANCH   1  10
BRANCH   1  17
ATOM     17  C   UNL     1       5.072   5.734  19.049  0.00  0.00    +0.000 C 
ATOM     18  O   UNL     1       6.065   5.580  19.760  0.00  0.00    +0.000 OA
ATOM     19  N   UNL     1       5.162   5.920  17.684  0.00  0.00    +0.000 N 
ATOM     20  H   UNL     1       4.330   6.251  17.213  0.00  0.00    +0.000 HD
BRANCH  19  21
ATOM     21  C   UNL     1       6.405   5.875  16.929  0.00  0.00    +0.000 C 
ATOM     22  C   UNL     1       6.917   4.430  16.824  0.00  0.00    +0.000 C 
ATOM     23  C   UNL     1       6.033   3.552  15.936  0.00  0.00    +0.000 C 
ATOM     24  C   UNL     1       5.811   4.181  14.565  0.00  0.00    +0.000 C 
ATOM     25  C   UNL     1       5.300   5.617  14.661  0.00  0.00    +0.000 C 
ATOM     26  C   UNL     1       6.200   6.485  15.542  0.00  0.00    +0.000 C 
ENDBRANCH  19  21
ENDBRANCH   1  17
TORSDOF 4
ENDMDL
MODEL 9
REMARK VINA RESULT:      -6.9      1.903      5.308
REMARK  Name = 
REMARK  6 active torsions:
REMARK  status: ('A' for Active; 'I' for Inactive)
REMARK    1  A    between atoms: C_1  and  C_2
REMARK    2  A    between atoms: C_4  and  C_5
REMARK    3  A    between atoms: N_7  and  C_8
REMARK    4  A    between atoms: C_8  and  C_9
REMARK    5  A    between atoms: C_8  and  C_18
REMARK    6  A    between atoms: N_11  and  C_12
REMARK                            x       y       z     vdW  Elec       q    Type
REMARK                         _______ _______ _______ _____ _____    ______ ____
ROOT
ATOM      1  C   UNL     1       3.507   6.549  19.155  0.00  0.00    +0.000 C 
ENDROOT
BRANCH   1   8
ATOM      2  C   UNL     1       2.493   2.605  17.333  0.00  0.00    +0.000 C 
ATOM      3  C   UNL     1       1.437   3.539  17.935  0.00  0.00    +0.000 C 
ATOM      4  C   UNL     1       0.939   3.027  19.292  0.00  0.00    +0.000 C 
ATOM      5  C   UNL     1       2.024   3.168  20.365  0.00  0.00    +0.000 C 
ATOM      6  C   UNL     1       1.479   2.773  21.741  0.00  0.00    +0.000 C 
ATOM      7  C   UNL     1       2.514   4.620  20.410  0.00  0.00    +0.000 C 
ATOM      8  N   UNL     1       2.983   5.133  19.114  0.00  0.00    +0.000 NA
ATOM      9  C   UNL     1       1.955   4.984  18.068  0.00  0.00    +0.000 C 
ENDBRANCH   1   8
BRANCH   1  10
ATOM     10  C   UNL     1       2.398   7.617  19.168  0.00  0.00    +0.000 A 
ATOM     11  C   UNL     1       1.770   7.970  20.379  0.00  0.00    +0.000 A 
ATOM     12  C   UNL     1       0.741   8.919  20.412  0.00  0.00    +0.000 A 
ATOM     13  C   UNL     1       0.347   9.547  19.240  0.00  0.00    +0.000 A 
ATOM     14 CL   UNL     1      -0.955  10.672  19.266  0.00  0.00    +0.000 Cl
ATOM     15  C   UNL     1       1.002   9.273  18.040  0.00  0.00    +0.000 A 
ATOM     16  C   UNL     1       2.032   8.326  18.010  0.00  0.00    +0.000 A 
ENDBRANCH   1  10
BRANCH   1  17
ATOM     17  C   UNL     1       4.615   6.791  18.075  0.00  0.00    +0.000 C 
ATOM     18  O   UNL     1       4.792   7.890  17.551  0.00  0.00    +0.000 OA
ATOM     19  N   UNL     1       5.405   5.697  17.784  0.00  0.00    +0.000 N 
ATOM     20  H   UNL     1       5.064   4.794  18.087  0.00  0.00    +0.000 HD
BRANCH  19  21
ATOM     21  C   UNL     1       6.566   5.733  16.906  0.00  0.00    +0.000 C 
ATOM     22  C   UNL     1       7.124   4.317  16.698  0.00  0.00    +0.000 C 
ATOM     23  C   UNL     1       6.192   3.428  15.873  0.00  0.00    +0.000 C 
ATOM     24  C   UNL     1       5.804   4.089  14.554  0.00  0.00    +0.000 C 
ATOM     25  C   UNL     1       5.247   5.497  14.754  0.00  0.00    +0.000 C 
ATOM     26  C   UNL     1       6.194   6.376  15.571  0.00  0.00    +0.000 C 
ENDBRANCH  19  21
ENDBRANCH   1  17
TORSDOF 4
ENDMDL
