MODEL 1
REMARK VINA RESULT:      -7.1      0.000      0.000
REMARK  Name = 
REMARK  10 active torsions:
REMARK  status: ('A' for Active; 'I' for Inactive)
REMARK    1  A    between atoms: C_1  and  C_2
REMARK    2  A    between atoms: C_2  and  C_3
REMARK    3  A    between atoms: C_5  and  C_6
REMARK    4  A    between atoms: C_6  and  N_7
REMARK    5  A    between atoms: N_10  and  C_11
REMARK    6  A    between atoms: C_11  and  C_12
REMARK    7  A    between atoms: C_17  and  C_18
REMARK    8  A    between atoms: C_18  and  C_19
REMARK    9  A    between atoms: C_18  and  C_20
REMARK   10  A    between atoms: C_18  and  C_21
REMARK                            x       y       z     vdW  Elec       q    Type
REMARK                         _______ _______ _______ _____ _____    ______ ____
ROOT
ATOM      1  N   UNL     1       0.719  10.242  17.966  0.00  0.00    +0.000 N 
ATOM      2  C   UNL     1       1.682   9.299  18.153  0.00  0.00    +0.000 C 
ATOM      3  O   UNL     1       2.652   9.228  17.399  0.00  0.00    +0.000 OA
ATOM      4  N   UNL     1       1.496   8.495  19.247  0.00  0.00    +0.000 N 
ATOM      5  H   UNL     1       0.930  10.937  17.260  0.00  0.00    +0.000 HD
ATOM      6  H   UNL     1       0.541   8.331  19.513  0.00  0.00    +0.000 HD
ENDROOT
BRANCH   1   7
ATOM      7  C   UNL     1      -0.289  10.589  18.936  0.00  0.00    +0.000 C 
BRANCH   7  10
ATOM      8  C   UNL     1      -3.173  10.379  16.766  0.00  0.00    +0.000 A 
ATOM      9  N   UNL     1      -1.971  10.025  17.172  0.00  0.00    +0.000 NA
ATOM     10  C   UNL     1      -1.635  10.731  18.320  0.00  0.00    +0.000 A 
ATOM     11  C   UNL     1      -2.616  11.596  18.773  0.00  0.00    +0.000 A 
ATOM     12  S   UNL     1      -3.984  11.529  17.754  0.00  0.00    +0.000 S 
BRANCH   8  14
ATOM     13  C   UNL     1      -2.916  10.090  14.312  0.00  0.00    +0.000 C 
ATOM     14  C   UNL     1      -3.823   9.881  15.514  0.00  0.00    +0.000 C 
ENDBRANCH   8  14
ENDBRANCH   7  10
ENDBRANCH   1   7
BRANCH   4  15
ATOM     15  C   UNL     1       2.431   7.446  19.581  0.00  0.00    +0.000 C 
BRANCH  15  16
ATOM     16  C   UNL     1       1.853   6.052  19.312  0.00  0.00    +0.000 C 
ATOM     17  C   UNL     1       1.905   5.147  20.544  0.00  0.00    +0.000 C 
ATOM     18  C   UNL     1       1.228   3.813  20.268  0.00  0.00    +0.000 C 
ATOM     19  C   UNL     1       1.534   3.217  18.900  0.00  0.00    +0.000 C 
ATOM     20  O   UNL     1       1.609   4.155  17.833  0.00  0.00    +0.000 OA
ATOM     21  C   UNL     1       2.407   5.336  18.053  0.00  0.00    +0.000 C 
BRANCH  21  22
ATOM     22  C   UNL     1       3.950   5.084  17.800  0.00  0.00    +0.000 C 
ATOM     23  C   UNL     1       4.514   6.306  17.027  0.00  0.00    +0.000 C 
ATOM     24  C   UNL     1       4.763   4.992  19.105  0.00  0.00    +0.000 C 
ATOM     25  C   UNL     1       4.300   3.844  16.961  0.00  0.00    +0.000 C 
ENDBRANCH  21  22
ENDBRANCH  15  16
ENDBRANCH   4  15
TORSDOF 6
ENDMDL
MODEL 2
REMARK VINA RESULT:      -7.0      1.389      1.689
REMARK  Name = 
REMARK  10 active torsions:
REMARK  status: ('A' for Active; 'I' for Inactive)
REMARK    1  A    between atoms: C_1  and  C_2
REMARK    2  A    between atoms: C_2  and  C_3
REMARK    3  A    between atoms: C_5  and  C_6
REMARK    4  A    between atoms: C_6  and  N_7
REMARK    5  A    between atoms: N_10  and  C_11
REMARK    6  A    between atoms: C_11  and  C_12
REMARK    7  A    between atoms: C_17  and  C_18
REMARK    8  A    between atoms: C_18  and  C_19
REMARK    9  A    between atoms: C_18  and  C_20
REMARK   10  A    between atoms: C_18  and  C_21
REMARK                            x       y       z     vdW  Elec       q    Type
REMARK                         _______ _______ _______ _____ _____    ______ ____
ROOT
ATOM      1  N   UNL     1       0.824   9.556  19.829  0.00  0.00    +0.000 N 
ATOM      2  C   UNL     1       1.463   8.411  20.196  0.00  0.00    +0.000 C 
ATOM      3  O   UNL     1       1.411   8.002  21.355  0.00  0.00    +0.000 OA
ATOM      4  N   UNL     1       2.109   7.760  19.177  0.00  0.00    +0.000 N 
ATOM      5  H   UNL     1       0.217   9.954  20.536  0.00  0.00    +0.000 HD
ATOM      6  H   UNL     1       2.458   8.343  18.437  0.00  0.00    +0.000 HD
ENDROOT
BRANCH   1   7
ATOM      7  C   UNL     1       0.589   9.963  18.467  0.00  0.00    +0.000 C 
BRANCH   7  10
ATOM      8  C   UNL     1      -2.642  10.797  17.074  0.00  0.00    +0.000 A 
ATOM      9  N   UNL     1      -1.463  10.208  17.058  0.00  0.00    +0.000 NA
ATOM     10  C   UNL     1      -0.804  10.441  18.258  0.00  0.00    +0.000 A 
ATOM     11  C   UNL     1      -1.521  11.189  19.175  0.00  0.00    +0.000 A 
ATOM     12  S   UNL     1      -3.045  11.612  18.535  0.00  0.00    +0.000 S 
BRANCH   8  14
ATOM     13  C   UNL     1      -3.007  10.089  14.721  0.00  0.00    +0.000 C 
ATOM     14  C   UNL     1      -3.589  10.826  15.918  0.00  0.00    +0.000 C 
ENDBRANCH   8  14
ENDBRANCH   7  10
ENDBRANCH   1   7
BRANCH   4  15
ATOM     15  C   UNL     1       2.833   6.531  19.406  0.00  0.00    +0.000 C 
BRANCH  15  16
ATOM     16  C   UNL     1       1.931   5.299  19.274  0.00  0.00    +0.000 C 
ATOM     17  C   UNL     1       1.807   4.520  20.584  0.00  0.00    +0.000 C 
ATOM     18  C   UNL     1       0.823   3.368  20.441  0.00  0.00    +0.000 C 
ATOM     19  C   UNL     1       0.933   2.598  19.131  0.00  0.00    +0.000 C 
ATOM     20  O   UNL     1       1.195   3.394  17.980  0.00  0.00    +0.000 OA
ATOM     21  C   UNL     1       2.257   4.364  18.081  0.00  0.00    +0.000 C 
BRANCH  21  22
ATOM     22  C   UNL     1       3.687   3.728  17.836  0.00  0.00    +0.000 C 
ATOM     23  C   UNL     1       4.482   3.811  19.167  0.00  0.00    +0.000 C 
ATOM     24  C   UNL     1       3.622   2.233  17.470  0.00  0.00    +0.000 C 
ATOM     25  C   UNL     1       4.556   4.417  16.771  0.00  0.00    +0.000 C 
ENDBRANCH  21  22
ENDBRANCH  15  16
ENDBRANCH   4  15
TORSDOF 6
ENDMDL
MODEL 3
REMARK VINA RESULT:      -7.0      1.622      2.661
REMARK  Name = 
REMARK  10 active torsions:
REMARK  status: ('A' for Active; 'I' for Inactive)
REMARK    1  A    between atoms: C_1  and  C_2
REMARK    2  A    between atoms: C_2  and  C_3
REMARK    3  A    between atoms: C_5  and  C_6
REMARK    4  A    between atoms: C_6  and  N_7
REMARK    5  A    between atoms: N_10  and  C_11
REMARK    6  A    between atoms: C_11  and  C_12
REMARK    7  A    between atoms: C_17  and  C_18
REMARK    8  A    between atoms: C_18  and  C_19
REMARK    9  A    between atoms: C_18  and  C_20
REMARK   10  A    between atoms: C_18  and  C_21
REMARK                            x       y       z     vdW  Elec       q    Type
REMARK                         _______ _______ _______ _____ _____    ______ ____
ROOT
ATOM      1  N   UNL     1       0.857   9.778  19.972  0.00  0.00    +0.000 N 
ATOM      2  C   UNL     1       1.324   8.653  20.580  0.00  0.00    +0.000 C 
ATOM      3  O   UNL     1       1.322   8.549  21.806  0.00  0.00    +0.000 OA
ATOM      4  N   UNL     1       1.740   7.667  19.723  0.00  0.00    +0.000 N 
ATOM      5  H   UNL     1       0.404  10.442  20.589  0.00  0.00    +0.000 HD
ATOM      6  H   UNL     1       2.106   7.978  18.841  0.00  0.00    +0.000 HD
ENDROOT
BRANCH   1   7
ATOM      7  C   UNL     1       0.556   9.887  18.568  0.00  0.00    +0.000 C 
BRANCH   7  10
ATOM      8  C   UNL     1      -2.657  10.711  17.128  0.00  0.00    +0.000 A 
ATOM      9  N   UNL     1      -1.498  10.086  17.153  0.00  0.00    +0.000 NA
ATOM     10  C   UNL     1      -0.823  10.390  18.327  0.00  0.00    +0.000 A 
ATOM     11  C   UNL     1      -1.510  11.230  19.186  0.00  0.00    +0.000 A 
ATOM     12  S   UNL     1      -3.025  11.649  18.522  0.00  0.00    +0.000 S 
BRANCH   8  14
ATOM     13  C   UNL     1      -2.954  10.077  14.745  0.00  0.00    +0.000 C 
ATOM     14  C   UNL     1      -3.611  10.679  15.977  0.00  0.00    +0.000 C 
ENDBRANCH   8  14
ENDBRANCH   7  10
ENDBRANCH   1   7
BRANCH   4  15
ATOM     15  C   UNL     1       2.262   6.412  20.214  0.00  0.00    +0.000 C 
BRANCH  15  16
ATOM     16  C   UNL     1       3.385   5.869  19.323  0.00  0.00    +0.000 C 
ATOM     17  C   UNL     1       3.459   6.579  17.972  0.00  0.00    +0.000 C 
ATOM     18  C   UNL     1       4.649   6.085  17.161  0.00  0.00    +0.000 C 
ATOM     19  C   UNL     1       4.873   4.580  17.217  0.00  0.00    +0.000 C 
ATOM     20  O   UNL     1       4.639   3.979  18.486  0.00  0.00    +0.000 OA
ATOM     21  C   UNL     1       3.413   4.326  19.161  0.00  0.00    +0.000 C 
BRANCH  21  22
ATOM     22  C   UNL     1       2.176   3.480  18.649  0.00  0.00    +0.000 C 
ATOM     23  C   UNL     1       1.416   4.332  17.596  0.00  0.00    +0.000 C 
ATOM     24  C   UNL     1       2.594   2.184  17.929  0.00  0.00    +0.000 C 
ATOM     25  C   UNL     1       1.140   3.091  19.717  0.00  0.00    +0.000 C 
ENDBRANCH  21  22
ENDBRANCH  15  16
ENDBRANCH   4  15
TORSDOF 6
ENDMDL
MODEL 4
REMARK VINA RESULT:      -6.9      1.415      1.569
REMARK  Name = 
REMARK  10 active torsions:
REMARK  status: ('A' for Active; 'I' for Inactive)
REMARK    1  A    between atoms: C_1  and  C_2
REMARK    2  A    between atoms: C_2  and  C_3
REMARK    3  A    between atoms: C_5  and  C_6
REMARK    4  A    between atoms: C_6  and  N_7
REMARK    5  A    between atoms: N_10  and  C_11
REMARK    6  A    between atoms: C_11  and  C_12
REMARK    7  A    between atoms: C_17  and  C_18
REMARK    8  A    between atoms: C_18  and  C_19
REMARK    9  A    between atoms: C_18  and  C_20
REMARK   10  A    between atoms: C_18  and  C_21
REMARK                            x       y       z     vdW  Elec       q    Type
REMARK                         _______ _______ _______ _____ _____    ______ ____
ROOT
ATOM      1  N   UNL     1       1.047   9.670  19.995  0.00  0.00    +0.000 N 
ATOM      2  C   UNL     1       1.395   8.583  20.735  0.00  0.00    +0.000 C 
ATOM      3  O   UNL     1       1.472   8.652  21.962  0.00  0.00    +0.000 OA
ATOM      4  N   UNL     1       1.599   7.436  20.013  0.00  0.00    +0.000 N 
ATOM      5  H   UNL     1       0.741  10.474  20.530  0.00  0.00    +0.000 HD
ATOM      6  H   UNL     1       1.936   7.563  19.075  0.00  0.00    +0.000 HD
ENDROOT
BRANCH   1   7
ATOM      7  C   UNL     1       0.656   9.628  18.608  0.00  0.00    +0.000 C 
BRANCH   7  10
ATOM      8  C   UNL     1      -2.566  10.551  17.252  0.00  0.00    +0.000 A 
ATOM      9  N   UNL     1      -1.452   9.848  17.280  0.00  0.00    +0.000 NA
ATOM     10  C   UNL     1      -0.696  10.207  18.388  0.00  0.00    +0.000 A 
ATOM     11  C   UNL     1      -1.276  11.168  19.196  0.00  0.00    +0.000 A 
ATOM     12  S   UNL     1      -2.793  11.635  18.568  0.00  0.00    +0.000 S 
BRANCH   8  14
ATOM     13  C   UNL     1      -2.907  10.290  14.805  0.00  0.00    +0.000 C 
ATOM     14  C   UNL     1      -3.580  10.486  16.155  0.00  0.00    +0.000 C 
ENDBRANCH   8  14
ENDBRANCH   7  10
ENDBRANCH   1   7
BRANCH   4  15
ATOM     15  C   UNL     1       1.974   6.197  20.655  0.00  0.00    +0.000 C 
BRANCH  15  16
ATOM     16  C   UNL     1       1.595   4.974  19.812  0.00  0.00    +0.000 C 
ATOM     17  C   UNL     1       1.878   3.655  20.530  0.00  0.00    +0.000 C 
ATOM     18  C   UNL     1       1.392   2.471  19.706  0.00  0.00    +0.000 C 
ATOM     19  C   UNL     1       1.680   2.576  18.214  0.00  0.00    +0.000 C 
ATOM     20  O   UNL     1       1.530   3.877  17.658  0.00  0.00    +0.000 OA
ATOM     21  C   UNL     1       2.154   4.969  18.365  0.00  0.00    +0.000 C 
BRANCH  21  22
ATOM     22  C   UNL     1       3.694   5.115  18.023  0.00  0.00    +0.000 C 
ATOM     23  C   UNL     1       3.950   6.583  17.590  0.00  0.00    +0.000 C 
ATOM     24  C   UNL     1       4.603   4.863  19.240  0.00  0.00    +0.000 C 
ATOM     25  C   UNL     1       4.214   4.230  16.878  0.00  0.00    +0.000 C 
ENDBRANCH  21  22
ENDBRANCH  15  16
ENDBRANCH   4  15
TORSDOF 6
ENDMDL
MODEL 5
REMARK VINA RESULT:      -6.8      5.656      7.812
REMARK  Name = 
REMARK  10 active torsions:
REMARK  status: ('A' for Active; 'I' for Inactive)
REMARK    1  A    between atoms: C_1  and  C_2
REMARK    2  A    between atoms: C_2  and  C_3
REMARK    3  A    between atoms: C_5  and  C_6
REMARK    4  A    between atoms: C_6  and  N_7
REMARK    5  A    between atoms: N_10  and  C_11
REMARK    6  A    between atoms: C_11  and  C_12
REMARK    7  A    between atoms: C_17  and  C_18
REMARK    8  A    between atoms: C_18  and  C_19
REMARK    9  A    between atoms: C_18  and  C_20
REMARK   10  A    between atoms: C_18  and  C_21
REMARK                            x       y       z     vdW  Elec       q    Type
REMARK                         _______ _______ _______ _____ _____    ______ ____
ROOT
ATOM      1  N   UNL     1       6.154   6.183  15.806  0.00  0.00    +0.000 N 
ATOM      2  C   UNL     1       5.404   6.185  16.942  0.00  0.00    +0.000 C 
ATOM      3  O   UNL     1       4.447   6.949  17.066  0.00  0.00    +0.000 OA
ATOM      4  N   UNL     1       5.777   5.258  17.880  0.00  0.00    +0.000 N 
ATOM      5  H   UNL     1       5.789   6.750  15.050  0.00  0.00    +0.000 HD
ATOM      6  H   UNL     1       6.752   5.017  17.894  0.00  0.00    +0.000 HD
ENDROOT
BRANCH   1   7
ATOM      7  C   UNL     1       7.099   5.156  15.448  0.00  0.00    +0.000 C 
BRANCH   7  10
ATOM      8  C   UNL     1       6.090   3.513  12.389  0.00  0.00    +0.000 A 
ATOM      9  N   UNL     1       5.973   3.806  13.668  0.00  0.00    +0.000 NA
ATOM     10  C   UNL     1       6.949   4.724  14.033  0.00  0.00    +0.000 A 
ATOM     11  C   UNL     1       7.776   5.128  13.000  0.00  0.00    +0.000 A 
ATOM     12  S   UNL     1       7.332   4.352  11.546  0.00  0.00    +0.000 S 
BRANCH   8  14
ATOM     13  C   UNL     1       3.987   3.126  11.125  0.00  0.00    +0.000 C 
ATOM     14  C   UNL     1       5.258   2.497  11.674  0.00  0.00    +0.000 C 
ENDBRANCH   8  14
ENDBRANCH   7  10
ENDBRANCH   1   7
BRANCH   4  15
ATOM     15  C   UNL     1       5.080   5.135  19.138  0.00  0.00    +0.000 C 
BRANCH  15  16
ATOM     16  C   UNL     1       4.403   3.768  19.291  0.00  0.00    +0.000 C 
ATOM     17  C   UNL     1       4.243   3.041  17.956  0.00  0.00    +0.000 C 
ATOM     18  C   UNL     1       3.665   1.647  18.161  0.00  0.00    +0.000 C 
ATOM     19  C   UNL     1       2.538   1.572  19.183  0.00  0.00    +0.000 C 
ATOM     20  O   UNL     1       2.705   2.397  20.331  0.00  0.00    +0.000 OA
ATOM     21  C   UNL     1       3.082   3.771  20.103  0.00  0.00    +0.000 C 
BRANCH  21  22
ATOM     22  C   UNL     1       1.842   4.692  19.751  0.00  0.00    +0.000 C 
ATOM     23  C   UNL     1       2.040   6.054  20.467  0.00  0.00    +0.000 C 
ATOM     24  C   UNL     1       1.741   5.010  18.248  0.00  0.00    +0.000 C 
ATOM     25  C   UNL     1       0.467   4.166  20.196  0.00  0.00    +0.000 C 
ENDBRANCH  21  22
ENDBRANCH  15  16
ENDBRANCH   4  15
TORSDOF 6
ENDMDL
MODEL 6
REMARK VINA RESULT:      -6.8      3.850      6.083
REMARK  Name = 
REMARK  10 active torsions:
REMARK  status: ('A' for Active; 'I' for Inactive)
REMARK    1  A    between atoms: C_1  and  C_2
REMARK    2  A    between atoms: C_2  and  C_3
REMARK    3  A    between atoms: C_5  and  C_6
REMARK    4  A    between atoms: C_6  and  N_7
REMARK    5  A    between atoms: N_10  and  C_11
REMARK    6  A    between atoms: C_11  and  C_12
REMARK    7  A    between atoms: C_17  and  C_18
REMARK    8  A    between atoms: C_18  and  C_19
REMARK    9  A    between atoms: C_18  and  C_20
REMARK   10  A    between atoms: C_18  and  C_21
REMARK                            x       y       z     vdW  Elec       q    Type
REMARK                         _______ _______ _______ _____ _____    ______ ____
ROOT
ATOM      1  N   UNL     1       2.886   3.149  20.748  0.00  0.00    +0.000 N 
ATOM      2  C   UNL     1       3.873   2.729  19.911  0.00  0.00    +0.000 C 
ATOM      3  O   UNL     1       4.797   2.029  20.324  0.00  0.00    +0.000 OA
ATOM      4  N   UNL     1       3.720   3.111  18.603  0.00  0.00    +0.000 N 
ATOM      5  H   UNL     1       2.907   2.741  21.675  0.00  0.00    +0.000 HD
ATOM      6  H   UNL     1       3.239   3.979  18.454  0.00  0.00    +0.000 HD
ENDROOT
BRANCH   1   7
ATOM      7  C   UNL     1       1.634   3.720  20.319  0.00  0.00    +0.000 C 
BRANCH   7  10
ATOM      8  C   UNL     1       2.320   7.025  19.023  0.00  0.00    +0.000 A 
ATOM      9  N   UNL     1       2.256   5.712  18.939  0.00  0.00    +0.000 NA
ATOM     10  C   UNL     1       1.730   5.190  20.113  0.00  0.00    +0.000 A 
ATOM     11  C   UNL     1       1.381   6.137  21.061  0.00  0.00    +0.000 A 
ATOM     12  S   UNL     1       1.712   7.707  20.480  0.00  0.00    +0.000 S 
BRANCH   8  14
ATOM     13  C   UNL     1       2.047   9.143  17.754  0.00  0.00    +0.000 C 
ATOM     14  C   UNL     1       2.911   7.911  17.974  0.00  0.00    +0.000 C 
ENDBRANCH   8  14
ENDBRANCH   7  10
ENDBRANCH   1   7
BRANCH   4  15
ATOM     15  C   UNL     1       4.685   2.743  17.593  0.00  0.00    +0.000 C 
BRANCH  15  16
ATOM     16  C   UNL     1       4.818   3.816  16.506  0.00  0.00    +0.000 C 
ATOM     17  C   UNL     1       5.676   3.356  15.328  0.00  0.00    +0.000 C 
ATOM     18  C   UNL     1       5.697   4.406  14.226  0.00  0.00    +0.000 C 
ATOM     19  C   UNL     1       5.830   5.841  14.721  0.00  0.00    +0.000 C 
ATOM     20  O   UNL     1       5.110   6.141  15.911  0.00  0.00    +0.000 OA
ATOM     21  C   UNL     1       5.246   5.219  17.011  0.00  0.00    +0.000 C 
BRANCH  21  22
ATOM     22  C   UNL     1       6.555   5.479  17.864  0.00  0.00    +0.000 C 
ATOM     23  C   UNL     1       7.055   6.914  17.547  0.00  0.00    +0.000 C 
ATOM     24  C   UNL     1       6.298   5.441  19.382  0.00  0.00    +0.000 C 
ATOM     25  C   UNL     1       7.738   4.537  17.582  0.00  0.00    +0.000 C 
ENDBRANCH  21  22
ENDBRANCH  15  16
ENDBRANCH   4  15
TORSDOF 6
ENDMDL
MODEL 7
REMARK VINA RESULT:      -6.7      2.548      3.721
REMARK  Name = 
REMARK  10 active torsions:
REMARK  status: ('A' for Active; 'I' for Inactive)
REMARK    1  A    between atoms: C_1  and  C_2
REMARK    2  A    between atoms: C_2  and  C_3
REMARK    3  A    between atoms: C_5  and  C_6
REMARK    4  A    between atoms: C_6  and  N_7
REMARK    5  A    between atoms: N_10  and  C_11
REMARK    6  A    between atoms: C_11  and  C_12
REMARK    7  A    between atoms: C_17  and  C_18
REMARK    8  A    between atoms: C_18  and  C_19
REMARK    9  A    between atoms: C_18  and  C_20
REMARK   10  A    between atoms: C_18  and  C_21
REMARK                            x       y       z     vdW  Elec       q    Type
REMARK                         _______ _______ _______ _____ _____    ______ ____
ROOT
ATOM      1  N   UNL     1       0.968  10.009  17.966  0.00  0.00    +0.000 N 
ATOM      2  C   UNL     1       1.802   8.943  18.105  0.00  0.00    +0.000 C 
ATOM      3  O   UNL     1       2.598   8.642  17.216  0.00  0.00    +0.000 OA
ATOM      4  N   UNL     1       1.703   8.288  19.306  0.00  0.00    +0.000 N 
ATOM      5  H   UNL     1       1.145  10.589  17.154  0.00  0.00    +0.000 HD
ATOM      6  H   UNL     1       0.800   8.309  19.744  0.00  0.00    +0.000 HD
ENDROOT
BRANCH   1   7
ATOM      7  C   UNL     1       0.214  10.607  19.039  0.00  0.00    +0.000 C 
BRANCH   7  10
ATOM      8  C   UNL     1       2.319  13.513  19.489  0.00  0.00    +0.000 A 
ATOM      9  N   UNL     1       1.886  12.456  18.831  0.00  0.00    +0.000 NA
ATOM     10  C   UNL     1       0.830  11.873  19.518  0.00  0.00    +0.000 A 
ATOM     11  C   UNL     1       0.468  12.526  20.683  0.00  0.00    +0.000 A 
ATOM     12  S   UNL     1       1.460  13.894  20.930  0.00  0.00    +0.000 S 
BRANCH   8  14
ATOM     13  C   UNL     1       3.221  15.083  17.788  0.00  0.00    +0.000 C 
ATOM     14  C   UNL     1       3.499  14.336  19.084  0.00  0.00    +0.000 C 
ENDBRANCH   8  14
ENDBRANCH   7  10
ENDBRANCH   1   7
BRANCH   4  15
ATOM     15  C   UNL     1       2.522   7.136  19.606  0.00  0.00    +0.000 C 
BRANCH  15  16
ATOM     16  C   UNL     1       1.822   5.822  19.243  0.00  0.00    +0.000 C 
ATOM     17  C   UNL     1       1.681   4.881  20.439  0.00  0.00    +0.000 C 
ATOM     18  C   UNL     1       0.889   3.637  20.063  0.00  0.00    +0.000 C 
ATOM     19  C   UNL     1       1.239   3.051  18.701  0.00  0.00    +0.000 C 
ATOM     20  O   UNL     1       1.498   4.007  17.679  0.00  0.00    +0.000 OA
ATOM     21  C   UNL     1       2.396   5.088  18.003  0.00  0.00    +0.000 C 
BRANCH  21  22
ATOM     22  C   UNL     1       3.919   4.677  17.859  0.00  0.00    +0.000 C 
ATOM     23  C   UNL     1       4.014   3.559  16.786  0.00  0.00    +0.000 C 
ATOM     24  C   UNL     1       4.805   5.830  17.354  0.00  0.00    +0.000 C 
ATOM     25  C   UNL     1       4.586   4.115  19.126  0.00  0.00    +0.000 C 
ENDBRANCH  21  22
ENDBRANCH  15  16
ENDBRANCH   4  15
TORSDOF 6
ENDMDL
MODEL 8
REMARK VINA RESULT:      -6.7      1.666      2.572
REMARK  Name = 
REMARK  10 active torsions:
REMARK  status: ('A' for Active; 'I' for Inactive)
REMARK    1  A    between atoms: C_1  and  C_2
REMARK    2  A    between atoms: C_2  and  C_3
REMARK    3  A    between atoms: C_5  and  C_6
REMARK    4  A    between atoms: C_6  and  N_7
REMARK    5  A    between atoms: N_10  and  C_11
REMARK    6  A    between atoms: C_11  and  C_12
REMARK    7  A    between atoms: C_17  and  C_18
REMARK    8  A    between atoms: C_18  and  C_19
REMARK    9  A    between atoms: C_18  and  C_20
REMARK   10  A    between atoms: C_18  and  C_21
REMARK                            x       y       z     vdW  Elec       q    Type
REMARK                         _______ _______ _______ _____ _____    ______ ____
ROOT
ATOM      1  N   UNL     1       0.680   9.704  19.895  0.00  0.00    +0.000 N 
ATOM      2  C   UNL     1       1.340   8.584  20.300  0.00  0.00    +0.000 C 
ATOM      3  O   UNL     1       1.308   8.222  21.476  0.00  0.00    +0.000 OA
ATOM      4  N   UNL     1       1.983   7.902  19.300  0.00  0.00    +0.000 N 
ATOM      5  H   UNL     1       0.076  10.122  20.593  0.00  0.00    +0.000 HD
ATOM      6  H   UNL     1       2.315   8.458  18.532  0.00  0.00    +0.000 HD
ENDROOT
BRANCH   1   7
ATOM      7  C   UNL     1       0.422  10.052  18.521  0.00  0.00    +0.000 C 
BRANCH   7  10
ATOM      8  C   UNL     1      -2.831  11.594  18.864  0.00  0.00    +0.000 A 
ATOM      9  N   UNL     1      -1.572  11.399  19.203  0.00  0.00    +0.000 NA
ATOM     10  C   UNL     1      -0.976  10.516  18.313  0.00  0.00    +0.000 A 
ATOM     11  C   UNL     1      -1.802  10.077  17.294  0.00  0.00    +0.000 A 
ATOM     12  S   UNL     1      -3.352  10.777  17.443  0.00  0.00    +0.000 S 
BRANCH   8  14
ATOM     13  C   UNL     1      -3.094  13.161  20.773  0.00  0.00    +0.000 C 
ATOM     14  C   UNL     1      -3.799  12.422  19.646  0.00  0.00    +0.000 C 
ENDBRANCH   8  14
ENDBRANCH   7  10
ENDBRANCH   1   7
BRANCH   4  15
ATOM     15  C   UNL     1       2.728   6.694  19.570  0.00  0.00    +0.000 C 
BRANCH  15  16
ATOM     16  C   UNL     1       1.881   5.435  19.350  0.00  0.00    +0.000 C 
ATOM     17  C   UNL     1       1.759   4.581  20.613  0.00  0.00    +0.000 C 
ATOM     18  C   UNL     1       0.827   3.400  20.383  0.00  0.00    +0.000 C 
ATOM     19  C   UNL     1       1.001   2.707  19.038  0.00  0.00    +0.000 C 
ATOM     20  O   UNL     1       1.257   3.574  17.938  0.00  0.00    +0.000 OA
ATOM     21  C   UNL     1       2.275   4.579  18.117  0.00  0.00    +0.000 C 
BRANCH  21  22
ATOM     22  C   UNL     1       3.736   4.015  17.877  0.00  0.00    +0.000 C 
ATOM     23  C   UNL     1       3.607   2.648  17.153  0.00  0.00    +0.000 C 
ATOM     24  C   UNL     1       4.578   4.912  16.950  0.00  0.00    +0.000 C 
ATOM     25  C   UNL     1       4.573   3.757  19.140  0.00  0.00    +0.000 C 
ENDBRANCH  21  22
ENDBRANCH  15  16
ENDBRANCH   4  15
TORSDOF 6
ENDMDL
MODEL 9
REMARK VINA RESULT:      -6.6      3.137      5.017
REMARK  Name = 
REMARK  10 active torsions:
REMARK  status: ('A' for Active; 'I' for Inactive)
REMARK    1  A    between atoms: C_1  and  C_2
REMARK    2  A    between atoms: C_2  and  C_3
REMARK    3  A    between atoms: C_5  and  C_6
REMARK    4  A    between atoms: C_6  and  N_7
REMARK    5  A    between atoms: N_10  and  C_11
REMARK    6  A    between atoms: C_11  and  C_12
REMARK    7  A    between atoms: C_17  and  C_18
REMARK    8  A    between atoms: C_18  and  C_19
REMARK    9  A    between atoms: C_18  and  C_20
REMARK   10  A    between atoms: C_18  and  C_21
REMARK                            x       y       z     vdW  Elec       q    Type
REMARK                         _______ _______ _______ _____ _____    ______ ____
ROOT
ATOM      1  N   UNL     1       2.192   7.297  19.736  0.00  0.00    +0.000 N 
ATOM      2  C   UNL     1       2.712   6.075  19.437  0.00  0.00    +0.000 C 
ATOM      3  O   UNL     1       2.718   5.170  20.270  0.00  0.00    +0.000 OA
ATOM      4  N   UNL     1       3.171   5.944  18.152  0.00  0.00    +0.000 N 
ATOM      5  H   UNL     1       1.710   7.352  20.625  0.00  0.00    +0.000 HD
ATOM      6  H   UNL     1       3.520   6.782  17.723  0.00  0.00    +0.000 HD
ENDROOT
BRANCH   1   7
ATOM      7  C   UNL     1       1.882   8.316  18.766  0.00  0.00    +0.000 C 
BRANCH   7  10
ATOM      8  C   UNL     1       0.170  10.584  21.002  0.00  0.00    +0.000 A 
ATOM      9  N   UNL     1       0.800   9.465  20.706  0.00  0.00    +0.000 NA
ATOM     10  C   UNL     1       1.223   9.498  19.385  0.00  0.00    +0.000 A 
ATOM     11  C   UNL     1       0.922  10.667  18.710  0.00  0.00    +0.000 A 
ATOM     12  S   UNL     1       0.096  11.750  19.739  0.00  0.00    +0.000 S 
BRANCH   8  14
ATOM     13  C   UNL     1      -0.387   9.659  23.239  0.00  0.00    +0.000 C 
ATOM     14  C   UNL     1      -0.492  10.861  22.313  0.00  0.00    +0.000 C 
ENDBRANCH   8  14
ENDBRANCH   7  10
ENDBRANCH   1   7
BRANCH   4  15
ATOM     15  C   UNL     1       3.752   4.708  17.682  0.00  0.00    +0.000 C 
BRANCH  15  16
ATOM     16  C   UNL     1       4.710   4.933  16.506  0.00  0.00    +0.000 C 
ATOM     17  C   UNL     1       5.185   3.623  15.877  0.00  0.00    +0.000 C 
ATOM     18  C   UNL     1       6.048   3.889  14.652  0.00  0.00    +0.000 C 
ATOM     19  C   UNL     1       7.040   5.034  14.811  0.00  0.00    +0.000 C 
ATOM     20  O   UNL     1       6.557   6.157  15.539  0.00  0.00    +0.000 OA
ATOM     21  C   UNL     1       5.895   5.892  16.793  0.00  0.00    +0.000 C 
BRANCH  21  22
ATOM     22  C   UNL     1       6.914   5.689  17.988  0.00  0.00    +0.000 C 
ATOM     23  C   UNL     1       7.843   4.498  17.626  0.00  0.00    +0.000 C 
ATOM     24  C   UNL     1       7.838   6.902  18.200  0.00  0.00    +0.000 C 
ATOM     25  C   UNL     1       6.291   5.350  19.352  0.00  0.00    +0.000 C 
ENDBRANCH  21  22
ENDBRANCH  15  16
ENDBRANCH   4  15
TORSDOF 6
ENDMDL
