MODEL 1
REMARK VINA RESULT:      -7.8      0.000      0.000
REMARK  Name = 
REMARK  3 active torsions:
REMARK  status: ('A' for Active; 'I' for Inactive)
REMARK    1  A    between atoms: C_1  and  C_2
REMARK    2  A    between atoms: C_6  and  O_7
REMARK    3  A    between atoms: C_12  and  O_13
REMARK                            x       y       z     vdW  Elec       q    Type
REMARK                         _______ _______ _______ _____ _____    ______ ____
ROOT
ATOM      1  C   UNL     1       1.613   3.484  20.878  0.00  0.00    +0.000 C 
ATOM      2  C   UNL     1       1.123   4.742  20.087  0.00  0.00    +0.000 C 
ATOM      3  C   UNL     1       1.583   5.972  20.945  0.00  0.00    +0.000 C 
ATOM      4  C   UNL     1       1.580   7.539  20.807  0.00  0.00    +0.000 C 
ATOM      5  C   UNL     1       1.601   8.675  19.721  0.00  0.00    +0.000 C 
ATOM      6  C   UNL     1       1.450   8.577  18.178  0.00  0.00    +0.000 C 
ATOM      7  C   UNL     1       2.679   8.039  17.470  0.00  0.00    +0.000 C 
ATOM      8  C   UNL     1       3.340   7.089  18.114  0.00  0.00    +0.000 C 
ATOM      9  C   UNL     1       4.480   6.255  17.890  0.00  0.00    +0.000 C 
ATOM     10  C   UNL     1       4.754   5.471  18.961  0.00  0.00    +0.000 C 
ATOM     11  C   UNL     1       5.172   4.029  18.940  0.00  0.00    +0.000 C 
ATOM     12  C   UNL     1       4.083   3.105  18.430  0.00  0.00    +0.000 C 
ATOM     13  C   UNL     1       3.155   3.459  17.512  0.00  0.00    +0.000 C 
ATOM     14  C   UNL     1       1.771   3.537  18.068  0.00  0.00    +0.000 C 
ATOM     15  O   UNL     1       0.949   2.649  18.059  0.00  0.00    +0.000 OA
ATOM     16  O   UNL     1       1.737   4.712  18.782  0.00  0.00    +0.000 OA
ENDROOT
BRANCH   6  17
ATOM     17  O   UNL     1       1.235   9.921  17.708  0.00  0.00    +0.000 OA
ATOM     18  H   UNL     1       0.596   9.908  16.976  0.00  0.00    +0.000 HD
ENDBRANCH   6  17
BRANCH  11  19
ATOM     19  O   UNL     1       6.386   3.882  18.251  0.00  0.00    +0.000 OA
ATOM     20  H   UNL     1       6.457   2.930  18.065  0.00  0.00    +0.000 HD
ENDBRANCH  11  19
TORSDOF 2
ENDMDL
MODEL 2
REMARK VINA RESULT:      -7.4      1.467      3.812
REMARK  Name = 
REMARK  3 active torsions:
REMARK  status: ('A' for Active; 'I' for Inactive)
REMARK    1  A    between atoms: C_1  and  C_2
REMARK    2  A    between atoms: C_6  and  O_7
REMARK    3  A    between atoms: C_12  and  O_13
REMARK                            x       y       z     vdW  Elec       q    Type
REMARK                         _______ _______ _______ _____ _____    ______ ____
ROOT
ATOM      1  C   UNL     1       5.322   5.877  16.463  0.00  0.00    +0.000 C 
ATOM      2  C   UNL     1       4.791   6.600  17.745  0.00  0.00    +0.000 C 
ATOM      3  C   UNL     1       3.523   7.394  17.273  0.00  0.00    +0.000 C 
ATOM      4  C   UNL     1       2.391   8.260  17.939  0.00  0.00    +0.000 C 
ATOM      5  C   UNL     1       1.620   8.436  19.297  0.00  0.00    +0.000 C 
ATOM      6  C   UNL     1       1.897   7.797  20.687  0.00  0.00    +0.000 C 
ATOM      7  C   UNL     1       1.500   6.337  20.785  0.00  0.00    +0.000 C 
ATOM      8  C   UNL     1       1.700   5.615  19.693  0.00  0.00    +0.000 C 
ATOM      9  C   UNL     1       1.548   4.254  19.282  0.00  0.00    +0.000 C 
ATOM     10  C   UNL     1       1.862   4.080  17.975  0.00  0.00    +0.000 C 
ATOM     11  C   UNL     1       2.630   2.937  17.376  0.00  0.00    +0.000 C 
ATOM     12  C   UNL     1       4.080   2.902  17.821  0.00  0.00    +0.000 C 
ATOM     13  C   UNL     1       4.515   3.331  19.028  0.00  0.00    +0.000 C 
ATOM     14  C   UNL     1       5.363   4.559  18.950  0.00  0.00    +0.000 C 
ATOM     15  O   UNL     1       6.571   4.585  18.884  0.00  0.00    +0.000 OA
ATOM     16  O   UNL     1       4.481   5.590  18.728  0.00  0.00    +0.000 OA
ENDROOT
BRANCH   6  17
ATOM     17  O   UNL     1       1.094   8.527  21.633  0.00  0.00    +0.000 OA
ATOM     18  H   UNL     1       0.287   8.023  21.828  0.00  0.00    +0.000 HD
ENDBRANCH   6  17
BRANCH  11  19
ATOM     19  O   UNL     1       1.958   1.726  17.598  0.00  0.00    +0.000 OA
ATOM     20  H   UNL     1       2.533   1.223  18.200  0.00  0.00    +0.000 HD
ENDBRANCH  11  19
TORSDOF 2
ENDMDL
MODEL 3
REMARK VINA RESULT:      -6.4      2.648      4.918
REMARK  Name = 
REMARK  3 active torsions:
REMARK  status: ('A' for Active; 'I' for Inactive)
REMARK    1  A    between atoms: C_1  and  C_2
REMARK    2  A    between atoms: C_6  and  O_7
REMARK    3  A    between atoms: C_12  and  O_13
REMARK                            x       y       z     vdW  Elec       q    Type
REMARK                         _______ _______ _______ _____ _____    ______ ____
ROOT
ATOM      1  C   UNL     1       6.006   4.034  15.054  0.00  0.00    +0.000 C 
ATOM      2  C   UNL     1       4.626   4.179  15.778  0.00  0.00    +0.000 C 
ATOM      3  C   UNL     1       4.479   2.881  16.645  0.00  0.00    +0.000 C 
ATOM      4  C   UNL     1       3.471   2.316  17.713  0.00  0.00    +0.000 C 
ATOM      5  C   UNL     1       2.441   2.793  18.799  0.00  0.00    +0.000 C 
ATOM      6  C   UNL     1       1.895   4.218  19.095  0.00  0.00    +0.000 C 
ATOM      7  C   UNL     1       2.885   5.122  19.805  0.00  0.00    +0.000 C 
ATOM      8  C   UNL     1       4.151   4.978  19.446  0.00  0.00    +0.000 C 
ATOM      9  C   UNL     1       5.413   5.576  19.754  0.00  0.00    +0.000 C 
ATOM     10  C   UNL     1       6.436   4.966  19.108  0.00  0.00    +0.000 C 
ATOM     11  C   UNL     1       7.616   5.629  18.458  0.00  0.00    +0.000 C 
ATOM     12  C   UNL     1       7.233   6.464  17.250  0.00  0.00    +0.000 C 
ATOM     13  C   UNL     1       6.052   7.109  17.116  0.00  0.00    +0.000 C 
ATOM     14  C   UNL     1       5.184   6.538  16.042  0.00  0.00    +0.000 C 
ATOM     15  O   UNL     1       5.134   6.915  14.894  0.00  0.00    +0.000 OA
ATOM     16  O   UNL     1       4.669   5.381  16.575  0.00  0.00    +0.000 OA
ENDROOT
BRANCH   6  17
ATOM     17  O   UNL     1       0.765   4.044  19.969  0.00  0.00    +0.000 OA
ATOM     18  H   UNL     1       1.055   3.613  20.790  0.00  0.00    +0.000 HD
ENDBRANCH   6  17
BRANCH  11  19
ATOM     19  O   UNL     1       8.360   6.345  19.408  0.00  0.00    +0.000 OA
ATOM     20  H   UNL     1       9.280   6.059  19.276  0.00  0.00    +0.000 HD
ENDBRANCH  11  19
TORSDOF 2
ENDMDL
MODEL 4
REMARK VINA RESULT:      -5.9      1.898      4.769
REMARK  Name = 
REMARK  3 active torsions:
REMARK  status: ('A' for Active; 'I' for Inactive)
REMARK    1  A    between atoms: C_1  and  C_2
REMARK    2  A    between atoms: C_6  and  O_7
REMARK    3  A    between atoms: C_12  and  O_13
REMARK                            x       y       z     vdW  Elec       q    Type
REMARK                         _______ _______ _______ _____ _____    ______ ____
ROOT
ATOM      1  C   UNL     1       1.127   2.645  18.483  0.00  0.00    +0.000 C 
ATOM      2  C   UNL     1       2.683   2.606  18.324  0.00  0.00    +0.000 C 
ATOM      3  C   UNL     1       2.974   3.304  16.950  0.00  0.00    +0.000 C 
ATOM      4  C   UNL     1       4.238   3.751  16.129  0.00  0.00    +0.000 C 
ATOM      5  C   UNL     1       5.733   4.197  16.324  0.00  0.00    +0.000 C 
ATOM      6  C   UNL     1       6.616   4.179  17.603  0.00  0.00    +0.000 C 
ATOM      7  C   UNL     1       6.283   5.273  18.599  0.00  0.00    +0.000 C 
ATOM      8  C   UNL     1       4.998   5.575  18.708  0.00  0.00    +0.000 C 
ATOM      9  C   UNL     1       4.179   6.453  19.485  0.00  0.00    +0.000 C 
ATOM     10  C   UNL     1       2.876   6.389  19.119  0.00  0.00    +0.000 C 
ATOM     11  C   UNL     1       1.682   6.389  20.030  0.00  0.00    +0.000 C 
ATOM     12  C   UNL     1       1.594   5.141  20.888  0.00  0.00    +0.000 C 
ATOM     13  C   UNL     1       2.667   4.445  21.329  0.00  0.00    +0.000 C 
ATOM     14  C   UNL     1       2.787   3.089  20.712  0.00  0.00    +0.000 C 
ATOM     15  O   UNL     1       2.354   2.058  21.173  0.00  0.00    +0.000 OA
ATOM     16  O   UNL     1       3.260   3.314  19.441  0.00  0.00    +0.000 OA
ENDROOT
BRANCH   6  17
ATOM     17  O   UNL     1       7.969   4.395  17.161  0.00  0.00    +0.000 OA
ATOM     18  H   UNL     1       8.407   5.024  17.759  0.00  0.00    +0.000 HD
ENDBRANCH   6  17
BRANCH  11  19
ATOM     19  O   UNL     1       1.637   7.575  20.778  0.00  0.00    +0.000 OA
ATOM     20  H   UNL     1       0.876   7.469  21.375  0.00  0.00    +0.000 HD
ENDBRANCH  11  19
TORSDOF 2
ENDMDL
MODEL 5
REMARK VINA RESULT:      -5.8      2.432      5.080
REMARK  Name = 
REMARK  3 active torsions:
REMARK  status: ('A' for Active; 'I' for Inactive)
REMARK    1  A    between atoms: C_1  and  C_2
REMARK    2  A    between atoms: C_6  and  O_7
REMARK    3  A    between atoms: C_12  and  O_13
REMARK                            x       y       z     vdW  Elec       q    Type
REMARK                         _______ _______ _______ _____ _____    ______ ____
ROOT
ATOM      1  C   UNL     1       5.778   7.758  17.145  0.00  0.00    +0.000 C 
ATOM      2  C   UNL     1       5.124   6.823  18.216  0.00  0.00    +0.000 C 
ATOM      3  C   UNL     1       3.605   6.756  17.830  0.00  0.00    +0.000 C 
ATOM      4  C   UNL     1       2.326   5.978  18.313  0.00  0.00    +0.000 C 
ATOM      5  C   UNL     1       1.897   4.632  19.003  0.00  0.00    +0.000 C 
ATOM      6  C   UNL     1       2.771   3.537  19.676  0.00  0.00    +0.000 C 
ATOM      7  C   UNL     1       3.523   2.658  18.694  0.00  0.00    +0.000 C 
ATOM      8  C   UNL     1       3.976   3.269  17.610  0.00  0.00    +0.000 C 
ATOM      9  C   UNL     1       4.742   2.934  16.450  0.00  0.00    +0.000 C 
ATOM     10  C   UNL     1       4.859   3.983  15.599  0.00  0.00    +0.000 C 
ATOM     11  C   UNL     1       6.087   4.395  14.839  0.00  0.00    +0.000 C 
ATOM     12  C   UNL     1       7.202   4.888  15.741  0.00  0.00    +0.000 C 
ATOM     13  C   UNL     1       7.416   4.440  16.999  0.00  0.00    +0.000 C 
ATOM     14  C   UNL     1       7.146   5.469  18.048  0.00  0.00    +0.000 C 
ATOM     15  O   UNL     1       7.962   6.216  18.539  0.00  0.00    +0.000 OA
ATOM     16  O   UNL     1       5.776   5.538  18.139  0.00  0.00    +0.000 OA
ENDROOT
BRANCH   6  17
ATOM     17  O   UNL     1       1.865   2.691  20.408  0.00  0.00    +0.000 OA
ATOM     18  H   UNL     1       2.062   2.753  21.357  0.00  0.00    +0.000 HD
ENDBRANCH   6  17
BRANCH  11  19
ATOM     19  O   UNL     1       6.493   3.369  13.972  0.00  0.00    +0.000 OA
ATOM     20  H   UNL     1       5.734   3.222  13.382  0.00  0.00    +0.000 HD
ENDBRANCH  11  19
TORSDOF 2
ENDMDL
MODEL 6
REMARK VINA RESULT:      -5.6      1.663      4.965
REMARK  Name = 
REMARK  3 active torsions:
REMARK  status: ('A' for Active; 'I' for Inactive)
REMARK    1  A    between atoms: C_1  and  C_2
REMARK    2  A    between atoms: C_6  and  O_7
REMARK    3  A    between atoms: C_12  and  O_13
REMARK                            x       y       z     vdW  Elec       q    Type
REMARK                         _______ _______ _______ _____ _____    ______ ____
ROOT
ATOM      1  C   UNL     1       1.233   3.883  18.371  0.00  0.00    +0.000 C 
ATOM      2  C   UNL     1       2.782   3.669  18.435  0.00  0.00    +0.000 C 
ATOM      3  C   UNL     1       3.247   3.585  16.939  0.00  0.00    +0.000 C 
ATOM      4  C   UNL     1       4.609   3.489  16.159  0.00  0.00    +0.000 C 
ATOM      5  C   UNL     1       6.128   3.874  16.291  0.00  0.00    +0.000 C 
ATOM      6  C   UNL     1       6.911   4.424  17.515  0.00  0.00    +0.000 C 
ATOM      7  C   UNL     1       6.636   5.885  17.818  0.00  0.00    +0.000 C 
ATOM      8  C   UNL     1       5.390   6.286  17.616  0.00  0.00    +0.000 C 
ATOM      9  C   UNL     1       4.625   7.484  17.775  0.00  0.00    +0.000 C 
ATOM     10  C   UNL     1       3.352   7.336  17.334  0.00  0.00    +0.000 C 
ATOM     11  C   UNL     1       2.105   7.860  17.986  0.00  0.00    +0.000 C 
ATOM     12  C   UNL     1       1.814   7.200  19.320  0.00  0.00    +0.000 C 
ATOM     13  C   UNL     1       2.766   6.738  20.163  0.00  0.00    +0.000 C 
ATOM     14  C   UNL     1       2.772   5.250  20.292  0.00  0.00    +0.000 C 
ATOM     15  O   UNL     1       2.192   4.606  21.136  0.00  0.00    +0.000 OA
ATOM     16  O   UNL     1       3.357   4.793  19.134  0.00  0.00    +0.000 OA
ENDROOT
BRANCH   6  17
ATOM     17  O   UNL     1       8.308   4.307  17.187  0.00  0.00    +0.000 OA
ATOM     18  H   UNL     1       8.434   4.498  16.242  0.00  0.00    +0.000 HD
ENDBRANCH   6  17
BRANCH  11  19
ATOM     19  O   UNL     1       2.144   9.260  18.062  0.00  0.00    +0.000 OA
ATOM     20  H   UNL     1       2.633   9.543  17.269  0.00  0.00    +0.000 HD
ENDBRANCH  11  19
TORSDOF 2
ENDMDL
MODEL 7
REMARK VINA RESULT:      -5.6      9.485     10.690
REMARK  Name = 
REMARK  3 active torsions:
REMARK  status: ('A' for Active; 'I' for Inactive)
REMARK    1  A    between atoms: C_1  and  C_2
REMARK    2  A    between atoms: C_6  and  O_7
REMARK    3  A    between atoms: C_12  and  O_13
REMARK                            x       y       z     vdW  Elec       q    Type
REMARK                         _______ _______ _______ _____ _____    ______ ____
ROOT
ATOM      1  C   UNL     1      10.568  14.999  21.805  0.00  0.00    +0.000 C 
ATOM      2  C   UNL     1       9.118  14.938  21.221  0.00  0.00    +0.000 C 
ATOM      3  C   UNL     1       9.064  16.068  20.135  0.00  0.00    +0.000 C 
ATOM      4  C   UNL     1       8.043  16.580  19.054  0.00  0.00    +0.000 C 
ATOM      5  C   UNL     1       6.856  16.079  18.153  0.00  0.00    +0.000 C 
ATOM      6  C   UNL     1       6.096  14.724  18.173  0.00  0.00    +0.000 C 
ATOM      7  C   UNL     1       6.880  13.568  17.580  0.00  0.00    +0.000 C 
ATOM      8  C   UNL     1       8.183  13.580  17.815  0.00  0.00    +0.000 C 
ATOM      9  C   UNL     1       9.316  12.753  17.537  0.00  0.00    +0.000 C 
ATOM     10  C   UNL     1      10.470  13.306  17.982  0.00  0.00    +0.000 C 
ATOM     11  C   UNL     1      11.607  12.598  18.661  0.00  0.00    +0.000 C 
ATOM     12  C   UNL     1      11.234  12.059  20.029  0.00  0.00    +0.000 C 
ATOM     13  C   UNL     1       9.995  11.635  20.367  0.00  0.00    +0.000 C 
ATOM     14  C   UNL     1       9.321  12.512  21.371  0.00  0.00    +0.000 C 
ATOM     15  O   UNL     1       9.332  12.358  22.571  0.00  0.00    +0.000 OA
ATOM     16  O   UNL     1       8.918  13.621  20.666  0.00  0.00    +0.000 OA
ENDROOT
BRANCH   6  17
ATOM     17  O   UNL     1       4.920  14.909  17.364  0.00  0.00    +0.000 OA
ATOM     18  H   UNL     1       5.171  15.309  16.516  0.00  0.00    +0.000 HD
ENDBRANCH   6  17
BRANCH  11  19
ATOM     19  O   UNL     1      12.150  11.621  17.814  0.00  0.00    +0.000 OA
ATOM     20  H   UNL     1      11.405  11.319  17.265  0.00  0.00    +0.000 HD
ENDBRANCH  11  19
TORSDOF 2
ENDMDL
MODEL 8
REMARK VINA RESULT:      -5.5      2.105      2.851
REMARK  Name = 
REMARK  3 active torsions:
REMARK  status: ('A' for Active; 'I' for Inactive)
REMARK    1  A    between atoms: C_1  and  C_2
REMARK    2  A    between atoms: C_6  and  O_7
REMARK    3  A    between atoms: C_12  and  O_13
REMARK                            x       y       z     vdW  Elec       q    Type
REMARK                         _______ _______ _______ _____ _____    ______ ____
ROOT
ATOM      1  C   UNL     1       0.994   4.491  20.314  0.00  0.00    +0.000 C 
ATOM      2  C   UNL     1       1.512   5.051  18.948  0.00  0.00    +0.000 C 
ATOM      3  C   UNL     1       2.451   6.249  19.326  0.00  0.00    +0.000 C 
ATOM      4  C   UNL     1       3.414   7.241  18.575  0.00  0.00    +0.000 C 
ATOM      5  C   UNL     1       4.312   7.340  17.289  0.00  0.00    +0.000 C 
ATOM      6  C   UNL     1       4.419   6.375  16.075  0.00  0.00    +0.000 C 
ATOM      7  C   UNL     1       5.183   5.098  16.367  0.00  0.00    +0.000 C 
ATOM      8  C   UNL     1       5.010   4.592  17.579  0.00  0.00    +0.000 C 
ATOM      9  C   UNL     1       5.437   3.445  18.318  0.00  0.00    +0.000 C 
ATOM     10  C   UNL     1       4.984   3.465  19.594  0.00  0.00    +0.000 C 
ATOM     11  C   UNL     1       4.448   2.303  20.380  0.00  0.00    +0.000 C 
ATOM     12  C   UNL     1       3.139   1.770  19.829  0.00  0.00    +0.000 C 
ATOM     13  C   UNL     1       2.798   1.799  18.521  0.00  0.00    +0.000 C 
ATOM     14  C   UNL     1       1.665   2.727  18.224  0.00  0.00    +0.000 C 
ATOM     15  O   UNL     1       0.494   2.426  18.174  0.00  0.00    +0.000 OA
ATOM     16  O   UNL     1       2.212   3.988  18.269  0.00  0.00    +0.000 OA
ENDROOT
BRANCH   6  17
ATOM     17  O   UNL     1       5.145   7.088  15.056  0.00  0.00    +0.000 OA
ATOM     18  H   UNL     1       5.666   7.797  15.467  0.00  0.00    +0.000 HD
ENDBRANCH   6  17
BRANCH  11  19
ATOM     19  O   UNL     1       5.431   1.311  20.518  0.00  0.00    +0.000 OA
ATOM     20  H   UNL     1       6.205   1.771  20.888  0.00  0.00    +0.000 HD
ENDBRANCH  11  19
TORSDOF 2
ENDMDL
MODEL 9
REMARK VINA RESULT:      -5.4      9.277     10.819
REMARK  Name = 
REMARK  3 active torsions:
REMARK  status: ('A' for Active; 'I' for Inactive)
REMARK    1  A    between atoms: C_1  and  C_2
REMARK    2  A    between atoms: C_6  and  O_7
REMARK    3  A    between atoms: C_12  and  O_13
REMARK                            x       y       z     vdW  Elec       q    Type
REMARK                         _______ _______ _______ _____ _____    ______ ____
ROOT
ATOM      1  C   UNL     1      11.247  12.056  20.470  0.00  0.00    +0.000 C 
ATOM      2  C   UNL     1       9.766  12.437  20.801  0.00  0.00    +0.000 C 
ATOM      3  C   UNL     1       9.862  13.729  21.685  0.00  0.00    +0.000 C 
ATOM      4  C   UNL     1       8.866  14.767  22.321  0.00  0.00    +0.000 C 
ATOM      5  C   UNL     1       7.440  15.390  22.103  0.00  0.00    +0.000 C 
ATOM      6  C   UNL     1       6.321  14.986  21.103  0.00  0.00    +0.000 C 
ATOM      7  C   UNL     1       6.593  15.403  19.670  0.00  0.00    +0.000 C 
ATOM      8  C   UNL     1       7.858  15.332  19.285  0.00  0.00    +0.000 C 
ATOM      9  C   UNL     1       8.615  15.555  18.092  0.00  0.00    +0.000 C 
ATOM     10  C   UNL     1       9.943  15.380  18.293  0.00  0.00    +0.000 C 
ATOM     11  C   UNL     1      10.915  14.703  17.370  0.00  0.00    +0.000 C 
ATOM     12  C   UNL     1      10.652  13.216  17.224  0.00  0.00    +0.000 C 
ATOM     13  C   UNL     1       9.425  12.650  17.301  0.00  0.00    +0.000 C 
ATOM     14  C   UNL     1       9.246  11.788  18.508  0.00  0.00    +0.000 C 
ATOM     15  O   UNL     1       9.428  10.594  18.562  0.00  0.00    +0.000 OA
ATOM     16  O   UNL     1       9.078  12.665  19.553  0.00  0.00    +0.000 OA
ENDROOT
BRANCH   6  17
ATOM     17  O   UNL     1       5.129  15.671  21.532  0.00  0.00    +0.000 OA
ATOM     18  H   UNL     1       4.569  15.859  20.761  0.00  0.00    +0.000 HD
ENDBRANCH   6  17
BRANCH  11  19
ATOM     19  O   UNL     1      10.971  15.375  16.140  0.00  0.00    +0.000 OA
ATOM     20  H   UNL     1      11.634  16.076  16.265  0.00  0.00    +0.000 HD
ENDBRANCH  11  19
TORSDOF 2
ENDMDL
