MODEL 1
REMARK VINA RESULT:      -8.0      0.000      0.000
REMARK  Name = 
REMARK  5 active torsions:
REMARK  status: ('A' for Active; 'I' for Inactive)
REMARK    1  A    between atoms: C_1  and  O_2
REMARK    2  A    between atoms: O_2  and  C_3
REMARK    3  A    between atoms: C_8  and  C_9
REMARK    4  A    between atoms: C_14  and  N_15
REMARK    5  A    between atoms: N_15  and  C_16
REMARK                            x       y       z     vdW  Elec       q    Type
REMARK                         _______ _______ _______ _____ _____    ______ ____
ROOT
ATOM      1  C   UNL     1       3.851   3.720  18.547  0.00  0.00    +0.000 A 
ATOM      2  C   UNL     1       3.421   2.394  18.511  0.00  0.00    +0.000 A 
ATOM      3  N   UNL     1       2.464   1.850  19.292  0.00  0.00    +0.000 NA
ATOM      4  C   UNL     1       1.882   2.691  20.143  0.00  0.00    +0.000 A 
ATOM      5  N   UNL     1       2.171   3.989  20.275  0.00  0.00    +0.000 NA
ATOM      6  C   UNL     1       3.158   4.495  19.494  0.00  0.00    +0.000 A 
ENDROOT
BRANCH   1  12
ATOM      7  C   UNL     1       6.161   4.686  17.951  0.00  0.00    +0.000 A 
ATOM      8  C   UNL     1       7.121   5.009  16.975  0.00  0.00    +0.000 A 
ATOM      9  C   UNL     1       6.804   4.973  15.620  0.00  0.00    +0.000 A 
ATOM     10  C   UNL     1       5.531   4.593  15.227  0.00  0.00    +0.000 A 
ATOM     11  C   UNL     1       4.595   4.199  16.187  0.00  0.00    +0.000 A 
ATOM     12  C   UNL     1       4.871   4.227  17.573  0.00  0.00    +0.000 A 
BRANCH   7  14
ATOM     13  C   UNL     1       7.547   5.598  19.660  0.00  0.00    +0.000 C 
ATOM     14  O   UNL     1       6.448   4.767  19.294  0.00  0.00    +0.000 OA
ENDBRANCH   7  14
ENDBRANCH   1  12
BRANCH   6  15
ATOM     15  N   UNL     1       3.470   5.862  19.675  0.00  0.00    +0.000 N 
ATOM     16  H   UNL     1       4.097   5.993  20.457  0.00  0.00    +0.000 HD
BRANCH  15  17
ATOM     17  C   UNL     1       2.721   6.994  19.307  0.00  0.00    +0.000 A 
ATOM     18  C   UNL     1       1.898   7.621  20.255  0.00  0.00    +0.000 A 
ATOM     19  C   UNL     1       1.224   8.805  19.946  0.00  0.00    +0.000 A 
ATOM     20  C   UNL     1       1.368   9.372  18.688  0.00  0.00    +0.000 A 
ATOM     21  F   UNL     1       0.742  10.524  18.406  0.00  0.00    +0.000 F 
ATOM     22  C   UNL     1       2.161   8.766  17.726  0.00  0.00    +0.000 A 
ATOM     23  C   UNL     1       2.828   7.577  18.033  0.00  0.00    +0.000 A 
ENDBRANCH  15  17
ENDBRANCH   6  15
TORSDOF 4
ENDMDL
MODEL 2
REMARK VINA RESULT:      -7.9      1.344      2.481
REMARK  Name = 
REMARK  5 active torsions:
REMARK  status: ('A' for Active; 'I' for Inactive)
REMARK    1  A    between atoms: C_1  and  O_2
REMARK    2  A    between atoms: O_2  and  C_3
REMARK    3  A    between atoms: C_8  and  C_9
REMARK    4  A    between atoms: C_14  and  N_15
REMARK    5  A    between atoms: N_15  and  C_16
REMARK                            x       y       z     vdW  Elec       q    Type
REMARK                         _______ _______ _______ _____ _____    ______ ____
ROOT
ATOM      1  C   UNL     1       4.200   4.479  18.394  0.00  0.00    +0.000 A 
ATOM      2  C   UNL     1       4.028   3.278  17.707  0.00  0.00    +0.000 A 
ATOM      3  N   UNL     1       2.887   2.559  17.641  0.00  0.00    +0.000 NA
ATOM      4  C   UNL     1       1.845   3.091  18.278  0.00  0.00    +0.000 A 
ATOM      5  N   UNL     1       1.853   4.242  18.956  0.00  0.00    +0.000 NA
ATOM      6  C   UNL     1       3.024   4.922  19.026  0.00  0.00    +0.000 A 
ENDROOT
BRANCH   1  12
ATOM      7  C   UNL     1       5.850   6.100  17.267  0.00  0.00    +0.000 A 
ATOM      8  C   UNL     1       7.018   6.881  17.339  0.00  0.00    +0.000 A 
ATOM      9  C   UNL     1       7.902   6.749  18.407  0.00  0.00    +0.000 A 
ATOM     10  C   UNL     1       7.615   5.853  19.422  0.00  0.00    +0.000 A 
ATOM     11  C   UNL     1       6.420   5.128  19.395  0.00  0.00    +0.000 A 
ATOM     12  C   UNL     1       5.498   5.224  18.329  0.00  0.00    +0.000 A 
BRANCH   7  14
ATOM     13  C   UNL     1       5.408   5.524  14.998  0.00  0.00    +0.000 C 
ATOM     14  O   UNL     1       4.996   6.185  16.192  0.00  0.00    +0.000 OA
ENDBRANCH   7  14
ENDBRANCH   1  12
BRANCH   6  15
ATOM     15  N   UNL     1       3.017   6.119  19.777  0.00  0.00    +0.000 N 
ATOM     16  H   UNL     1       3.151   5.933  20.762  0.00  0.00    +0.000 HD
BRANCH  15  17
ATOM     17  C   UNL     1       2.402   7.347  19.473  0.00  0.00    +0.000 A 
ATOM     18  C   UNL     1       2.474   7.855  18.166  0.00  0.00    +0.000 A 
ATOM     19  C   UNL     1       1.787   9.019  17.814  0.00  0.00    +0.000 A 
ATOM     20  C   UNL     1       1.022   9.684  18.761  0.00  0.00    +0.000 A 
ATOM     21  F   UNL     1       0.341  10.784  18.410  0.00  0.00    +0.000 F 
ATOM     22  C   UNL     1       0.946   9.215  20.064  0.00  0.00    +0.000 A 
ATOM     23  C   UNL     1       1.640   8.055  20.419  0.00  0.00    +0.000 A 
ENDBRANCH  15  17
ENDBRANCH   6  15
TORSDOF 4
ENDMDL
MODEL 3
REMARK VINA RESULT:      -7.9      1.351      2.267
REMARK  Name = 
REMARK  5 active torsions:
REMARK  status: ('A' for Active; 'I' for Inactive)
REMARK    1  A    between atoms: C_1  and  O_2
REMARK    2  A    between atoms: O_2  and  C_3
REMARK    3  A    between atoms: C_8  and  C_9
REMARK    4  A    between atoms: C_14  and  N_15
REMARK    5  A    between atoms: N_15  and  C_16
REMARK                            x       y       z     vdW  Elec       q    Type
REMARK                         _______ _______ _______ _____ _____    ______ ____
ROOT
ATOM      1  C   UNL     1       4.255   4.482  18.405  0.00  0.00    +0.000 A 
ATOM      2  C   UNL     1       4.109   3.257  17.755  0.00  0.00    +0.000 A 
ATOM      3  N   UNL     1       2.979   2.519  17.700  0.00  0.00    +0.000 NA
ATOM      4  C   UNL     1       1.923   3.054  18.310  0.00  0.00    +0.000 A 
ATOM      5  N   UNL     1       1.906   4.226  18.951  0.00  0.00    +0.000 NA
ATOM      6  C   UNL     1       3.066   4.927  19.010  0.00  0.00    +0.000 A 
ENDROOT
BRANCH   1  12
ATOM      7  C   UNL     1       5.863   6.144  17.275  0.00  0.00    +0.000 A 
ATOM      8  C   UNL     1       7.022   6.938  17.339  0.00  0.00    +0.000 A 
ATOM      9  C   UNL     1       7.926   6.800  18.388  0.00  0.00    +0.000 A 
ATOM     10  C   UNL     1       7.670   5.884  19.393  0.00  0.00    +0.000 A 
ATOM     11  C   UNL     1       6.484   5.144  19.376  0.00  0.00    +0.000 A 
ATOM     12  C   UNL     1       5.542   5.246  18.328  0.00  0.00    +0.000 A 
BRANCH   7  14
ATOM     13  C   UNL     1       5.368   5.567  15.017  0.00  0.00    +0.000 C 
ATOM     14  O   UNL     1       4.987   6.236  16.217  0.00  0.00    +0.000 OA
ENDBRANCH   7  14
ENDBRANCH   1  12
BRANCH   6  15
ATOM     15  N   UNL     1       3.032   6.147  19.722  0.00  0.00    +0.000 N 
ATOM     16  H   UNL     1       3.227   6.003  20.703  0.00  0.00    +0.000 HD
BRANCH  15  17
ATOM     17  C   UNL     1       2.335   7.329  19.414  0.00  0.00    +0.000 A 
ATOM     18  C   UNL     1       1.613   7.992  20.419  0.00  0.00    +0.000 A 
ATOM     19  C   UNL     1       0.998   9.220  20.166  0.00  0.00    +0.000 A 
ATOM     20  C   UNL     1       1.100   9.797  18.908  0.00  0.00    +0.000 A 
ATOM     21  F   UNL     1       0.533  10.990  18.679  0.00  0.00    +0.000 F 
ATOM     22  C   UNL     1       1.793   9.158  17.891  0.00  0.00    +0.000 A 
ATOM     23  C   UNL     1       2.401   7.925  18.143  0.00  0.00    +0.000 A 
ENDBRANCH  15  17
ENDBRANCH   6  15
TORSDOF 4
ENDMDL
MODEL 4
REMARK VINA RESULT:      -7.9      0.181      1.043
REMARK  Name = 
REMARK  5 active torsions:
REMARK  status: ('A' for Active; 'I' for Inactive)
REMARK    1  A    between atoms: C_1  and  O_2
REMARK    2  A    between atoms: O_2  and  C_3
REMARK    3  A    between atoms: C_8  and  C_9
REMARK    4  A    between atoms: C_14  and  N_15
REMARK    5  A    between atoms: N_15  and  C_16
REMARK                            x       y       z     vdW  Elec       q    Type
REMARK                         _______ _______ _______ _____ _____    ______ ____
ROOT
ATOM      1  C   UNL     1       3.761   3.746  18.656  0.00  0.00    +0.000 A 
ATOM      2  C   UNL     1       3.264   2.443  18.654  0.00  0.00    +0.000 A 
ATOM      3  N   UNL     1       2.295   1.963  19.463  0.00  0.00    +0.000 NA
ATOM      4  C   UNL     1       1.771   2.850  20.307  0.00  0.00    +0.000 A 
ATOM      5  N   UNL     1       2.128   4.134  20.407  0.00  0.00    +0.000 NA
ATOM      6  C   UNL     1       3.124   4.574  19.598  0.00  0.00    +0.000 A 
ENDROOT
BRANCH   1  12
ATOM      7  C   UNL     1       6.096   4.604  18.001  0.00  0.00    +0.000 A 
ATOM      8  C   UNL     1       7.056   4.858  17.005  0.00  0.00    +0.000 A 
ATOM      9  C   UNL     1       6.722   4.787  15.655  0.00  0.00    +0.000 A 
ATOM     10  C   UNL     1       5.432   4.441  15.290  0.00  0.00    +0.000 A 
ATOM     11  C   UNL     1       4.493   4.115  16.273  0.00  0.00    +0.000 A 
ATOM     12  C   UNL     1       4.786   4.180  17.653  0.00  0.00    +0.000 A 
BRANCH   7  14
ATOM     13  C   UNL     1       7.478   5.596  19.670  0.00  0.00    +0.000 C 
ATOM     14  O   UNL     1       6.403   4.721  19.338  0.00  0.00    +0.000 OA
ENDBRANCH   7  14
ENDBRANCH   1  12
BRANCH   6  15
ATOM     15  N   UNL     1       3.508   5.926  19.745  0.00  0.00    +0.000 N 
ATOM     16  H   UNL     1       4.171   6.037  20.500  0.00  0.00    +0.000 HD
BRANCH  15  17
ATOM     17  C   UNL     1       2.800   7.087  19.389  0.00  0.00    +0.000 A 
ATOM     18  C   UNL     1       2.897   7.586  18.080  0.00  0.00    +0.000 A 
ATOM     19  C   UNL     1       2.125   8.676  17.671  0.00  0.00    +0.000 A 
ATOM     20  C   UNL     1       1.250   9.277  18.565  0.00  0.00    +0.000 A 
ATOM     21  F   UNL     1       0.491  10.304  18.159  0.00  0.00    +0.000 F 
ATOM     22  C   UNL     1       1.146   8.817  19.868  0.00  0.00    +0.000 A 
ATOM     23  C   UNL     1       1.924   7.731  20.280  0.00  0.00    +0.000 A 
ENDBRANCH  15  17
ENDBRANCH   6  15
TORSDOF 4
ENDMDL
MODEL 5
REMARK VINA RESULT:      -7.6      1.098      1.500
REMARK  Name = 
REMARK  5 active torsions:
REMARK  status: ('A' for Active; 'I' for Inactive)
REMARK    1  A    between atoms: C_1  and  O_2
REMARK    2  A    between atoms: O_2  and  C_3
REMARK    3  A    between atoms: C_8  and  C_9
REMARK    4  A    between atoms: C_14  and  N_15
REMARK    5  A    between atoms: N_15  and  C_16
REMARK                            x       y       z     vdW  Elec       q    Type
REMARK                         _______ _______ _______ _____ _____    ______ ____
ROOT
ATOM      1  C   UNL     1       3.686   3.965  17.518  0.00  0.00    +0.000 A 
ATOM      2  C   UNL     1       3.295   2.640  17.705  0.00  0.00    +0.000 A 
ATOM      3  N   UNL     1       2.142   2.226  18.274  0.00  0.00    +0.000 NA
ATOM      4  C   UNL     1       1.317   3.200  18.653  0.00  0.00    +0.000 A 
ATOM      5  N   UNL     1       1.546   4.510  18.519  0.00  0.00    +0.000 NA
ATOM      6  C   UNL     1       2.726   4.888  17.969  0.00  0.00    +0.000 A 
ENDROOT
BRANCH   1  12
ATOM      7  C   UNL     1       6.199   4.517  17.459  0.00  0.00    +0.000 A 
ATOM      8  C   UNL     1       7.384   4.680  16.719  0.00  0.00    +0.000 A 
ATOM      9  C   UNL     1       7.359   4.721  15.328  0.00  0.00    +0.000 A 
ATOM     10  C   UNL     1       6.153   4.578  14.664  0.00  0.00    +0.000 A 
ATOM     11  C   UNL     1       4.982   4.341  15.389  0.00  0.00    +0.000 A 
ATOM     12  C   UNL     1       4.959   4.298  16.801  0.00  0.00    +0.000 A 
BRANCH   7  14
ATOM     13  C   UNL     1       7.045   5.492  19.461  0.00  0.00    +0.000 C 
ATOM     14  O   UNL     1       6.205   4.525  18.835  0.00  0.00    +0.000 OA
ENDBRANCH   7  14
ENDBRANCH   1  12
BRANCH   6  15
ATOM     15  N   UNL     1       2.960   6.279  17.867  0.00  0.00    +0.000 N 
ATOM     16  H   UNL     1       3.887   6.468  17.512  0.00  0.00    +0.000 HD
BRANCH  15  17
ATOM     17  C   UNL     1       2.365   7.328  18.590  0.00  0.00    +0.000 A 
ATOM     18  C   UNL     1       1.897   8.463  17.909  0.00  0.00    +0.000 A 
ATOM     19  C   UNL     1       1.211   9.472  18.588  0.00  0.00    +0.000 A 
ATOM     20  C   UNL     1       0.986   9.356  19.953  0.00  0.00    +0.000 A 
ATOM     21  F   UNL     1       0.301  10.314  20.594  0.00  0.00    +0.000 F 
ATOM     22  C   UNL     1       1.450   8.255  20.654  0.00  0.00    +0.000 A 
ATOM     23  C   UNL     1       2.144   7.249  19.976  0.00  0.00    +0.000 A 
ENDBRANCH  15  17
ENDBRANCH   6  15
TORSDOF 4
ENDMDL
MODEL 6
REMARK VINA RESULT:      -7.5      3.646      6.288
REMARK  Name = 
REMARK  5 active torsions:
REMARK  status: ('A' for Active; 'I' for Inactive)
REMARK    1  A    between atoms: C_1  and  O_2
REMARK    2  A    between atoms: O_2  and  C_3
REMARK    3  A    between atoms: C_8  and  C_9
REMARK    4  A    between atoms: C_14  and  N_15
REMARK    5  A    between atoms: N_15  and  C_16
REMARK                            x       y       z     vdW  Elec       q    Type
REMARK                         _______ _______ _______ _____ _____    ______ ____
ROOT
ATOM      1  C   UNL     1       5.546   5.215  18.253  0.00  0.00    +0.000 A 
ATOM      2  C   UNL     1       6.192   5.118  19.485  0.00  0.00    +0.000 A 
ATOM      3  N   UNL     1       7.424   5.590  19.773  0.00  0.00    +0.000 NA
ATOM      4  C   UNL     1       8.035   6.225  18.774  0.00  0.00    +0.000 A 
ATOM      5  N   UNL     1       7.532   6.416  17.551  0.00  0.00    +0.000 NA
ATOM      6  C   UNL     1       6.305   5.903  17.289  0.00  0.00    +0.000 A 
ENDROOT
BRANCH   1  12
ATOM      7  C   UNL     1       2.991   5.524  18.283  0.00  0.00    +0.000 A 
ATOM      8  C   UNL     1       1.711   5.040  17.960  0.00  0.00    +0.000 A 
ATOM      9  C   UNL     1       1.532   3.732  17.518  0.00  0.00    +0.000 A 
ATOM     10  C   UNL     1       2.632   2.904  17.373  0.00  0.00    +0.000 A 
ATOM     11  C   UNL     1       3.915   3.401  17.621  0.00  0.00    +0.000 A 
ATOM     12  C   UNL     1       4.143   4.718  18.078  0.00  0.00    +0.000 A 
BRANCH   7  14
ATOM     13  C   UNL     1       2.893   7.868  17.870  0.00  0.00    +0.000 C 
ATOM     14  O   UNL     1       3.175   6.799  18.769  0.00  0.00    +0.000 OA
ENDBRANCH   7  14
ENDBRANCH   1  12
BRANCH   6  15
ATOM     15  N   UNL     1       5.808   6.088  15.978  0.00  0.00    +0.000 N 
ATOM     16  H   UNL     1       4.918   6.566  15.989  0.00  0.00    +0.000 HD
BRANCH  15  17
ATOM     17  C   UNL     1       6.075   5.336  14.820  0.00  0.00    +0.000 A 
ATOM     18  C   UNL     1       7.299   5.501  14.152  0.00  0.00    +0.000 A 
ATOM     19  C   UNL     1       7.631   4.696  13.061  0.00  0.00    +0.000 A 
ATOM     20  C   UNL     1       6.747   3.718  12.629  0.00  0.00    +0.000 A 
ATOM     21  F   UNL     1       7.083   2.928  11.600  0.00  0.00    +0.000 F 
ATOM     22  C   UNL     1       5.524   3.543  13.259  0.00  0.00    +0.000 A 
ATOM     23  C   UNL     1       5.188   4.355  14.346  0.00  0.00    +0.000 A 
ENDBRANCH  15  17
ENDBRANCH   6  15
TORSDOF 4
ENDMDL
MODEL 7
REMARK VINA RESULT:      -7.5      3.591      6.302
REMARK  Name = 
REMARK  5 active torsions:
REMARK  status: ('A' for Active; 'I' for Inactive)
REMARK    1  A    between atoms: C_1  and  O_2
REMARK    2  A    between atoms: O_2  and  C_3
REMARK    3  A    between atoms: C_8  and  C_9
REMARK    4  A    between atoms: C_14  and  N_15
REMARK    5  A    between atoms: N_15  and  C_16
REMARK                            x       y       z     vdW  Elec       q    Type
REMARK                         _______ _______ _______ _____ _____    ______ ____
ROOT
ATOM      1  C   UNL     1       5.592   5.217  18.256  0.00  0.00    +0.000 A 
ATOM      2  C   UNL     1       6.207   5.159  19.506  0.00  0.00    +0.000 A 
ATOM      3  N   UNL     1       7.441   5.618  19.804  0.00  0.00    +0.000 NA
ATOM      4  C   UNL     1       8.089   6.197  18.795  0.00  0.00    +0.000 A 
ATOM      5  N   UNL     1       7.620   6.346  17.553  0.00  0.00    +0.000 NA
ATOM      6  C   UNL     1       6.388   5.847  17.282  0.00  0.00    +0.000 A 
ENDROOT
BRANCH   1  12
ATOM      7  C   UNL     1       3.045   5.578  18.214  0.00  0.00    +0.000 A 
ATOM      8  C   UNL     1       1.762   5.107  17.880  0.00  0.00    +0.000 A 
ATOM      9  C   UNL     1       1.565   3.787  17.485  0.00  0.00    +0.000 A 
ATOM     10  C   UNL     1       2.651   2.932  17.399  0.00  0.00    +0.000 A 
ATOM     11  C   UNL     1       3.938   3.413  17.657  0.00  0.00    +0.000 A 
ATOM     12  C   UNL     1       4.184   4.742  18.067  0.00  0.00    +0.000 A 
BRANCH   7  14
ATOM     13  C   UNL     1       2.159   7.474  19.352  0.00  0.00    +0.000 C 
ATOM     14  O   UNL     1       3.244   6.867  18.654  0.00  0.00    +0.000 OA
ENDBRANCH   7  14
ENDBRANCH   1  12
BRANCH   6  15
ATOM     15  N   UNL     1       5.927   5.986  15.953  0.00  0.00    +0.000 N 
ATOM     16  H   UNL     1       5.022   6.436  15.926  0.00  0.00    +0.000 HD
BRANCH  15  17
ATOM     17  C   UNL     1       6.252   5.216  14.822  0.00  0.00    +0.000 A 
ATOM     18  C   UNL     1       5.365   4.223  14.380  0.00  0.00    +0.000 A 
ATOM     19  C   UNL     1       5.614   3.515  13.202  0.00  0.00    +0.000 A 
ATOM     20  C   UNL     1       6.750   3.794  12.456  0.00  0.00    +0.000 A 
ATOM     21  F   UNL     1       6.969   3.133  11.310  0.00  0.00    +0.000 F 
ATOM     22  C   UNL     1       7.652   4.759  12.877  0.00  0.00    +0.000 A 
ATOM     23  C   UNL     1       7.407   5.461  14.060  0.00  0.00    +0.000 A 
ENDBRANCH  15  17
ENDBRANCH   6  15
TORSDOF 4
ENDMDL
MODEL 8
REMARK VINA RESULT:      -7.5      1.537      2.562
REMARK  Name = 
REMARK  5 active torsions:
REMARK  status: ('A' for Active; 'I' for Inactive)
REMARK    1  A    between atoms: C_1  and  O_2
REMARK    2  A    between atoms: O_2  and  C_3
REMARK    3  A    between atoms: C_8  and  C_9
REMARK    4  A    between atoms: C_14  and  N_15
REMARK    5  A    between atoms: N_15  and  C_16
REMARK                            x       y       z     vdW  Elec       q    Type
REMARK                         _______ _______ _______ _____ _____    ______ ____
ROOT
ATOM      1  C   UNL     1       4.064   4.396  18.202  0.00  0.00    +0.000 A 
ATOM      2  C   UNL     1       3.945   3.023  18.410  0.00  0.00    +0.000 A 
ATOM      3  N   UNL     1       2.794   2.316  18.397  0.00  0.00    +0.000 NA
ATOM      4  C   UNL     1       1.699   3.024  18.131  0.00  0.00    +0.000 A 
ATOM      5  N   UNL     1       1.661   4.337  17.888  0.00  0.00    +0.000 NA
ATOM      6  C   UNL     1       2.832   5.020  17.938  0.00  0.00    +0.000 A 
ENDROOT
BRANCH   1  12
ATOM      7  C   UNL     1       5.954   5.666  17.002  0.00  0.00    +0.000 A 
ATOM      8  C   UNL     1       7.155   6.395  17.071  0.00  0.00    +0.000 A 
ATOM      9  C   UNL     1       7.885   6.460  18.255  0.00  0.00    +0.000 A 
ATOM     10  C   UNL     1       7.409   5.817  19.385  0.00  0.00    +0.000 A 
ATOM     11  C   UNL     1       6.180   5.154  19.344  0.00  0.00    +0.000 A 
ATOM     12  C   UNL     1       5.409   5.055  18.163  0.00  0.00    +0.000 A 
BRANCH   7  14
ATOM     13  C   UNL     1       5.774   4.645  14.857  0.00  0.00    +0.000 C 
ATOM     14  O   UNL     1       5.251   5.552  15.824  0.00  0.00    +0.000 OA
ENDBRANCH   7  14
ENDBRANCH   1  12
BRANCH   6  15
ATOM     15  N   UNL     1       2.762   6.413  17.711  0.00  0.00    +0.000 N 
ATOM     16  H   UNL     1       3.474   6.713  17.058  0.00  0.00    +0.000 HD
BRANCH  15  17
ATOM     17  C   UNL     1       2.252   7.419  18.552  0.00  0.00    +0.000 A 
ATOM     18  C   UNL     1       1.834   8.639  17.999  0.00  0.00    +0.000 A 
ATOM     19  C   UNL     1       1.230   9.615  18.795  0.00  0.00    +0.000 A 
ATOM     20  C   UNL     1       1.037   9.379  20.149  0.00  0.00    +0.000 A 
ATOM     21  F   UNL     1       0.430  10.307  20.903  0.00  0.00    +0.000 F 
ATOM     22  C   UNL     1       1.456   8.190  20.725  0.00  0.00    +0.000 A 
ATOM     23  C   UNL     1       2.068   7.217  19.930  0.00  0.00    +0.000 A 
ENDBRANCH  15  17
ENDBRANCH   6  15
TORSDOF 4
ENDMDL
MODEL 9
REMARK VINA RESULT:      -7.4      1.589      2.480
REMARK  Name = 
REMARK  5 active torsions:
REMARK  status: ('A' for Active; 'I' for Inactive)
REMARK    1  A    between atoms: C_1  and  O_2
REMARK    2  A    between atoms: O_2  and  C_3
REMARK    3  A    between atoms: C_8  and  C_9
REMARK    4  A    between atoms: C_14  and  N_15
REMARK    5  A    between atoms: N_15  and  C_16
REMARK                            x       y       z     vdW  Elec       q    Type
REMARK                         _______ _______ _______ _____ _____    ______ ____
ROOT
ATOM      1  C   UNL     1       4.147   4.529  18.147  0.00  0.00    +0.000 A 
ATOM      2  C   UNL     1       4.022   3.147  18.291  0.00  0.00    +0.000 A 
ATOM      3  N   UNL     1       2.871   2.445  18.226  0.00  0.00    +0.000 NA
ATOM      4  C   UNL     1       1.781   3.167  17.972  0.00  0.00    +0.000 A 
ATOM      5  N   UNL     1       1.750   4.490  17.789  0.00  0.00    +0.000 NA
ATOM      6  C   UNL     1       2.921   5.166  17.890  0.00  0.00    +0.000 A 
ENDROOT
BRANCH   1  12
ATOM      7  C   UNL     1       6.035   5.899  17.061  0.00  0.00    +0.000 A 
ATOM      8  C   UNL     1       7.238   6.616  17.191  0.00  0.00    +0.000 A 
ATOM      9  C   UNL     1       7.974   6.569  18.372  0.00  0.00    +0.000 A 
ATOM     10  C   UNL     1       7.502   5.826  19.440  0.00  0.00    +0.000 A 
ATOM     11  C   UNL     1       6.270   5.172  19.344  0.00  0.00    +0.000 A 
ATOM     12  C   UNL     1       5.494   5.185  18.163  0.00  0.00    +0.000 A 
BRANCH   7  14
ATOM     13  C   UNL     1       5.855   5.101  14.823  0.00  0.00    +0.000 C 
ATOM     14  O   UNL     1       5.325   5.897  15.881  0.00  0.00    +0.000 OA
ENDBRANCH   7  14
ENDBRANCH   1  12
BRANCH   6  15
ATOM     15  N   UNL     1       2.858   6.569  17.726  0.00  0.00    +0.000 N 
ATOM     16  H   UNL     1       3.669   6.915  17.231  0.00  0.00    +0.000 HD
BRANCH  15  17
ATOM     17  C   UNL     1       2.178   7.519  18.509  0.00  0.00    +0.000 A 
ATOM     18  C   UNL     1       2.039   7.309  19.890  0.00  0.00    +0.000 A 
ATOM     19  C   UNL     1       1.459   8.283  20.706  0.00  0.00    +0.000 A 
ATOM     20  C   UNL     1       1.015   9.474  20.150  0.00  0.00    +0.000 A 
ATOM     21  F   UNL     1       0.486  10.418  20.942  0.00  0.00    +0.000 F 
ATOM     22  C   UNL     1       1.124   9.702  18.787  0.00  0.00    +0.000 A 
ATOM     23  C   UNL     1       1.696   8.724  17.969  0.00  0.00    +0.000 A 
ENDBRANCH  15  17
ENDBRANCH   6  15
TORSDOF 4
ENDMDL
