MODEL 1
REMARK VINA RESULT:      -8.6      0.000      0.000
REMARK  Name = 
REMARK  8 active torsions:
REMARK  status: ('A' for Active; 'I' for Inactive)
REMARK    1  A    between atoms: C_1  and  O_2
REMARK    2  A    between atoms: O_2  and  C_3
REMARK    3  A    between atoms: C_8  and  N_9
REMARK    4  A    between atoms: C_13  and  C_15
REMARK    5  A    between atoms: C_15  and  N_16
REMARK    6  A    between atoms: C_21  and  C_22
REMARK    7  A    between atoms: C_24  and  C_25
REMARK    8  A    between atoms: C_28  and  C_29
REMARK                            x       y       z     vdW  Elec       q    Type
REMARK                         _______ _______ _______ _____ _____    ______ ____
ROOT
ATOM      1  N   UNL     1       0.898   8.640  20.064  0.00  0.00    +0.000 N 
ATOM      2  N   UNL     1       1.014   7.530  20.915  0.00  0.00    +0.000 NA
ATOM      3  C   UNL     1       1.926   6.637  20.646  0.00  0.00    +0.000 A 
ATOM      4  N   UNL     1       2.739   6.779  19.537  0.00  0.00    +0.000 N 
ATOM      5  N   UNL     1       3.706   5.900  19.215  0.00  0.00    +0.000 NA
ATOM      6  C   UNL     1       4.201   6.374  18.054  0.00  0.00    +0.000 A 
ATOM      7  C   UNL     1       3.548   7.587  17.688  0.00  0.00    +0.000 A 
ATOM      8  C   UNL     1       2.621   7.808  18.669  0.00  0.00    +0.000 A 
ATOM      9  C   UNL     1       1.648   8.817  18.892  0.00  0.00    +0.000 A 
ATOM     10  O   UNL     1       1.493   9.769  18.124  0.00  0.00    +0.000 OA
ENDROOT
BRANCH   6  11
ATOM     11  C   UNL     1       5.245   5.703  17.270  0.00  0.00    +0.000 A 
ATOM     12  C   UNL     1       4.942   5.355  15.937  0.00  0.00    +0.000 A 
ATOM     13  C   UNL     1       5.807   4.571  15.165  0.00  0.00    +0.000 A 
ATOM     14  C   UNL     1       5.404   4.102  13.799  0.00  0.00    +0.000 C 
ATOM     15  C   UNL     1       7.026   4.177  15.717  0.00  0.00    +0.000 A 
ATOM     16  C   UNL     1       7.363   4.549  17.020  0.00  0.00    +0.000 A 
ATOM     17  C   UNL     1       6.481   5.297  17.818  0.00  0.00    +0.000 A 
ATOM     18  C   UNL     1       6.877   5.595  19.238  0.00  0.00    +0.000 C 
ENDBRANCH   6  11
BRANCH   1  19
ATOM     19  C   UNL     1      -0.126   9.633  20.367  0.00  0.00    +0.000 C 
BRANCH  19  24
ATOM     20  N   UNL     1       0.667  14.608  19.179  0.00  0.00    +0.000 N 
ATOM     21  C   UNL     1       1.431  14.274  20.394  0.00  0.00    +0.000 C 
ATOM     22  C   UNL     1       0.614  13.301  21.254  0.00  0.00    +0.000 C 
ATOM     23  N   UNL     1       0.224  12.112  20.495  0.00  0.00    +0.000 N 
ATOM     24  C   UNL     1       0.348  10.875  21.107  0.00  0.00    +0.000 C 
ATOM     25  O   UNL     1       0.748  10.766  22.272  0.00  0.00    +0.000 OA
ATOM     26  C   UNL     1      -0.460  12.403  19.218  0.00  0.00    +0.000 C 
ATOM     27  C   UNL     1       0.309  13.438  18.361  0.00  0.00    +0.000 C 
BRANCH  20  33
ATOM     28  C   UNL     1       1.556  16.656  18.096  0.00  0.00    +0.000 A 
ATOM     29  C   UNL     1       1.306  17.961  17.630  0.00  0.00    +0.000 A 
ATOM     30  C   UNL     1       0.054  18.552  17.768  0.00  0.00    +0.000 A 
ATOM     31  C   UNL     1      -0.960  17.856  18.401  0.00  0.00    +0.000 A 
ATOM     32  C   UNL     1      -0.715  16.572  18.892  0.00  0.00    +0.000 A 
ATOM     33  C   UNL     1       0.531  15.920  18.748  0.00  0.00    +0.000 A 
BRANCH  28  35
ATOM     34  C   UNL     1       3.871  16.592  18.667  0.00  0.00    +0.000 C 
ATOM     35  O   UNL     1       2.783  16.052  17.924  0.00  0.00    +0.000 OA
ENDBRANCH  28  35
ENDBRANCH  20  33
ENDBRANCH  19  24
ENDBRANCH   1  19
TORSDOF 5
ENDMDL
MODEL 2
REMARK VINA RESULT:      -8.3      4.246      5.588
REMARK  Name = 
REMARK  8 active torsions:
REMARK  status: ('A' for Active; 'I' for Inactive)
REMARK    1  A    between atoms: C_1  and  O_2
REMARK    2  A    between atoms: O_2  and  C_3
REMARK    3  A    between atoms: C_8  and  N_9
REMARK    4  A    between atoms: C_13  and  C_15
REMARK    5  A    between atoms: C_15  and  N_16
REMARK    6  A    between atoms: C_21  and  C_22
REMARK    7  A    between atoms: C_24  and  C_25
REMARK    8  A    between atoms: C_28  and  C_29
REMARK                            x       y       z     vdW  Elec       q    Type
REMARK                         _______ _______ _______ _____ _____    ______ ____
ROOT
ATOM      1  N   UNL     1       0.964  11.013  20.598  0.00  0.00    +0.000 N 
ATOM      2  N   UNL     1       0.765  10.219  21.739  0.00  0.00    +0.000 NA
ATOM      3  C   UNL     1       1.046   8.948  21.666  0.00  0.00    +0.000 A 
ATOM      4  N   UNL     1       1.511   8.401  20.483  0.00  0.00    +0.000 N 
ATOM      5  N   UNL     1       1.832   7.100  20.349  0.00  0.00    +0.000 NA
ATOM      6  C   UNL     1       2.169   6.983  19.050  0.00  0.00    +0.000 A 
ATOM      7  C   UNL     1       2.090   8.246  18.394  0.00  0.00    +0.000 A 
ATOM      8  C   UNL     1       1.666   9.124  19.353  0.00  0.00    +0.000 A 
ATOM      9  C   UNL     1       1.375  10.514  19.354  0.00  0.00    +0.000 A 
ATOM     10  O   UNL     1       1.490  11.215  18.346  0.00  0.00    +0.000 OA
ENDROOT
BRANCH   6  11
ATOM     11  C   UNL     1       2.532   5.714  18.406  0.00  0.00    +0.000 A 
ATOM     12  C   UNL     1       1.729   4.587  18.678  0.00  0.00    +0.000 A 
ATOM     13  C   UNL     1       2.087   3.306  18.246  0.00  0.00    +0.000 A 
ATOM     14  C   UNL     1       1.289   2.106  18.660  0.00  0.00    +0.000 C 
ATOM     15  C   UNL     1       3.239   3.157  17.475  0.00  0.00    +0.000 A 
ATOM     16  C   UNL     1       4.024   4.267  17.158  0.00  0.00    +0.000 A 
ATOM     17  C   UNL     1       3.697   5.551  17.626  0.00  0.00    +0.000 A 
ATOM     18  C   UNL     1       4.630   6.688  17.311  0.00  0.00    +0.000 C 
ENDBRANCH   6  11
BRANCH   1  19
ATOM     19  C   UNL     1       0.643  12.432  20.685  0.00  0.00    +0.000 C 
BRANCH  19  24
ATOM     20  N   UNL     1      -4.234  13.009  22.317  0.00  0.00    +0.000 N 
ATOM     21  C   UNL     1      -4.229  12.865  20.851  0.00  0.00    +0.000 C 
ATOM     22  C   UNL     1      -3.003  13.584  20.275  0.00  0.00    +0.000 C 
ATOM     23  N   UNL     1      -1.764  13.103  20.887  0.00  0.00    +0.000 N 
ATOM     24  C   UNL     1      -0.678  12.856  20.062  0.00  0.00    +0.000 C 
ATOM     25  O   UNL     1      -0.733  13.059  18.843  0.00  0.00    +0.000 OA
ATOM     26  C   UNL     1      -1.762  13.138  22.365  0.00  0.00    +0.000 C 
ATOM     27  C   UNL     1      -3.026  12.481  22.970  0.00  0.00    +0.000 C 
BRANCH  20  33
ATOM     28  C   UNL     1      -5.660  14.704  23.436  0.00  0.00    +0.000 A 
ATOM     29  C   UNL     1      -6.883  15.004  24.065  0.00  0.00    +0.000 A 
ATOM     30  C   UNL     1      -7.859  14.029  24.253  0.00  0.00    +0.000 A 
ATOM     31  C   UNL     1      -7.611  12.732  23.841  0.00  0.00    +0.000 A 
ATOM     32  C   UNL     1      -6.389  12.419  23.242  0.00  0.00    +0.000 A 
ATOM     33  C   UNL     1      -5.382  13.380  23.003  0.00  0.00    +0.000 A 
BRANCH  28  35
ATOM     34  C   UNL     1      -3.831  15.975  24.292  0.00  0.00    +0.000 C 
ATOM     35  O   UNL     1      -4.708  15.676  23.211  0.00  0.00    +0.000 OA
ENDBRANCH  28  35
ENDBRANCH  20  33
ENDBRANCH  19  24
ENDBRANCH   1  19
TORSDOF 5
ENDMDL
MODEL 3
REMARK VINA RESULT:      -8.3      3.670      4.991
REMARK  Name = 
REMARK  8 active torsions:
REMARK  status: ('A' for Active; 'I' for Inactive)
REMARK    1  A    between atoms: C_1  and  O_2
REMARK    2  A    between atoms: O_2  and  C_3
REMARK    3  A    between atoms: C_8  and  N_9
REMARK    4  A    between atoms: C_13  and  C_15
REMARK    5  A    between atoms: C_15  and  N_16
REMARK    6  A    between atoms: C_21  and  C_22
REMARK    7  A    between atoms: C_24  and  C_25
REMARK    8  A    between atoms: C_28  and  C_29
REMARK                            x       y       z     vdW  Elec       q    Type
REMARK                         _______ _______ _______ _____ _____    ______ ____
ROOT
ATOM      1  N   UNL     1       1.085  10.613  19.684  0.00  0.00    +0.000 N 
ATOM      2  N   UNL     1       0.808  10.005  20.918  0.00  0.00    +0.000 NA
ATOM      3  C   UNL     1       1.128   8.751  21.076  0.00  0.00    +0.000 A 
ATOM      4  N   UNL     1       1.709   8.041  20.040  0.00  0.00    +0.000 N 
ATOM      5  N   UNL     1       2.076   6.750  20.146  0.00  0.00    +0.000 NA
ATOM      6  C   UNL     1       2.529   6.440  18.915  0.00  0.00    +0.000 A 
ATOM      7  C   UNL     1       2.474   7.579  18.058  0.00  0.00    +0.000 A 
ATOM      8  C   UNL     1       1.944   8.581  18.824  0.00  0.00    +0.000 A 
ATOM      9  C   UNL     1       1.617   9.940  18.575  0.00  0.00    +0.000 A 
ATOM     10  O   UNL     1       1.801  10.476  17.480  0.00  0.00    +0.000 OA
ENDROOT
BRANCH   6  11
ATOM     11  C   UNL     1       2.981   5.102  18.517  0.00  0.00    +0.000 A 
ATOM     12  C   UNL     1       4.079   5.015  17.636  0.00  0.00    +0.000 A 
ATOM     13  C   UNL     1       4.478   3.798  17.073  0.00  0.00    +0.000 A 
ATOM     14  C   UNL     1       5.561   3.750  16.037  0.00  0.00    +0.000 C 
ATOM     15  C   UNL     1       3.803   2.635  17.445  0.00  0.00    +0.000 A 
ATOM     16  C   UNL     1       2.741   2.695  18.349  0.00  0.00    +0.000 A 
ATOM     17  C   UNL     1       2.305   3.919  18.885  0.00  0.00    +0.000 A 
ATOM     18  C   UNL     1       1.106   3.916  19.793  0.00  0.00    +0.000 C 
ENDBRANCH   6  11
BRANCH   1  19
ATOM     19  C   UNL     1       0.720  12.014  19.513  0.00  0.00    +0.000 C 
BRANCH  19  24
ATOM     20  N   UNL     1      -3.340  14.314  21.753  0.00  0.00    +0.000 N 
ATOM     21  C   UNL     1      -2.098  14.882  22.305  0.00  0.00    +0.000 C 
ATOM     22  C   UNL     1      -1.049  13.771  22.441  0.00  0.00    +0.000 C 
ATOM     23  N   UNL     1      -0.830  13.082  21.169  0.00  0.00    +0.000 N 
ATOM     24  C   UNL     1       0.473  12.800  20.792  0.00  0.00    +0.000 C 
ATOM     25  O   UNL     1       1.433  13.092  21.515  0.00  0.00    +0.000 OA
ATOM     26  C   UNL     1      -2.065  12.580  20.529  0.00  0.00    +0.000 C 
ATOM     27  C   UNL     1      -3.166  13.663  20.444  0.00  0.00    +0.000 C 
BRANCH  20  33
ATOM     28  C   UNL     1      -5.268  13.730  23.202  0.00  0.00    +0.000 A 
ATOM     29  C   UNL     1      -6.488  14.130  23.780  0.00  0.00    +0.000 A 
ATOM     30  C   UNL     1      -7.033  15.385  23.525  0.00  0.00    +0.000 A 
ATOM     31  C   UNL     1      -6.379  16.248  22.664  0.00  0.00    +0.000 A 
ATOM     32  C   UNL     1      -5.183  15.849  22.063  0.00  0.00    +0.000 A 
ATOM     33  C   UNL     1      -4.577  14.597  22.315  0.00  0.00    +0.000 A 
BRANCH  28  35
ATOM     34  C   UNL     1      -4.459  12.213  24.857  0.00  0.00    +0.000 C 
ATOM     35  O   UNL     1      -4.705  12.503  23.485  0.00  0.00    +0.000 OA
ENDBRANCH  28  35
ENDBRANCH  20  33
ENDBRANCH  19  24
ENDBRANCH   1  19
TORSDOF 5
ENDMDL
MODEL 4
REMARK VINA RESULT:      -8.3      4.098      5.221
REMARK  Name = 
REMARK  8 active torsions:
REMARK  status: ('A' for Active; 'I' for Inactive)
REMARK    1  A    between atoms: C_1  and  O_2
REMARK    2  A    between atoms: O_2  and  C_3
REMARK    3  A    between atoms: C_8  and  N_9
REMARK    4  A    between atoms: C_13  and  C_15
REMARK    5  A    between atoms: C_15  and  N_16
REMARK    6  A    between atoms: C_21  and  C_22
REMARK    7  A    between atoms: C_24  and  C_25
REMARK    8  A    between atoms: C_28  and  C_29
REMARK                            x       y       z     vdW  Elec       q    Type
REMARK                         _______ _______ _______ _____ _____    ______ ____
ROOT
ATOM      1  N   UNL     1       0.583  10.233  20.197  0.00  0.00    +0.000 N 
ATOM      2  N   UNL     1       0.408   9.317  21.247  0.00  0.00    +0.000 NA
ATOM      3  C   UNL     1       0.979   8.149  21.150  0.00  0.00    +0.000 A 
ATOM      4  N   UNL     1       1.721   7.823  20.029  0.00  0.00    +0.000 N 
ATOM      5  N   UNL     1       2.346   6.640  19.878  0.00  0.00    +0.000 NA
ATOM      6  C   UNL     1       2.885   6.714  18.644  0.00  0.00    +0.000 A 
ATOM      7  C   UNL     1       2.615   7.984  18.054  0.00  0.00    +0.000 A 
ATOM      8  C   UNL     1       1.868   8.660  18.980  0.00  0.00    +0.000 A 
ATOM      9  C   UNL     1       1.271   9.949  19.009  0.00  0.00    +0.000 A 
ATOM     10  O   UNL     1       1.367  10.745  18.073  0.00  0.00    +0.000 OA
ENDROOT
BRANCH   6  11
ATOM     11  C   UNL     1       3.616   5.618  17.999  0.00  0.00    +0.000 A 
ATOM     12  C   UNL     1       4.976   5.829  17.689  0.00  0.00    +0.000 A 
ATOM     13  C   UNL     1       5.710   4.911  16.930  0.00  0.00    +0.000 A 
ATOM     14  C   UNL     1       7.113   5.219  16.501  0.00  0.00    +0.000 C 
ATOM     15  C   UNL     1       5.089   3.731  16.523  0.00  0.00    +0.000 A 
ATOM     16  C   UNL     1       3.756   3.483  16.856  0.00  0.00    +0.000 A 
ATOM     17  C   UNL     1       2.998   4.420  17.580  0.00  0.00    +0.000 A 
ATOM     18  C   UNL     1       1.546   4.122  17.836  0.00  0.00    +0.000 C 
ENDBRANCH   6  11
BRANCH   1  19
ATOM     19  C   UNL     1      -0.062  11.536  20.309  0.00  0.00    +0.000 C 
BRANCH  19  24
ATOM     20  N   UNL     1      -4.633  13.276  22.003  0.00  0.00    +0.000 N 
ATOM     21  C   UNL     1      -4.856  12.334  20.892  0.00  0.00    +0.000 C 
ATOM     22  C   UNL     1      -3.752  12.516  19.844  0.00  0.00    +0.000 C 
ATOM     23  N   UNL     1      -2.421  12.374  20.436  0.00  0.00    +0.000 N 
ATOM     24  C   UNL     1      -1.474  11.630  19.751  0.00  0.00    +0.000 C 
ATOM     25  O   UNL     1      -1.725  11.118  18.654  0.00  0.00    +0.000 OA
ATOM     26  C   UNL     1      -2.187  13.232  21.618  0.00  0.00    +0.000 C 
ATOM     27  C   UNL     1      -3.325  13.120  22.660  0.00  0.00    +0.000 C 
BRANCH  20  33
ATOM     28  C   UNL     1      -6.070  15.299  21.974  0.00  0.00    +0.000 A 
ATOM     29  C   UNL     1      -7.175  15.983  22.514  0.00  0.00    +0.000 A 
ATOM     30  C   UNL     1      -7.916  15.446  23.564  0.00  0.00    +0.000 A 
ATOM     31  C   UNL     1      -7.542  14.231  24.108  0.00  0.00    +0.000 A 
ATOM     32  C   UNL     1      -6.429  13.559  23.597  0.00  0.00    +0.000 A 
ATOM     33  C   UNL     1      -5.666  14.049  22.514  0.00  0.00    +0.000 A 
BRANCH  28  35
ATOM     34  C   UNL     1      -6.067  16.662  20.015  0.00  0.00    +0.000 C 
ATOM     35  O   UNL     1      -5.359  15.807  20.907  0.00  0.00    +0.000 OA
ENDBRANCH  28  35
ENDBRANCH  20  33
ENDBRANCH  19  24
ENDBRANCH   1  19
TORSDOF 5
ENDMDL
MODEL 5
REMARK VINA RESULT:      -8.2      0.982      1.582
REMARK  Name = 
REMARK  8 active torsions:
REMARK  status: ('A' for Active; 'I' for Inactive)
REMARK    1  A    between atoms: C_1  and  O_2
REMARK    2  A    between atoms: O_2  and  C_3
REMARK    3  A    between atoms: C_8  and  N_9
REMARK    4  A    between atoms: C_13  and  C_15
REMARK    5  A    between atoms: C_15  and  N_16
REMARK    6  A    between atoms: C_21  and  C_22
REMARK    7  A    between atoms: C_24  and  C_25
REMARK    8  A    between atoms: C_28  and  C_29
REMARK                            x       y       z     vdW  Elec       q    Type
REMARK                         _______ _______ _______ _____ _____    ______ ____
ROOT
ATOM      1  N   UNL     1       0.949   8.511  19.983  0.00  0.00    +0.000 N 
ATOM      2  N   UNL     1       1.050   7.382  20.811  0.00  0.00    +0.000 NA
ATOM      3  C   UNL     1       1.957   6.488  20.530  0.00  0.00    +0.000 A 
ATOM      4  N   UNL     1       2.781   6.648  19.430  0.00  0.00    +0.000 N 
ATOM      5  N   UNL     1       3.744   5.768  19.097  0.00  0.00    +0.000 NA
ATOM      6  C   UNL     1       4.253   6.264  17.952  0.00  0.00    +0.000 A 
ATOM      7  C   UNL     1       3.611   7.490  17.606  0.00  0.00    +0.000 A 
ATOM      8  C   UNL     1       2.678   7.696  18.584  0.00  0.00    +0.000 A 
ATOM      9  C   UNL     1       1.710   8.708  18.822  0.00  0.00    +0.000 A 
ATOM     10  O   UNL     1       1.569   9.678  18.073  0.00  0.00    +0.000 OA
ENDROOT
BRANCH   6  11
ATOM     11  C   UNL     1       5.298   5.602  17.162  0.00  0.00    +0.000 A 
ATOM     12  C   UNL     1       4.992   5.252  15.830  0.00  0.00    +0.000 A 
ATOM     13  C   UNL     1       5.859   4.476  15.054  0.00  0.00    +0.000 A 
ATOM     14  C   UNL     1       5.453   4.005  13.689  0.00  0.00    +0.000 C 
ATOM     15  C   UNL     1       7.084   4.093  15.599  0.00  0.00    +0.000 A 
ATOM     16  C   UNL     1       7.424   4.466  16.900  0.00  0.00    +0.000 A 
ATOM     17  C   UNL     1       6.540   5.207  17.703  0.00  0.00    +0.000 A 
ATOM     18  C   UNL     1       6.941   5.507  19.122  0.00  0.00    +0.000 C 
ENDBRANCH   6  11
BRANCH   1  19
ATOM     19  C   UNL     1      -0.070   9.505  20.299  0.00  0.00    +0.000 C 
BRANCH  19  24
ATOM     20  N   UNL     1       0.611  14.540  19.312  0.00  0.00    +0.000 N 
ATOM     21  C   UNL     1       1.414  14.165  20.490  0.00  0.00    +0.000 C 
ATOM     22  C   UNL     1       0.636  13.142  21.328  0.00  0.00    +0.000 C 
ATOM     23  N   UNL     1       0.245  11.982  20.528  0.00  0.00    +0.000 N 
ATOM     24  C   UNL     1       0.404  10.721  21.080  0.00  0.00    +0.000 C 
ATOM     25  O   UNL     1       0.838  10.568  22.228  0.00  0.00    +0.000 OA
ATOM     26  C   UNL     1      -0.479  12.317  19.283  0.00  0.00    +0.000 C 
ATOM     27  C   UNL     1       0.250  13.401  18.453  0.00  0.00    +0.000 C 
BRANCH  20  33
ATOM     28  C   UNL     1      -0.666  16.667  19.328  0.00  0.00    +0.000 A 
ATOM     29  C   UNL     1      -0.720  18.027  18.967  0.00  0.00    +0.000 A 
ATOM     30  C   UNL     1       0.315  18.629  18.256  0.00  0.00    +0.000 A 
ATOM     31  C   UNL     1       1.405  17.870  17.870  0.00  0.00    +0.000 A 
ATOM     32  C   UNL     1       1.454  16.514  18.199  0.00  0.00    +0.000 A 
ATOM     33  C   UNL     1       0.443  15.867  18.944  0.00  0.00    +0.000 A 
BRANCH  28  35
ATOM     34  C   UNL     1      -1.686  16.361  21.463  0.00  0.00    +0.000 C 
ATOM     35  O   UNL     1      -1.669  16.078  20.067  0.00  0.00    +0.000 OA
ENDBRANCH  28  35
ENDBRANCH  20  33
ENDBRANCH  19  24
ENDBRANCH   1  19
TORSDOF 5
ENDMDL
MODEL 6
REMARK VINA RESULT:      -8.2      3.957      5.239
REMARK  Name = 
REMARK  8 active torsions:
REMARK  status: ('A' for Active; 'I' for Inactive)
REMARK    1  A    between atoms: C_1  and  O_2
REMARK    2  A    between atoms: O_2  and  C_3
REMARK    3  A    between atoms: C_8  and  N_9
REMARK    4  A    between atoms: C_13  and  C_15
REMARK    5  A    between atoms: C_15  and  N_16
REMARK    6  A    between atoms: C_21  and  C_22
REMARK    7  A    between atoms: C_24  and  C_25
REMARK    8  A    between atoms: C_28  and  C_29
REMARK                            x       y       z     vdW  Elec       q    Type
REMARK                         _______ _______ _______ _____ _____    ______ ____
ROOT
ATOM      1  N   UNL     1       0.691  10.222  20.097  0.00  0.00    +0.000 N 
ATOM      2  N   UNL     1       0.521   9.300  21.142  0.00  0.00    +0.000 NA
ATOM      3  C   UNL     1       1.092   8.133  21.037  0.00  0.00    +0.000 A 
ATOM      4  N   UNL     1       1.830   7.813  19.912  0.00  0.00    +0.000 N 
ATOM      5  N   UNL     1       2.455   6.632  19.751  0.00  0.00    +0.000 NA
ATOM      6  C   UNL     1       2.989   6.713  18.516  0.00  0.00    +0.000 A 
ATOM      7  C   UNL     1       2.715   7.986  17.934  0.00  0.00    +0.000 A 
ATOM      8  C   UNL     1       1.973   8.657  18.866  0.00  0.00    +0.000 A 
ATOM      9  C   UNL     1       1.375   9.944  18.905  0.00  0.00    +0.000 A 
ATOM     10  O   UNL     1       1.466  10.746  17.973  0.00  0.00    +0.000 OA
ENDROOT
BRANCH   6  11
ATOM     11  C   UNL     1       3.718   5.621  17.861  0.00  0.00    +0.000 A 
ATOM     12  C   UNL     1       5.038   5.877  17.434  0.00  0.00    +0.000 A 
ATOM     13  C   UNL     1       5.753   4.958  16.658  0.00  0.00    +0.000 A 
ATOM     14  C   UNL     1       7.101   5.307  16.104  0.00  0.00    +0.000 C 
ATOM     15  C   UNL     1       5.158   3.733  16.354  0.00  0.00    +0.000 A 
ATOM     16  C   UNL     1       3.870   3.443  16.805  0.00  0.00    +0.000 A 
ATOM     17  C   UNL     1       3.127   4.379  17.546  0.00  0.00    +0.000 A 
ATOM     18  C   UNL     1       1.716   4.029  17.932  0.00  0.00    +0.000 C 
ENDBRANCH   6  11
BRANCH   1  19
ATOM     19  C   UNL     1       0.045  11.523  20.219  0.00  0.00    +0.000 C 
BRANCH  19  24
ATOM     20  N   UNL     1      -4.261  13.838  21.918  0.00  0.00    +0.000 N 
ATOM     21  C   UNL     1      -4.631  12.708  21.047  0.00  0.00    +0.000 C 
ATOM     22  C   UNL     1      -3.629  12.611  19.890  0.00  0.00    +0.000 C 
ATOM     23  N   UNL     1      -2.254  12.511  20.380  0.00  0.00    +0.000 N 
ATOM     24  C   UNL     1      -1.410  11.589  19.780  0.00  0.00    +0.000 C 
ATOM     25  O   UNL     1      -1.788  10.884  18.838  0.00  0.00    +0.000 OA
ATOM     26  C   UNL     1      -1.869  13.571  21.335  0.00  0.00    +0.000 C 
ATOM     27  C   UNL     1      -2.903  13.739  22.475  0.00  0.00    +0.000 C 
BRANCH  20  33
ATOM     28  C   UNL     1      -6.193  14.486  23.334  0.00  0.00    +0.000 A 
ATOM     29  C   UNL     1      -7.068  15.503  23.762  0.00  0.00    +0.000 A 
ATOM     30  C   UNL     1      -6.975  16.797  23.258  0.00  0.00    +0.000 A 
ATOM     31  C   UNL     1      -6.023  17.086  22.298  0.00  0.00    +0.000 A 
ATOM     32  C   UNL     1      -5.169  16.078  21.846  0.00  0.00    +0.000 A 
ATOM     33  C   UNL     1      -5.206  14.758  22.349  0.00  0.00    +0.000 A 
BRANCH  28  35
ATOM     34  C   UNL     1      -7.491  12.521  23.716  0.00  0.00    +0.000 C 
ATOM     35  O   UNL     1      -6.255  13.213  23.860  0.00  0.00    +0.000 OA
ENDBRANCH  28  35
ENDBRANCH  20  33
ENDBRANCH  19  24
ENDBRANCH   1  19
TORSDOF 5
ENDMDL
MODEL 7
REMARK VINA RESULT:      -8.2      3.519      4.491
REMARK  Name = 
REMARK  8 active torsions:
REMARK  status: ('A' for Active; 'I' for Inactive)
REMARK    1  A    between atoms: C_1  and  O_2
REMARK    2  A    between atoms: O_2  and  C_3
REMARK    3  A    between atoms: C_8  and  N_9
REMARK    4  A    between atoms: C_13  and  C_15
REMARK    5  A    between atoms: C_15  and  N_16
REMARK    6  A    between atoms: C_21  and  C_22
REMARK    7  A    between atoms: C_24  and  C_25
REMARK    8  A    between atoms: C_28  and  C_29
REMARK                            x       y       z     vdW  Elec       q    Type
REMARK                         _______ _______ _______ _____ _____    ______ ____
ROOT
ATOM      1  N   UNL     1       0.092  10.044  20.338  0.00  0.00    +0.000 N 
ATOM      2  N   UNL     1       0.238   9.213  21.460  0.00  0.00    +0.000 NA
ATOM      3  C   UNL     1       1.006   8.165  21.358  0.00  0.00    +0.000 A 
ATOM      4  N   UNL     1       1.642   7.877  20.164  0.00  0.00    +0.000 N 
ATOM      5  N   UNL     1       2.459   6.819  20.000  0.00  0.00    +0.000 NA
ATOM      6  C   UNL     1       2.805   6.876  18.698  0.00  0.00    +0.000 A 
ATOM      7  C   UNL     1       2.218   8.015  18.072  0.00  0.00    +0.000 A 
ATOM      8  C   UNL     1       1.485   8.626  19.051  0.00  0.00    +0.000 A 
ATOM      9  C   UNL     1       0.659   9.781  19.083  0.00  0.00    +0.000 A 
ATOM     10  O   UNL     1       0.474  10.491  18.092  0.00  0.00    +0.000 OA
ENDROOT
BRANCH   6  11
ATOM     11  C   UNL     1       3.642   5.875  18.025  0.00  0.00    +0.000 A 
ATOM     12  C   UNL     1       4.983   6.219  17.752  0.00  0.00    +0.000 A 
ATOM     13  C   UNL     1       5.809   5.403  16.972  0.00  0.00    +0.000 A 
ATOM     14  C   UNL     1       7.186   5.852  16.584  0.00  0.00    +0.000 C 
ATOM     15  C   UNL     1       5.303   4.189  16.507  0.00  0.00    +0.000 A 
ATOM     16  C   UNL     1       3.993   3.810  16.804  0.00  0.00    +0.000 A 
ATOM     17  C   UNL     1       3.142   4.646  17.548  0.00  0.00    +0.000 A 
ATOM     18  C   UNL     1       1.719   4.208  17.764  0.00  0.00    +0.000 C 
ENDBRANCH   6  11
BRANCH   1  19
ATOM     19  C   UNL     1      -0.772  11.212  20.458  0.00  0.00    +0.000 C 
BRANCH  19  24
ATOM     20  N   UNL     1      -2.657  15.557  22.546  0.00  0.00    +0.000 N 
ATOM     21  C   UNL     1      -1.200  15.696  22.375  0.00  0.00    +0.000 C 
ATOM     22  C   UNL     1      -0.526  14.350  22.668  0.00  0.00    +0.000 C 
ATOM     23  N   UNL     1      -1.085  13.279  21.842  0.00  0.00    +0.000 N 
ATOM     24  C   UNL     1      -0.210  12.380  21.254  0.00  0.00    +0.000 C 
ATOM     25  O   UNL     1       1.011  12.452  21.437  0.00  0.00    +0.000 OA
ATOM     26  C   UNL     1      -2.557  13.166  21.908  0.00  0.00    +0.000 C 
ATOM     27  C   UNL     1      -3.262  14.526  21.686  0.00  0.00    +0.000 C 
BRANCH  20  33
ATOM     28  C   UNL     1      -3.532  16.470  24.682  0.00  0.00    +0.000 A 
ATOM     29  C   UNL     1      -4.239  17.495  25.338  0.00  0.00    +0.000 A 
ATOM     30  C   UNL     1      -4.793  18.559  24.632  0.00  0.00    +0.000 A 
ATOM     31  C   UNL     1      -4.672  18.597  23.255  0.00  0.00    +0.000 A 
ATOM     32  C   UNL     1      -3.996  17.570  22.592  0.00  0.00    +0.000 A 
ATOM     33  C   UNL     1      -3.392  16.486  23.268  0.00  0.00    +0.000 A 
BRANCH  28  35
ATOM     34  C   UNL     1      -1.712  15.721  26.031  0.00  0.00    +0.000 C 
ATOM     35  O   UNL     1      -2.946  15.436  25.381  0.00  0.00    +0.000 OA
ENDBRANCH  28  35
ENDBRANCH  20  33
ENDBRANCH  19  24
ENDBRANCH   1  19
TORSDOF 5
ENDMDL
MODEL 8
REMARK VINA RESULT:      -8.2      3.957      5.161
REMARK  Name = 
REMARK  8 active torsions:
REMARK  status: ('A' for Active; 'I' for Inactive)
REMARK    1  A    between atoms: C_1  and  O_2
REMARK    2  A    between atoms: O_2  and  C_3
REMARK    3  A    between atoms: C_8  and  N_9
REMARK    4  A    between atoms: C_13  and  C_15
REMARK    5  A    between atoms: C_15  and  N_16
REMARK    6  A    between atoms: C_21  and  C_22
REMARK    7  A    between atoms: C_24  and  C_25
REMARK    8  A    between atoms: C_28  and  C_29
REMARK                            x       y       z     vdW  Elec       q    Type
REMARK                         _______ _______ _______ _____ _____    ______ ____
ROOT
ATOM      1  N   UNL     1       0.897  10.621  19.915  0.00  0.00    +0.000 N 
ATOM      2  N   UNL     1       0.626   9.979  21.134  0.00  0.00    +0.000 NA
ATOM      3  C   UNL     1       0.970   8.728  21.264  0.00  0.00    +0.000 A 
ATOM      4  N   UNL     1       1.569   8.054  20.215  0.00  0.00    +0.000 N 
ATOM      5  N   UNL     1       1.959   6.768  20.294  0.00  0.00    +0.000 NA
ATOM      6  C   UNL     1       2.424   6.495  19.058  0.00  0.00    +0.000 A 
ATOM      7  C   UNL     1       2.350   7.652  18.227  0.00  0.00    +0.000 A 
ATOM      8  C   UNL     1       1.799   8.625  19.013  0.00  0.00    +0.000 A 
ATOM      9  C   UNL     1       1.447   9.984  18.793  0.00  0.00    +0.000 A 
ATOM     10  O   UNL     1       1.625  10.547  17.711  0.00  0.00    +0.000 OA
ENDROOT
BRANCH   6  11
ATOM     11  C   UNL     1       2.903   5.174  18.633  0.00  0.00    +0.000 A 
ATOM     12  C   UNL     1       3.982   5.129  17.725  0.00  0.00    +0.000 A 
ATOM     13  C   UNL     1       4.400   3.931  17.137  0.00  0.00    +0.000 A 
ATOM     14  C   UNL     1       5.459   3.926  16.075  0.00  0.00    +0.000 C 
ATOM     15  C   UNL     1       3.767   2.746  17.509  0.00  0.00    +0.000 A 
ATOM     16  C   UNL     1       2.726   2.764  18.439  0.00  0.00    +0.000 A 
ATOM     17  C   UNL     1       2.269   3.969  19.000  0.00  0.00    +0.000 A 
ATOM     18  C   UNL     1       1.092   3.921  19.937  0.00  0.00    +0.000 C 
ENDBRANCH   6  11
BRANCH   1  19
ATOM     19  C   UNL     1       0.506  12.018  19.773  0.00  0.00    +0.000 C 
BRANCH  19  24
ATOM     20  N   UNL     1      -3.660  13.875  22.220  0.00  0.00    +0.000 N 
ATOM     21  C   UNL     1      -2.459  14.568  22.718  0.00  0.00    +0.000 C 
ATOM     22  C   UNL     1      -1.295  13.573  22.795  0.00  0.00    +0.000 C 
ATOM     23  N   UNL     1      -1.066  12.914  21.509  0.00  0.00    +0.000 N 
ATOM     24  C   UNL     1       0.240  12.771  21.069  0.00  0.00    +0.000 C 
ATOM     25  O   UNL     1       1.197  13.159  21.747  0.00  0.00    +0.000 OA
ATOM     26  C   UNL     1      -2.271  12.287  20.924  0.00  0.00    +0.000 C 
ATOM     27  C   UNL     1      -3.482  13.250  20.900  0.00  0.00    +0.000 C 
BRANCH  20  33
ATOM     28  C   UNL     1      -5.701  15.188  22.736  0.00  0.00    +0.000 A 
ATOM     29  C   UNL     1      -6.970  15.227  23.345  0.00  0.00    +0.000 A 
ATOM     30  C   UNL     1      -7.476  14.130  24.037  0.00  0.00    +0.000 A 
ATOM     31  C   UNL     1      -6.705  12.987  24.155  0.00  0.00    +0.000 A 
ATOM     32  C   UNL     1      -5.434  12.949  23.579  0.00  0.00    +0.000 A 
ATOM     33  C   UNL     1      -4.891  14.026  22.842  0.00  0.00    +0.000 A 
BRANCH  28  35
ATOM     34  C   UNL     1      -5.656  16.374  20.667  0.00  0.00    +0.000 C 
ATOM     35  O   UNL     1      -5.215  16.258  22.016  0.00  0.00    +0.000 OA
ENDBRANCH  28  35
ENDBRANCH  20  33
ENDBRANCH  19  24
ENDBRANCH   1  19
TORSDOF 5
ENDMDL
MODEL 9
REMARK VINA RESULT:      -8.2      4.182      5.424
REMARK  Name = 
REMARK  8 active torsions:
REMARK  status: ('A' for Active; 'I' for Inactive)
REMARK    1  A    between atoms: C_1  and  O_2
REMARK    2  A    between atoms: O_2  and  C_3
REMARK    3  A    between atoms: C_8  and  N_9
REMARK    4  A    between atoms: C_13  and  C_15
REMARK    5  A    between atoms: C_15  and  N_16
REMARK    6  A    between atoms: C_21  and  C_22
REMARK    7  A    between atoms: C_24  and  C_25
REMARK    8  A    between atoms: C_28  and  C_29
REMARK                            x       y       z     vdW  Elec       q    Type
REMARK                         _______ _______ _______ _____ _____    ______ ____
ROOT
ATOM      1  N   UNL     1       0.883  11.226  20.055  0.00  0.00    +0.000 N 
ATOM      2  N   UNL     1       0.699  10.489  21.236  0.00  0.00    +0.000 NA
ATOM      3  C   UNL     1       1.036   9.230  21.238  0.00  0.00    +0.000 A 
ATOM      4  N   UNL     1       1.544   8.639  20.096  0.00  0.00    +0.000 N 
ATOM      5  N   UNL     1       1.923   7.348  20.039  0.00  0.00    +0.000 NA
ATOM      6  C   UNL     1       2.287   7.174  18.754  0.00  0.00    +0.000 A 
ATOM      7  C   UNL     1       2.165   8.395  18.027  0.00  0.00    +0.000 A 
ATOM      8  C   UNL     1       1.687   9.305  18.929  0.00  0.00    +0.000 A 
ATOM      9  C   UNL     1       1.337  10.678  18.847  0.00  0.00    +0.000 A 
ATOM     10  O   UNL     1       1.439  11.327  17.803  0.00  0.00    +0.000 OA
ENDROOT
BRANCH   6  11
ATOM     11  C   UNL     1       2.716   5.889  18.187  0.00  0.00    +0.000 A 
ATOM     12  C   UNL     1       1.893   4.765  18.413  0.00  0.00    +0.000 A 
ATOM     13  C   UNL     1       2.296   3.474  18.057  0.00  0.00    +0.000 A 
ATOM     14  C   UNL     1       1.465   2.282  18.428  0.00  0.00    +0.000 C 
ATOM     15  C   UNL     1       3.519   3.309  17.408  0.00  0.00    +0.000 A 
ATOM     16  C   UNL     1       4.328   4.414  17.137  0.00  0.00    +0.000 A 
ATOM     17  C   UNL     1       3.952   5.709  17.531  0.00  0.00    +0.000 A 
ATOM     18  C   UNL     1       4.908   6.842  17.275  0.00  0.00    +0.000 C 
ENDBRANCH   6  11
BRANCH   1  19
ATOM     19  C   UNL     1       0.500  12.633  20.057  0.00  0.00    +0.000 C 
BRANCH  19  24
ATOM     20  N   UNL     1      -3.883  13.983  22.456  0.00  0.00    +0.000 N 
ATOM     21  C   UNL     1      -2.751  14.678  23.092  0.00  0.00    +0.000 C 
ATOM     22  C   UNL     1      -1.536  13.742  23.126  0.00  0.00    +0.000 C 
ATOM     23  N   UNL     1      -1.206  13.245  21.790  0.00  0.00    +0.000 N 
ATOM     24  C   UNL     1       0.126  13.220  21.410  0.00  0.00    +0.000 C 
ATOM     25  O   UNL     1       1.025  13.579  22.180  0.00  0.00    +0.000 OA
ATOM     26  C   UNL     1      -2.342  12.626  21.074  0.00  0.00    +0.000 C 
ATOM     27  C   UNL     1      -3.604  13.521  21.087  0.00  0.00    +0.000 C 
BRANCH  20  33
ATOM     28  C   UNL     1      -6.064  15.081  22.901  0.00  0.00    +0.000 A 
ATOM     29  C   UNL     1      -7.358  14.982  23.448  0.00  0.00    +0.000 A 
ATOM     30  C   UNL     1      -7.785  13.824  24.091  0.00  0.00    +0.000 A 
ATOM     31  C   UNL     1      -6.914  12.758  24.221  0.00  0.00    +0.000 A 
ATOM     32  C   UNL     1      -5.620  12.857  23.706  0.00  0.00    +0.000 A 
ATOM     33  C   UNL     1      -5.151  14.000  23.020  0.00  0.00    +0.000 A 
BRANCH  28  35
ATOM     34  C   UNL     1      -5.289  17.334  23.024  0.00  0.00    +0.000 C 
ATOM     35  O   UNL     1      -5.651  16.211  22.227  0.00  0.00    +0.000 OA
ENDBRANCH  28  35
ENDBRANCH  20  33
ENDBRANCH  19  24
ENDBRANCH   1  19
TORSDOF 5
ENDMDL
