MODEL 1
REMARK VINA RESULT:      -6.6      0.000      0.000
REMARK  Name = 
REMARK  6 active torsions:
REMARK  status: ('A' for Active; 'I' for Inactive)
REMARK    1  A    between atoms: C_1  and  C_2
REMARK    2  A    between atoms: C_4  and  C_5
REMARK    3  A    between atoms: C_5  and  N_6
REMARK    4  A    between atoms: N_12  and  C_13
REMARK    5  A    between atoms: C_13  and  C_14
REMARK    6  A    between atoms: N_17  and  C_18
REMARK                            x       y       z     vdW  Elec       q    Type
REMARK                         _______ _______ _______ _____ _____    ______ ____
ROOT
ATOM      1  N   UNL     1       6.229   5.372  17.677  0.00  0.00    +0.000 N 
ATOM      2  C   UNL     1       6.366   4.248  18.556  0.00  0.00    +0.000 C 
ATOM      3  C   UNL     1       4.938   3.846  18.872  0.00  0.00    +0.000 C 
ATOM      4  C   UNL     1       4.073   5.092  18.584  0.00  0.00    +0.000 C 
ATOM      5  C   UNL     1       2.798   4.774  17.797  0.00  0.00    +0.000 C 
ATOM      6  C   UNL     1       1.648   5.230  18.681  0.00  0.00    +0.000 C 
ATOM      7  N   UNL     1       2.193   6.224  19.615  0.00  0.00    +0.000 NA
ATOM      8  C   UNL     1       3.589   5.801  19.849  0.00  0.00    +0.000 C 
ATOM      9  C   UNL     1       4.990   5.969  17.746  0.00  0.00    +0.000 C 
ATOM     10  O   UNL     1       4.683   7.006  17.171  0.00  0.00    +0.000 OA
ENDROOT
BRANCH   1  11
ATOM     11  C   UNL     1       7.238   5.742  16.703  0.00  0.00    +0.000 C 
BRANCH  11  15
ATOM     12  C   UNL     1       7.652   4.981  11.805  0.00  0.00    +0.000 C 
ATOM     13  C   UNL     1       7.156   4.808  13.198  0.00  0.00    +0.000 A 
ATOM     14  N   UNL     1       7.591   5.488  14.239  0.00  0.00    +0.000 NA
ATOM     15  C   UNL     1       6.908   5.097  15.386  0.00  0.00    +0.000 A 
ATOM     16  C   UNL     1       5.966   4.104  15.178  0.00  0.00    +0.000 A 
ATOM     17  S   UNL     1       5.925   3.656  13.527  0.00  0.00    +0.000 S 
ENDBRANCH  11  15
ENDBRANCH   1  11
BRANCH   7  18
ATOM     18  C   UNL     1       2.069   7.582  19.061  0.00  0.00    +0.000 C 
BRANCH  18  19
ATOM     19  C   UNL     1       1.413   8.487  20.045  0.00  0.00    +0.000 A 
ATOM     20  C   UNL     1       0.948   9.806  19.819  0.00  0.00    +0.000 A 
ATOM     21  N   UNL     1       0.384  10.346  20.903  0.00  0.00    +0.000 NA
ATOM     22  N   UNL     1       0.483   9.374  21.826  0.00  0.00    +0.000 N 
ATOM     23  C   UNL     1      -0.084   9.559  23.139  0.00  0.00    +0.000 C 
ATOM     24  C   UNL     1       1.105   8.251  21.370  0.00  0.00    +0.000 A 
ENDBRANCH  18  19
ENDBRANCH   7  18
TORSDOF 4
ENDMDL
MODEL 2
REMARK VINA RESULT:      -6.3      0.831      1.331
REMARK  Name = 
REMARK  6 active torsions:
REMARK  status: ('A' for Active; 'I' for Inactive)
REMARK    1  A    between atoms: C_1  and  C_2
REMARK    2  A    between atoms: C_4  and  C_5
REMARK    3  A    between atoms: C_5  and  N_6
REMARK    4  A    between atoms: N_12  and  C_13
REMARK    5  A    between atoms: C_13  and  C_14
REMARK    6  A    between atoms: N_17  and  C_18
REMARK                            x       y       z     vdW  Elec       q    Type
REMARK                         _______ _______ _______ _____ _____    ______ ____
ROOT
ATOM      1  N   UNL     1       6.269   5.300  17.890  0.00  0.00    +0.000 N 
ATOM      2  C   UNL     1       6.222   4.337  18.951  0.00  0.00    +0.000 C 
ATOM      3  C   UNL     1       4.742   4.057  19.133  0.00  0.00    +0.000 C 
ATOM      4  C   UNL     1       4.002   5.272  18.532  0.00  0.00    +0.000 C 
ATOM      5  C   UNL     1       2.818   4.880  17.643  0.00  0.00    +0.000 C 
ATOM      6  C   UNL     1       1.599   5.529  18.279  0.00  0.00    +0.000 C 
ATOM      7  N   UNL     1       2.086   6.642  19.103  0.00  0.00    +0.000 NA
ATOM      8  C   UNL     1       3.411   6.206  19.588  0.00  0.00    +0.000 C 
ATOM      9  C   UNL     1       5.073   5.953  17.693  0.00  0.00    +0.000 C 
ATOM     10  O   UNL     1       4.908   6.889  16.921  0.00  0.00    +0.000 OA
ENDROOT
BRANCH   1  11
ATOM     11  C   UNL     1       7.414   5.455  17.013  0.00  0.00    +0.000 C 
BRANCH  11  15
ATOM     12  C   UNL     1       7.669   5.269  12.049  0.00  0.00    +0.000 C 
ATOM     13  C   UNL     1       7.230   4.923  13.429  0.00  0.00    +0.000 A 
ATOM     14  N   UNL     1       7.684   5.494  14.526  0.00  0.00    +0.000 NA
ATOM     15  C   UNL     1       7.054   4.954  15.642  0.00  0.00    +0.000 A 
ATOM     16  C   UNL     1       6.133   3.961  15.353  0.00  0.00    +0.000 A 
ATOM     17  S   UNL     1       6.044   3.703  13.665  0.00  0.00    +0.000 S 
ENDBRANCH  11  15
ENDBRANCH   1  11
BRANCH   7  18
ATOM     18  C   UNL     1       2.121   7.891  18.323  0.00  0.00    +0.000 C 
BRANCH  18  19
ATOM     19  C   UNL     1       1.461   8.993  19.076  0.00  0.00    +0.000 A 
ATOM     20  C   UNL     1       1.075   8.990  20.439  0.00  0.00    +0.000 A 
ATOM     21  N   UNL     1       0.523  10.145  20.821  0.00  0.00    +0.000 NA
ATOM     22  N   UNL     1       0.557  10.893  19.705  0.00  0.00    +0.000 N 
ATOM     23  C   UNL     1       0.097  12.260  19.734  0.00  0.00    +0.000 C 
ATOM     24  C   UNL     1       1.090  10.246  18.631  0.00  0.00    +0.000 A 
ENDBRANCH  18  19
ENDBRANCH   7  18
TORSDOF 4
ENDMDL
MODEL 3
REMARK VINA RESULT:      -6.3      4.009      6.315
REMARK  Name = 
REMARK  6 active torsions:
REMARK  status: ('A' for Active; 'I' for Inactive)
REMARK    1  A    between atoms: C_1  and  C_2
REMARK    2  A    between atoms: C_4  and  C_5
REMARK    3  A    between atoms: C_5  and  N_6
REMARK    4  A    between atoms: N_12  and  C_13
REMARK    5  A    between atoms: C_13  and  C_14
REMARK    6  A    between atoms: N_17  and  C_18
REMARK                            x       y       z     vdW  Elec       q    Type
REMARK                         _______ _______ _______ _____ _____    ______ ____
ROOT
ATOM      1  N   UNL     1       2.106   8.105  19.072  0.00  0.00    +0.000 N 
ATOM      2  C   UNL     1       1.799   7.757  20.428  0.00  0.00    +0.000 C 
ATOM      3  C   UNL     1       0.574   8.590  20.757  0.00  0.00    +0.000 C 
ATOM      4  C   UNL     1       0.574   9.761  19.749  0.00  0.00    +0.000 C 
ATOM      5  C   UNL     1      -0.802  10.024  19.130  0.00  0.00    +0.000 C 
ATOM      6  C   UNL     1      -1.147  11.459  19.497  0.00  0.00    +0.000 C 
ATOM      7  N   UNL     1       0.118  12.141  19.796  0.00  0.00    +0.000 NA
ATOM      8  C   UNL     1       0.990  11.095  20.368  0.00  0.00    +0.000 C 
ATOM      9  C   UNL     1       1.543   9.296  18.673  0.00  0.00    +0.000 C 
ATOM     10  O   UNL     1       1.758   9.845  17.600  0.00  0.00    +0.000 OA
ENDROOT
BRANCH   1  11
ATOM     11  C   UNL     1       2.806   7.213  18.167  0.00  0.00    +0.000 C 
BRANCH  11  15
ATOM     12  C   UNL     1       0.920   2.648  18.750  0.00  0.00    +0.000 C 
ATOM     13  C   UNL     1       1.855   3.794  18.918  0.00  0.00    +0.000 A 
ATOM     14  N   UNL     1       1.721   4.965  18.330  0.00  0.00    +0.000 NA
ATOM     15  C   UNL     1       2.752   5.815  18.715  0.00  0.00    +0.000 A 
ATOM     16  C   UNL     1       3.662   5.247  19.592  0.00  0.00    +0.000 A 
ATOM     17  S   UNL     1       3.222   3.633  19.947  0.00  0.00    +0.000 S 
ENDBRANCH  11  15
ENDBRANCH   1  11
BRANCH   7  18
ATOM     18  C   UNL     1       0.667  12.773  18.585  0.00  0.00    +0.000 C 
BRANCH  18  19
ATOM     19  C   UNL     1       1.809  13.663  18.935  0.00  0.00    +0.000 A 
ATOM     20  C   UNL     1       3.103  13.665  18.358  0.00  0.00    +0.000 A 
ATOM     21  N   UNL     1       3.898  14.604  18.878  0.00  0.00    +0.000 NA
ATOM     22  N   UNL     1       3.115  15.210  19.788  0.00  0.00    +0.000 N 
ATOM     23  C   UNL     1       3.607  16.344  20.529  0.00  0.00    +0.000 C 
ATOM     24  C   UNL     1       1.864  14.674  19.874  0.00  0.00    +0.000 A 
ENDBRANCH  18  19
ENDBRANCH   7  18
TORSDOF 4
ENDMDL
MODEL 4
REMARK VINA RESULT:      -6.2      2.816      7.743
REMARK  Name = 
REMARK  6 active torsions:
REMARK  status: ('A' for Active; 'I' for Inactive)
REMARK    1  A    between atoms: C_1  and  C_2
REMARK    2  A    between atoms: C_4  and  C_5
REMARK    3  A    between atoms: C_5  and  N_6
REMARK    4  A    between atoms: N_12  and  C_13
REMARK    5  A    between atoms: C_13  and  C_14
REMARK    6  A    between atoms: N_17  and  C_18
REMARK                            x       y       z     vdW  Elec       q    Type
REMARK                         _______ _______ _______ _____ _____    ______ ____
ROOT
ATOM      1  N   UNL     1       1.800   5.544  20.367  0.00  0.00    +0.000 N 
ATOM      2  C   UNL     1       0.655   4.790  19.949  0.00  0.00    +0.000 C 
ATOM      3  C   UNL     1       1.237   3.497  19.412  0.00  0.00    +0.000 C 
ATOM      4  C   UNL     1       2.709   3.806  19.061  0.00  0.00    +0.000 C 
ATOM      5  C   UNL     1       3.685   2.730  19.546  0.00  0.00    +0.000 C 
ATOM      6  C   UNL     1       4.384   2.220  18.296  0.00  0.00    +0.000 C 
ATOM      7  N   UNL     1       4.258   3.269  17.276  0.00  0.00    +0.000 NA
ATOM      8  C   UNL     1       2.964   3.923  17.559  0.00  0.00    +0.000 C 
ATOM      9  C   UNL     1       2.976   5.111  19.795  0.00  0.00    +0.000 C 
ATOM     10  O   UNL     1       4.058   5.671  19.917  0.00  0.00    +0.000 OA
ENDROOT
BRANCH   1  11
ATOM     11  C   UNL     1       1.746   6.554  21.406  0.00  0.00    +0.000 C 
BRANCH  11  15
ATOM     12  C   UNL     1       1.466  10.260  18.100  0.00  0.00    +0.000 C 
ATOM     13  C   UNL     1       1.134   9.445  19.301  0.00  0.00    +0.000 A 
ATOM     14  N   UNL     1       1.742   8.327  19.641  0.00  0.00    +0.000 NA
ATOM     15  C   UNL     1       1.205   7.830  20.823  0.00  0.00    +0.000 A 
ATOM     16  C   UNL     1       0.177   8.595  21.348  0.00  0.00    +0.000 A 
ATOM     17  S   UNL     1      -0.119   9.957  20.358  0.00  0.00    +0.000 S 
ENDBRANCH  11  15
ENDBRANCH   1  11
BRANCH   7  18
ATOM     18  C   UNL     1       5.409   4.186  17.328  0.00  0.00    +0.000 C 
BRANCH  18  19
ATOM     19  C   UNL     1       5.994   4.363  15.970  0.00  0.00    +0.000 A 
ATOM     20  C   UNL     1       6.993   5.289  15.581  0.00  0.00    +0.000 A 
ATOM     21  N   UNL     1       7.320   5.183  14.290  0.00  0.00    +0.000 NA
ATOM     22  N   UNL     1       6.534   4.185  13.848  0.00  0.00    +0.000 N 
ATOM     23  C   UNL     1       6.643   3.723  12.486  0.00  0.00    +0.000 C 
ATOM     24  C   UNL     1       5.710   3.675  14.807  0.00  0.00    +0.000 A 
ENDBRANCH  18  19
ENDBRANCH   7  18
TORSDOF 4
ENDMDL
MODEL 5
REMARK VINA RESULT:      -6.2      3.988      6.506
REMARK  Name = 
REMARK  6 active torsions:
REMARK  status: ('A' for Active; 'I' for Inactive)
REMARK    1  A    between atoms: C_1  and  C_2
REMARK    2  A    between atoms: C_4  and  C_5
REMARK    3  A    between atoms: C_5  and  N_6
REMARK    4  A    between atoms: N_12  and  C_13
REMARK    5  A    between atoms: C_13  and  C_14
REMARK    6  A    between atoms: N_17  and  C_18
REMARK                            x       y       z     vdW  Elec       q    Type
REMARK                         _______ _______ _______ _____ _____    ______ ____
ROOT
ATOM      1  N   UNL     1       2.132   8.110  19.044  0.00  0.00    +0.000 N 
ATOM      2  C   UNL     1       1.833   7.762  20.402  0.00  0.00    +0.000 C 
ATOM      3  C   UNL     1       0.618   8.603  20.743  0.00  0.00    +0.000 C 
ATOM      4  C   UNL     1       0.618   9.776  19.738  0.00  0.00    +0.000 C 
ATOM      5  C   UNL     1      -0.761  10.051  19.130  0.00  0.00    +0.000 C 
ATOM      6  C   UNL     1      -1.093  11.487  19.504  0.00  0.00    +0.000 C 
ATOM      7  N   UNL     1       0.180  12.160  19.793  0.00  0.00    +0.000 NA
ATOM      8  C   UNL     1       1.049  11.106  20.356  0.00  0.00    +0.000 C 
ATOM      9  C   UNL     1       1.574   9.307  18.653  0.00  0.00    +0.000 C 
ATOM     10  O   UNL     1       1.785   9.856  17.579  0.00  0.00    +0.000 OA
ENDROOT
BRANCH   1  11
ATOM     11  C   UNL     1       2.818   7.216  18.131  0.00  0.00    +0.000 C 
BRANCH  11  15
ATOM     12  C   UNL     1       0.928   2.660  18.769  0.00  0.00    +0.000 C 
ATOM     13  C   UNL     1       1.871   3.802  18.913  0.00  0.00    +0.000 A 
ATOM     14  N   UNL     1       1.729   4.972  18.325  0.00  0.00    +0.000 NA
ATOM     15  C   UNL     1       2.771   5.819  18.685  0.00  0.00    +0.000 A 
ATOM     16  C   UNL     1       3.698   5.250  19.542  0.00  0.00    +0.000 A 
ATOM     17  S   UNL     1       3.260   3.639  19.911  0.00  0.00    +0.000 S 
ENDBRANCH  11  15
ENDBRANCH   1  11
BRANCH   7  18
ATOM     18  C   UNL     1       0.724  12.790  18.579  0.00  0.00    +0.000 C 
BRANCH  18  19
ATOM     19  C   UNL     1       0.836  14.264  18.764  0.00  0.00    +0.000 A 
ATOM     20  C   UNL     1       2.025  15.032  18.826  0.00  0.00    +0.000 A 
ATOM     21  N   UNL     1       1.787  16.338  18.978  0.00  0.00    +0.000 NA
ATOM     22  N   UNL     1       0.445  16.411  19.010  0.00  0.00    +0.000 N 
ATOM     23  C   UNL     1      -0.210  17.693  19.101  0.00  0.00    +0.000 C 
ATOM     24  C   UNL     1      -0.169  15.199  18.905  0.00  0.00    +0.000 A 
ENDBRANCH  18  19
ENDBRANCH   7  18
TORSDOF 4
ENDMDL
MODEL 6
REMARK VINA RESULT:      -6.1      4.318      6.733
REMARK  Name = 
REMARK  6 active torsions:
REMARK  status: ('A' for Active; 'I' for Inactive)
REMARK    1  A    between atoms: C_1  and  C_2
REMARK    2  A    between atoms: C_4  and  C_5
REMARK    3  A    between atoms: C_5  and  N_6
REMARK    4  A    between atoms: N_12  and  C_13
REMARK    5  A    between atoms: C_13  and  C_14
REMARK    6  A    between atoms: N_17  and  C_18
REMARK                            x       y       z     vdW  Elec       q    Type
REMARK                         _______ _______ _______ _____ _____    ______ ____
ROOT
ATOM      1  N   UNL     1       1.710   8.043  19.648  0.00  0.00    +0.000 N 
ATOM      2  C   UNL     1       2.169   7.980  18.291  0.00  0.00    +0.000 C 
ATOM      3  C   UNL     1       2.022   9.402  17.782  0.00  0.00    +0.000 C 
ATOM      4  C   UNL     1       0.987  10.078  18.708  0.00  0.00    +0.000 C 
ATOM      5  C   UNL     1       1.407  11.480  19.161  0.00  0.00    +0.000 C 
ATOM      6  C   UNL     1       0.312  12.413  18.669  0.00  0.00    +0.000 C 
ATOM      7  N   UNL     1      -0.889  11.593  18.463  0.00  0.00    +0.000 NA
ATOM      8  C   UNL     1      -0.381  10.268  18.053  0.00  0.00    +0.000 C 
ATOM      9  C   UNL     1       0.928   9.146  19.908  0.00  0.00    +0.000 C 
ATOM     10  O   UNL     1       0.337   9.349  20.961  0.00  0.00    +0.000 OA
ENDROOT
BRANCH   1  11
ATOM     11  C   UNL     1       2.156   7.122  20.676  0.00  0.00    +0.000 C 
BRANCH  11  15
ATOM     12  C   UNL     1       0.865   2.627  18.983  0.00  0.00    +0.000 C 
ATOM     13  C   UNL     1       1.739   3.785  19.314  0.00  0.00    +0.000 A 
ATOM     14  N   UNL     1       1.322   4.907  19.864  0.00  0.00    +0.000 NA
ATOM     15  C   UNL     1       2.393   5.772  20.058  0.00  0.00    +0.000 A 
ATOM     16  C   UNL     1       3.613   5.276  19.628  0.00  0.00    +0.000 A 
ATOM     17  S   UNL     1       3.422   3.705  18.981  0.00  0.00    +0.000 S 
ENDBRANCH  11  15
ENDBRANCH   1  11
BRANCH   7  18
ATOM     18  C   UNL     1      -1.713  11.561  19.682  0.00  0.00    +0.000 C 
BRANCH  18  19
ATOM     19  C   UNL     1      -3.120  11.938  19.370  0.00  0.00    +0.000 A 
ATOM     20  C   UNL     1      -3.981  12.753  20.144  0.00  0.00    +0.000 A 
ATOM     21  N   UNL     1      -5.180  12.920  19.578  0.00  0.00    +0.000 NA
ATOM     22  N   UNL     1      -5.089  12.214  18.438  0.00  0.00    +0.000 N 
ATOM     23  C   UNL     1      -6.187  12.202  17.502  0.00  0.00    +0.000 C 
ATOM     24  C   UNL     1      -3.887  11.594  18.275  0.00  0.00    +0.000 A 
ENDBRANCH  18  19
ENDBRANCH   7  18
TORSDOF 4
ENDMDL
MODEL 7
REMARK VINA RESULT:      -6.1      2.470      7.889
REMARK  Name = 
REMARK  6 active torsions:
REMARK  status: ('A' for Active; 'I' for Inactive)
REMARK    1  A    between atoms: C_1  and  C_2
REMARK    2  A    between atoms: C_4  and  C_5
REMARK    3  A    between atoms: C_5  and  N_6
REMARK    4  A    between atoms: N_12  and  C_13
REMARK    5  A    between atoms: C_13  and  C_14
REMARK    6  A    between atoms: N_17  and  C_18
REMARK                            x       y       z     vdW  Elec       q    Type
REMARK                         _______ _______ _______ _____ _____    ______ ____
ROOT
ATOM      1  N   UNL     1       1.892   5.813  20.266  0.00  0.00    +0.000 N 
ATOM      2  C   UNL     1       0.767   4.974  19.974  0.00  0.00    +0.000 C 
ATOM      3  C   UNL     1       1.385   3.638  19.606  0.00  0.00    +0.000 C 
ATOM      4  C   UNL     1       2.841   3.943  19.192  0.00  0.00    +0.000 C 
ATOM      5  C   UNL     1       3.858   2.973  19.801  0.00  0.00    +0.000 C 
ATOM      6  C   UNL     1       4.558   2.320  18.620  0.00  0.00    +0.000 C 
ATOM      7  N   UNL     1       4.385   3.217  17.470  0.00  0.00    +0.000 NA
ATOM      8  C   UNL     1       3.073   3.862  17.684  0.00  0.00    +0.000 C 
ATOM      9  C   UNL     1       3.074   5.343  19.738  0.00  0.00    +0.000 C 
ATOM     10  O   UNL     1       4.138   5.947  19.765  0.00  0.00    +0.000 OA
ENDROOT
BRANCH   1  11
ATOM     11  C   UNL     1       1.817   6.952  21.160  0.00  0.00    +0.000 C 
BRANCH  11  15
ATOM     12  C   UNL     1      -0.796  11.106  20.350  0.00  0.00    +0.000 C 
ATOM     13  C   UNL     1       0.177  10.009  20.096  0.00  0.00    +0.000 A 
ATOM     14  N   UNL     1       0.430   9.022  20.931  0.00  0.00    +0.000 NA
ATOM     15  C   UNL     1       1.371   8.159  20.381  0.00  0.00    +0.000 A 
ATOM     16  C   UNL     1       1.823   8.531  19.126  0.00  0.00    +0.000 A 
ATOM     17  S   UNL     1       1.056   9.974  18.621  0.00  0.00    +0.000 S 
ENDBRANCH  11  15
ENDBRANCH   1  11
BRANCH   7  18
ATOM     18  C   UNL     1       5.505   4.167  17.378  0.00  0.00    +0.000 C 
BRANCH  18  19
ATOM     19  C   UNL     1       5.959   4.301  15.966  0.00  0.00    +0.000 A 
ATOM     20  C   UNL     1       6.858   5.261  15.442  0.00  0.00    +0.000 A 
ATOM     21  N   UNL     1       7.080   5.101  14.134  0.00  0.00    +0.000 NA
ATOM     22  N   UNL     1       6.325   4.034  13.817  0.00  0.00    +0.000 N 
ATOM     23  C   UNL     1       6.348   3.502  12.476  0.00  0.00    +0.000 C 
ATOM     24  C   UNL     1       5.622   3.531  14.870  0.00  0.00    +0.000 A 
ENDBRANCH  18  19
ENDBRANCH   7  18
TORSDOF 4
ENDMDL
MODEL 8
REMARK VINA RESULT:      -6.1      2.694      7.927
REMARK  Name = 
REMARK  6 active torsions:
REMARK  status: ('A' for Active; 'I' for Inactive)
REMARK    1  A    between atoms: C_1  and  C_2
REMARK    2  A    between atoms: C_4  and  C_5
REMARK    3  A    between atoms: C_5  and  N_6
REMARK    4  A    between atoms: N_12  and  C_13
REMARK    5  A    between atoms: C_13  and  C_14
REMARK    6  A    between atoms: N_17  and  C_18
REMARK                            x       y       z     vdW  Elec       q    Type
REMARK                         _______ _______ _______ _____ _____    ______ ____
ROOT
ATOM      1  N   UNL     1       2.562   7.455  17.765  0.00  0.00    +0.000 N 
ATOM      2  C   UNL     1       1.417   6.593  17.792  0.00  0.00    +0.000 C 
ATOM      3  C   UNL     1       1.926   5.318  18.437  0.00  0.00    +0.000 C 
ATOM      4  C   UNL     1       3.460   5.332  18.254  0.00  0.00    +0.000 C 
ATOM      5  C   UNL     1       4.224   4.947  19.525  0.00  0.00    +0.000 C 
ATOM      6  C   UNL     1       5.044   3.723  19.152  0.00  0.00    +0.000 C 
ATOM      7  N   UNL     1       5.194   3.736  17.691  0.00  0.00    +0.000 NA
ATOM      8  C   UNL     1       3.953   4.357  17.186  0.00  0.00    +0.000 C 
ATOM      9  C   UNL     1       3.755   6.780  17.895  0.00  0.00    +0.000 C 
ATOM     10  O   UNL     1       4.862   7.294  17.789  0.00  0.00    +0.000 OA
ENDROOT
BRANCH   1  11
ATOM     11  C   UNL     1       2.462   8.902  17.763  0.00  0.00    +0.000 C 
BRANCH  11  15
ATOM     12  C   UNL     1       0.076   9.138  22.120  0.00  0.00    +0.000 C 
ATOM     13  C   UNL     1       0.362   9.388  20.681  0.00  0.00    +0.000 A 
ATOM     14  N   UNL     1       1.408   8.920  20.032  0.00  0.00    +0.000 NA
ATOM     15  C   UNL     1       1.364   9.320  18.701  0.00  0.00    +0.000 A 
ATOM     16  C   UNL     1       0.271  10.106  18.377  0.00  0.00    +0.000 A 
ATOM     17  S   UNL     1      -0.721  10.342  19.750  0.00  0.00    +0.000 S 
ENDBRANCH  11  15
ENDBRANCH   1  11
BRANCH   7  18
ATOM     18  C   UNL     1       6.418   4.453  17.299  0.00  0.00    +0.000 C 
BRANCH  18  19
ATOM     19  C   UNL     1       6.550   4.487  15.816  0.00  0.00    +0.000 A 
ATOM     20  C   UNL     1       7.241   5.448  15.038  0.00  0.00    +0.000 A 
ATOM     21  N   UNL     1       7.190   5.185  13.729  0.00  0.00    +0.000 NA
ATOM     22  N   UNL     1       6.469   4.052  13.665  0.00  0.00    +0.000 N 
ATOM     23  C   UNL     1       6.246   3.405  12.395  0.00  0.00    +0.000 C 
ATOM     24  C   UNL     1       6.047   3.605  14.881  0.00  0.00    +0.000 A 
ENDBRANCH  18  19
ENDBRANCH   7  18
TORSDOF 4
ENDMDL
MODEL 9
REMARK VINA RESULT:      -6.0      4.186      6.576
REMARK  Name = 
REMARK  6 active torsions:
REMARK  status: ('A' for Active; 'I' for Inactive)
REMARK    1  A    between atoms: C_1  and  C_2
REMARK    2  A    between atoms: C_4  and  C_5
REMARK    3  A    between atoms: C_5  and  N_6
REMARK    4  A    between atoms: N_12  and  C_13
REMARK    5  A    between atoms: C_13  and  C_14
REMARK    6  A    between atoms: N_17  and  C_18
REMARK                            x       y       z     vdW  Elec       q    Type
REMARK                         _______ _______ _______ _____ _____    ______ ____
ROOT
ATOM      1  N   UNL     1       2.040   8.083  19.248  0.00  0.00    +0.000 N 
ATOM      2  C   UNL     1       1.626   7.825  20.596  0.00  0.00    +0.000 C 
ATOM      3  C   UNL     1       0.408   8.709  20.787  0.00  0.00    +0.000 C 
ATOM      4  C   UNL     1       0.517   9.818  19.717  0.00  0.00    +0.000 C 
ATOM      5  C   UNL     1      -0.803  10.081  18.984  0.00  0.00    +0.000 C 
ATOM      6  C   UNL     1      -1.127  11.544  19.243  0.00  0.00    +0.000 C 
ATOM      7  N   UNL     1       0.135  12.208  19.593  0.00  0.00    +0.000 NA
ATOM      8  C   UNL     1       0.930  11.174  20.287  0.00  0.00    +0.000 C 
ATOM      9  C   UNL     1       1.545   9.264  18.743  0.00  0.00    +0.000 C 
ATOM     10  O   UNL     1       1.853   9.742  17.658  0.00  0.00    +0.000 OA
ENDROOT
BRANCH   1  11
ATOM     11  C   UNL     1       2.775   7.121  18.449  0.00  0.00    +0.000 C 
BRANCH  11  15
ATOM     12  C   UNL     1       2.262   3.225  21.499  0.00  0.00    +0.000 C 
ATOM     13  C   UNL     1       2.146   4.039  20.258  0.00  0.00    +0.000 A 
ATOM     14  N   UNL     1       2.597   5.269  20.123  0.00  0.00    +0.000 NA
ATOM     15  C   UNL     1       2.346   5.732  18.836  0.00  0.00    +0.000 A 
ATOM     16  C   UNL     1       1.688   4.826  18.021  0.00  0.00    +0.000 A 
ATOM     17  S   UNL     1       1.386   3.372  18.870  0.00  0.00    +0.000 S 
ENDBRANCH  11  15
ENDBRANCH   1  11
BRANCH   7  18
ATOM     18  C   UNL     1       0.788  12.752  18.392  0.00  0.00    +0.000 C 
BRANCH  18  19
ATOM     19  C   UNL     1       1.867  13.706  18.773  0.00  0.00    +0.000 A 
ATOM     20  C   UNL     1       1.781  14.771  19.702  0.00  0.00    +0.000 A 
ATOM     21  N   UNL     1       2.934  15.432  19.837  0.00  0.00    +0.000 NA
ATOM     22  N   UNL     1       3.764  14.789  18.998  0.00  0.00    +0.000 N 
ATOM     23  C   UNL     1       5.150  15.177  18.909  0.00  0.00    +0.000 C 
ATOM     24  C   UNL     1       3.172  13.763  18.325  0.00  0.00    +0.000 A 
ENDBRANCH  18  19
ENDBRANCH   7  18
TORSDOF 4
ENDMDL
