MODEL 1
REMARK VINA RESULT:      -6.8      0.000      0.000
REMARK  Name = 
REMARK  7 active torsions:
REMARK  status: ('A' for Active; 'I' for Inactive)
REMARK    1  A    between atoms: C_1  and  N_2
REMARK    2  A    between atoms: C_6  and  S_7
REMARK    3  A    between atoms: S_7  and  C_8
REMARK    4  A    between atoms: C_8  and  C_9
REMARK    5  A    between atoms: C_9  and  N_10
REMARK    6  A    between atoms: N_10  and  S_11
REMARK    7  A    between atoms: S_11  and  C_14
REMARK                            x       y       z     vdW  Elec       q    Type
REMARK                         _______ _______ _______ _____ _____    ______ ____
ROOT
ATOM      1  N   UNL     1       5.342   4.499  16.791  0.00  0.00    +0.000 NA
ATOM      2  H   UNL     1       4.581   5.055  16.394  0.00  0.00    +0.000 HD
ENDROOT
BRANCH   1   3
ATOM      3  S   UNL     1       6.815   5.133  16.236  0.00  0.00    +0.000 S 
ATOM      4  O   UNL     1       6.712   6.574  16.349  0.00  0.00    +0.000 OA
ATOM      5  O   UNL     1       7.867   4.400  16.902  0.00  0.00    +0.000 OA
BRANCH   3   6
ATOM      6  C   UNL     1       6.827   4.722  14.512  0.00  0.00    +0.000 A 
ATOM      7  C   UNL     1       7.722   5.360  13.648  0.00  0.00    +0.000 A 
ATOM      8  C   UNL     1       7.721   5.027  12.292  0.00  0.00    +0.000 A 
ATOM      9  C   UNL     1       6.833   4.062  11.807  0.00  0.00    +0.000 A 
ATOM     10  C   UNL     1       5.950   3.421  12.676  0.00  0.00    +0.000 A 
ATOM     11  C   UNL     1       5.945   3.748  14.032  0.00  0.00    +0.000 A 
ENDBRANCH   3   6
ENDBRANCH   1   3
BRANCH   1  12
ATOM     12  C   UNL     1       5.257   4.213  18.241  0.00  0.00    +0.000 C 
BRANCH  12  13
ATOM     13  C   UNL     1       4.794   5.445  19.030  0.00  0.00    +0.000 C 
BRANCH  13  14
ATOM     14  S   UNL     1       3.217   6.049  18.323  0.00  0.00    +0.000 S 
BRANCH  14  20
ATOM     15  C   UNL     1       1.786   4.643  20.924  0.00  0.00    +0.000 C 
ATOM     16  N   UNL     1       1.684   4.156  19.578  0.00  0.00    +0.000 N 
ATOM     17  N   UNL     1       0.970   3.050  19.308  0.00  0.00    +0.000 NA
ATOM     18  N   UNL     1       1.080   2.874  17.998  0.00  0.00    +0.000 NA
ATOM     19  N   UNL     1       1.861   3.857  17.431  0.00  0.00    +0.000 NA
ATOM     20  C   UNL     1       2.228   4.639  18.419  0.00  0.00    +0.000 A 
ENDBRANCH  14  20
ENDBRANCH  13  14
ENDBRANCH  12  13
ENDBRANCH   1  12
TORSDOF 6
ENDMDL
MODEL 2
REMARK VINA RESULT:      -6.8      1.756      2.094
REMARK  Name = 
REMARK  7 active torsions:
REMARK  status: ('A' for Active; 'I' for Inactive)
REMARK    1  A    between atoms: C_1  and  N_2
REMARK    2  A    between atoms: C_6  and  S_7
REMARK    3  A    between atoms: S_7  and  C_8
REMARK    4  A    between atoms: C_8  and  C_9
REMARK    5  A    between atoms: C_9  and  N_10
REMARK    6  A    between atoms: N_10  and  S_11
REMARK    7  A    between atoms: S_11  and  C_14
REMARK                            x       y       z     vdW  Elec       q    Type
REMARK                         _______ _______ _______ _____ _____    ______ ____
ROOT
ATOM      1  N   UNL     1       5.479   5.375  16.955  0.00  0.00    +0.000 NA
ATOM      2  H   UNL     1       5.245   6.321  17.264  0.00  0.00    +0.000 HD
ENDROOT
BRANCH   1   3
ATOM      3  S   UNL     1       7.078   5.375  16.390  0.00  0.00    +0.000 S 
ATOM      4  O   UNL     1       7.513   6.757  16.384  0.00  0.00    +0.000 OA
ATOM      5  O   UNL     1       7.791   4.366  17.141  0.00  0.00    +0.000 OA
BRANCH   3   6
ATOM      6  C   UNL     1       6.931   4.843  14.705  0.00  0.00    +0.000 A 
ATOM      7  C   UNL     1       7.775   5.378  13.727  0.00  0.00    +0.000 A 
ATOM      8  C   UNL     1       7.646   4.951  12.404  0.00  0.00    +0.000 A 
ATOM      9  C   UNL     1       6.685   3.995  12.065  0.00  0.00    +0.000 A 
ATOM     10  C   UNL     1       5.853   3.457  13.047  0.00  0.00    +0.000 A 
ATOM     11  C   UNL     1       5.974   3.878  14.371  0.00  0.00    +0.000 A 
ENDBRANCH   3   6
ENDBRANCH   1   3
BRANCH   1  12
ATOM     12  C   UNL     1       5.108   4.275  17.873  0.00  0.00    +0.000 C 
BRANCH  12  13
ATOM     13  C   UNL     1       3.745   3.674  17.506  0.00  0.00    +0.000 C 
BRANCH  13  14
ATOM     14  S   UNL     1       3.607   2.006  18.248  0.00  0.00    +0.000 S 
BRANCH  14  20
ATOM     15  C   UNL     1       0.490   2.620  19.084  0.00  0.00    +0.000 C 
ATOM     16  N   UNL     1       1.591   2.600  20.005  0.00  0.00    +0.000 N 
ATOM     17  N   UNL     1       1.388   2.845  21.311  0.00  0.00    +0.000 NA
ATOM     18  N   UNL     1       2.586   2.754  21.874  0.00  0.00    +0.000 NA
ATOM     19  N   UNL     1       3.550   2.454  20.937  0.00  0.00    +0.000 NA
ATOM     20  C   UNL     1       2.921   2.364  19.789  0.00  0.00    +0.000 A 
ENDBRANCH  14  20
ENDBRANCH  13  14
ENDBRANCH  12  13
ENDBRANCH   1  12
TORSDOF 6
ENDMDL
MODEL 3
REMARK VINA RESULT:      -6.7      0.729      1.330
REMARK  Name = 
REMARK  7 active torsions:
REMARK  status: ('A' for Active; 'I' for Inactive)
REMARK    1  A    between atoms: C_1  and  N_2
REMARK    2  A    between atoms: C_6  and  S_7
REMARK    3  A    between atoms: S_7  and  C_8
REMARK    4  A    between atoms: C_8  and  C_9
REMARK    5  A    between atoms: C_9  and  N_10
REMARK    6  A    between atoms: N_10  and  S_11
REMARK    7  A    between atoms: S_11  and  C_14
REMARK                            x       y       z     vdW  Elec       q    Type
REMARK                         _______ _______ _______ _____ _____    ______ ____
ROOT
ATOM      1  N   UNL     1       5.487   4.650  17.040  0.00  0.00    +0.000 NA
ATOM      2  H   UNL     1       5.097   3.954  16.400  0.00  0.00    +0.000 HD
ENDROOT
BRANCH   1   3
ATOM      3  S   UNL     1       6.976   5.174  16.419  0.00  0.00    +0.000 S 
ATOM      4  O   UNL     1       6.975   6.620  16.513  0.00  0.00    +0.000 OA
ATOM      5  O   UNL     1       8.002   4.380  17.056  0.00  0.00    +0.000 OA
BRANCH   3   6
ATOM      6  C   UNL     1       6.893   4.740  14.702  0.00  0.00    +0.000 A 
ATOM      7  C   UNL     1       5.961   3.794  14.265  0.00  0.00    +0.000 A 
ATOM      8  C   UNL     1       5.907   3.461  12.910  0.00  0.00    +0.000 A 
ATOM      9  C   UNL     1       6.776   4.072  12.001  0.00  0.00    +0.000 A 
ATOM     10  C   UNL     1       7.697   5.024  12.442  0.00  0.00    +0.000 A 
ATOM     11  C   UNL     1       7.757   5.362  13.794  0.00  0.00    +0.000 A 
ENDBRANCH   3   6
ENDBRANCH   1   3
BRANCH   1  12
ATOM     12  C   UNL     1       4.560   5.708  17.502  0.00  0.00    +0.000 C 
BRANCH  12  13
ATOM     13  C   UNL     1       4.302   5.608  19.011  0.00  0.00    +0.000 C 
BRANCH  13  14
ATOM     14  S   UNL     1       2.529   5.925  19.337  0.00  0.00    +0.000 S 
BRANCH  14  20
ATOM     15  C   UNL     1       2.065   3.443  21.438  0.00  0.00    +0.000 C 
ATOM     16  N   UNL     1       1.701   3.413  20.049  0.00  0.00    +0.000 N 
ATOM     17  N   UNL     1       1.130   2.317  19.520  0.00  0.00    +0.000 NA
ATOM     18  N   UNL     1       0.925   2.612  18.243  0.00  0.00    +0.000 NA
ATOM     19  N   UNL     1       1.363   3.885  17.954  0.00  0.00    +0.000 NA
ATOM     20  C   UNL     1       1.841   4.366  19.077  0.00  0.00    +0.000 A 
ENDBRANCH  14  20
ENDBRANCH  13  14
ENDBRANCH  12  13
ENDBRANCH   1  12
TORSDOF 6
ENDMDL
MODEL 4
REMARK VINA RESULT:      -6.7      1.108      2.017
REMARK  Name = 
REMARK  7 active torsions:
REMARK  status: ('A' for Active; 'I' for Inactive)
REMARK    1  A    between atoms: C_1  and  N_2
REMARK    2  A    between atoms: C_6  and  S_7
REMARK    3  A    between atoms: S_7  and  C_8
REMARK    4  A    between atoms: C_8  and  C_9
REMARK    5  A    between atoms: C_9  and  N_10
REMARK    6  A    between atoms: N_10  and  S_11
REMARK    7  A    between atoms: S_11  and  C_14
REMARK                            x       y       z     vdW  Elec       q    Type
REMARK                         _______ _______ _______ _____ _____    ______ ____
ROOT
ATOM      1  N   UNL     1       5.412   5.247  16.918  0.00  0.00    +0.000 NA
ATOM      2  H   UNL     1       5.028   6.194  16.952  0.00  0.00    +0.000 HD
ENDROOT
BRANCH   1   3
ATOM      3  S   UNL     1       7.014   5.336  16.368  0.00  0.00    +0.000 S 
ATOM      4  O   UNL     1       7.375   6.739  16.374  0.00  0.00    +0.000 OA
ATOM      5  O   UNL     1       7.773   4.361  17.119  0.00  0.00    +0.000 OA
BRANCH   3   6
ATOM      6  C   UNL     1       6.910   4.809  14.678  0.00  0.00    +0.000 A 
ATOM      7  C   UNL     1       5.955   3.860  14.301  0.00  0.00    +0.000 A 
ATOM      8  C   UNL     1       5.884   3.453  12.967  0.00  0.00    +0.000 A 
ATOM      9  C   UNL     1       6.759   3.994  12.020  0.00  0.00    +0.000 A 
ATOM     10  C   UNL     1       7.703   4.948  12.401  0.00  0.00    +0.000 A 
ATOM     11  C   UNL     1       7.780   5.360  13.732  0.00  0.00    +0.000 A 
ENDBRANCH   3   6
ENDBRANCH   1   3
BRANCH   1  12
ATOM     12  C   UNL     1       5.174   4.400  18.109  0.00  0.00    +0.000 C 
BRANCH  12  13
ATOM     13  C   UNL     1       4.808   5.248  19.335  0.00  0.00    +0.000 C 
BRANCH  13  14
ATOM     14  S   UNL     1       3.010   5.588  19.311  0.00  0.00    +0.000 S 
BRANCH  14  20
ATOM     15  C   UNL     1       1.247   2.930  18.523  0.00  0.00    +0.000 C 
ATOM     16  N   UNL     1       1.676   3.257  19.854  0.00  0.00    +0.000 N 
ATOM     17  N   UNL     1       1.358   2.457  20.885  0.00  0.00    +0.000 NA
ATOM     18  N   UNL     1       1.893   3.034  21.953  0.00  0.00    +0.000 NA
ATOM     19  N   UNL     1       2.546   4.197  21.610  0.00  0.00    +0.000 NA
ATOM     20  C   UNL     1       2.401   4.322  20.312  0.00  0.00    +0.000 A 
ENDBRANCH  14  20
ENDBRANCH  13  14
ENDBRANCH  12  13
ENDBRANCH   1  12
TORSDOF 6
ENDMDL
MODEL 5
REMARK VINA RESULT:      -6.6      1.571      2.228
REMARK  Name = 
REMARK  7 active torsions:
REMARK  status: ('A' for Active; 'I' for Inactive)
REMARK    1  A    between atoms: C_1  and  N_2
REMARK    2  A    between atoms: C_6  and  S_7
REMARK    3  A    between atoms: S_7  and  C_8
REMARK    4  A    between atoms: C_8  and  C_9
REMARK    5  A    between atoms: C_9  and  N_10
REMARK    6  A    between atoms: N_10  and  S_11
REMARK    7  A    between atoms: S_11  and  C_14
REMARK                            x       y       z     vdW  Elec       q    Type
REMARK                         _______ _______ _______ _____ _____    ______ ____
ROOT
ATOM      1  N   UNL     1       5.257   5.760  16.739  0.00  0.00    +0.000 NA
ATOM      2  H   UNL     1       5.159   6.771  16.857  0.00  0.00    +0.000 HD
ENDROOT
BRANCH   1   3
ATOM      3  S   UNL     1       6.873   5.419  16.353  0.00  0.00    +0.000 S 
ATOM      4  O   UNL     1       7.574   6.687  16.353  0.00  0.00    +0.000 OA
ATOM      5  O   UNL     1       7.291   4.330  17.206  0.00  0.00    +0.000 OA
BRANCH   3   6
ATOM      6  C   UNL     1       6.793   4.841  14.678  0.00  0.00    +0.000 A 
ATOM      7  C   UNL     1       5.803   3.930  14.301  0.00  0.00    +0.000 A 
ATOM      8  C   UNL     1       5.752   3.482  12.979  0.00  0.00    +0.000 A 
ATOM      9  C   UNL     1       6.682   3.947  12.044  0.00  0.00    +0.000 A 
ATOM     10  C   UNL     1       7.661   4.866  12.424  0.00  0.00    +0.000 A 
ATOM     11  C   UNL     1       7.718   5.317  13.743  0.00  0.00    +0.000 A 
ENDBRANCH   3   6
ENDBRANCH   1   3
BRANCH   1  12
ATOM     12  C   UNL     1       4.642   4.915  17.788  0.00  0.00    +0.000 C 
BRANCH  12  13
ATOM     13  C   UNL     1       3.129   4.772  17.577  0.00  0.00    +0.000 C 
BRANCH  13  14
ATOM     14  S   UNL     1       2.660   3.015  17.789  0.00  0.00    +0.000 S 
BRANCH  14  20
ATOM     15  C   UNL     1       4.560   2.153  20.326  0.00  0.00    +0.000 C 
ATOM     16  N   UNL     1       3.191   2.573  20.440  0.00  0.00    +0.000 N 
ATOM     17  N   UNL     1       2.597   2.632  21.643  0.00  0.00    +0.000 NA
ATOM     18  N   UNL     1       1.360   3.046  21.403  0.00  0.00    +0.000 NA
ATOM     19  N   UNL     1       1.161   3.248  20.055  0.00  0.00    +0.000 NA
ATOM     20  C   UNL     1       2.299   2.950  19.474  0.00  0.00    +0.000 A 
ENDBRANCH  14  20
ENDBRANCH  13  14
ENDBRANCH  12  13
ENDBRANCH   1  12
TORSDOF 6
ENDMDL
MODEL 6
REMARK VINA RESULT:      -6.5      1.209      1.796
REMARK  Name = 
REMARK  7 active torsions:
REMARK  status: ('A' for Active; 'I' for Inactive)
REMARK    1  A    between atoms: C_1  and  N_2
REMARK    2  A    between atoms: C_6  and  S_7
REMARK    3  A    between atoms: S_7  and  C_8
REMARK    4  A    between atoms: C_8  and  C_9
REMARK    5  A    between atoms: C_9  and  N_10
REMARK    6  A    between atoms: N_10  and  S_11
REMARK    7  A    between atoms: S_11  and  C_14
REMARK                            x       y       z     vdW  Elec       q    Type
REMARK                         _______ _______ _______ _____ _____    ______ ____
ROOT
ATOM      1  N   UNL     1       6.019   4.065  16.999  0.00  0.00    +0.000 NA
ATOM      2  H   UNL     1       6.238   3.255  16.415  0.00  0.00    +0.000 HD
ENDROOT
BRANCH   1   3
ATOM      3  S   UNL     1       6.243   5.469  16.074  0.00  0.00    +0.000 S 
ATOM      4  O   UNL     1       4.976   6.173  16.080  0.00  0.00    +0.000 OA
ATOM      5  O   UNL     1       7.455   6.098  16.549  0.00  0.00    +0.000 OA
BRANCH   3   6
ATOM      6  C   UNL     1       6.516   4.855  14.434  0.00  0.00    +0.000 A 
ATOM      7  C   UNL     1       7.572   5.357  13.667  0.00  0.00    +0.000 A 
ATOM      8  C   UNL     1       7.775   4.865  12.376  0.00  0.00    +0.000 A 
ATOM      9  C   UNL     1       6.931   3.876  11.860  0.00  0.00    +0.000 A 
ATOM     10  C   UNL     1       5.887   3.371  12.635  0.00  0.00    +0.000 A 
ATOM     11  C   UNL     1       5.677   3.858  13.925  0.00  0.00    +0.000 A 
ENDBRANCH   3   6
ENDBRANCH   1   3
BRANCH   1  12
ATOM     12  C   UNL     1       4.765   3.989  17.782  0.00  0.00    +0.000 C 
BRANCH  12  13
ATOM     13  C   UNL     1       4.868   4.791  19.085  0.00  0.00    +0.000 C 
BRANCH  13  14
ATOM     14  S   UNL     1       3.245   5.559  19.444  0.00  0.00    +0.000 S 
BRANCH  14  20
ATOM     15  C   UNL     1       1.241   3.124  18.527  0.00  0.00    +0.000 C 
ATOM     16  N   UNL     1       1.662   3.366  19.878  0.00  0.00    +0.000 N 
ATOM     17  N   UNL     1       1.234   2.574  20.876  0.00  0.00    +0.000 NA
ATOM     18  N   UNL     1       1.794   3.061  21.975  0.00  0.00    +0.000 NA
ATOM     19  N   UNL     1       2.574   4.159  21.686  0.00  0.00    +0.000 NA
ATOM     20  C   UNL     1       2.481   4.336  20.389  0.00  0.00    +0.000 A 
ENDBRANCH  14  20
ENDBRANCH  13  14
ENDBRANCH  12  13
ENDBRANCH   1  12
TORSDOF 6
ENDMDL
MODEL 7
REMARK VINA RESULT:      -6.5      1.414      1.448
REMARK  Name = 
REMARK  7 active torsions:
REMARK  status: ('A' for Active; 'I' for Inactive)
REMARK    1  A    between atoms: C_1  and  N_2
REMARK    2  A    between atoms: C_6  and  S_7
REMARK    3  A    between atoms: S_7  and  C_8
REMARK    4  A    between atoms: C_8  and  C_9
REMARK    5  A    between atoms: C_9  and  N_10
REMARK    6  A    between atoms: N_10  and  S_11
REMARK    7  A    between atoms: S_11  and  C_14
REMARK                            x       y       z     vdW  Elec       q    Type
REMARK                         _______ _______ _______ _____ _____    ______ ____
ROOT
ATOM      1  N   UNL     1       5.661   3.675  16.721  0.00  0.00    +0.000 NA
ATOM      2  H   UNL     1       5.498   3.019  15.954  0.00  0.00    +0.000 HD
ENDROOT
BRANCH   1   3
ATOM      3  S   UNL     1       6.340   5.092  16.080  0.00  0.00    +0.000 S 
ATOM      4  O   UNL     1       5.310   6.109  16.145  0.00  0.00    +0.000 OA
ATOM      5  O   UNL     1       7.620   5.276  16.725  0.00  0.00    +0.000 OA
BRANCH   3   6
ATOM      6  C   UNL     1       6.606   4.696  14.372  0.00  0.00    +0.000 A 
ATOM      7  C   UNL     1       7.629   5.329  13.660  0.00  0.00    +0.000 A 
ATOM      8  C   UNL     1       7.827   5.008  12.315  0.00  0.00    +0.000 A 
ATOM      9  C   UNL     1       7.011   4.060  11.692  0.00  0.00    +0.000 A 
ATOM     10  C   UNL     1       5.999   3.423  12.411  0.00  0.00    +0.000 A 
ATOM     11  C   UNL     1       5.794   3.738  13.755  0.00  0.00    +0.000 A 
ENDBRANCH   3   6
ENDBRANCH   1   3
BRANCH   1  12
ATOM     12  C   UNL     1       4.545   3.858  17.676  0.00  0.00    +0.000 C 
BRANCH  12  13
ATOM     13  C   UNL     1       5.041   3.848  19.127  0.00  0.00    +0.000 C 
BRANCH  13  14
ATOM     14  S   UNL     1       4.329   2.401  19.993  0.00  0.00    +0.000 S 
BRANCH  14  20
ATOM     15  C   UNL     1       2.140   4.552  21.166  0.00  0.00    +0.000 C 
ATOM     16  N   UNL     1       1.841   3.528  20.205  0.00  0.00    +0.000 N 
ATOM     17  N   UNL     1       0.594   3.393  19.722  0.00  0.00    +0.000 NA
ATOM     18  N   UNL     1       0.655   2.374  18.876  0.00  0.00    +0.000 NA
ATOM     19  N   UNL     1       1.930   1.856  18.818  0.00  0.00    +0.000 NA
ATOM     20  C   UNL     1       2.649   2.577  19.645  0.00  0.00    +0.000 A 
ENDBRANCH  14  20
ENDBRANCH  13  14
ENDBRANCH  12  13
ENDBRANCH   1  12
TORSDOF 6
ENDMDL
MODEL 8
REMARK VINA RESULT:      -6.5      1.728      2.354
REMARK  Name = 
REMARK  7 active torsions:
REMARK  status: ('A' for Active; 'I' for Inactive)
REMARK    1  A    between atoms: C_1  and  N_2
REMARK    2  A    between atoms: C_6  and  S_7
REMARK    3  A    between atoms: S_7  and  C_8
REMARK    4  A    between atoms: C_8  and  C_9
REMARK    5  A    between atoms: C_9  and  N_10
REMARK    6  A    between atoms: N_10  and  S_11
REMARK    7  A    between atoms: S_11  and  C_14
REMARK                            x       y       z     vdW  Elec       q    Type
REMARK                         _______ _______ _______ _____ _____    ______ ____
ROOT
ATOM      1  N   UNL     1       5.468   6.043  17.186  0.00  0.00    +0.000 NA
ATOM      2  H   UNL     1       5.408   7.062  17.242  0.00  0.00    +0.000 HD
ENDROOT
BRANCH   1   3
ATOM      3  S   UNL     1       7.021   5.624  16.648  0.00  0.00    +0.000 S 
ATOM      4  O   UNL     1       7.750   6.866  16.488  0.00  0.00    +0.000 OA
ATOM      5  O   UNL     1       7.502   4.577  17.520  0.00  0.00    +0.000 OA
BRANCH   3   6
ATOM      6  C   UNL     1       6.739   4.947  15.034  0.00  0.00    +0.000 A 
ATOM      7  C   UNL     1       5.644   4.108  14.810  0.00  0.00    +0.000 A 
ATOM      8  C   UNL     1       5.435   3.581  13.534  0.00  0.00    +0.000 A 
ATOM      9  C   UNL     1       6.312   3.895  12.492  0.00  0.00    +0.000 A 
ATOM     10  C   UNL     1       7.397   4.743  12.719  0.00  0.00    +0.000 A 
ATOM     11  C   UNL     1       7.613   5.273  13.990  0.00  0.00    +0.000 A 
ENDBRANCH   3   6
ENDBRANCH   1   3
BRANCH   1  12
ATOM     12  C   UNL     1       4.955   5.292  18.355  0.00  0.00    +0.000 C 
BRANCH  12  13
ATOM     13  C   UNL     1       3.658   4.545  18.016  0.00  0.00    +0.000 C 
BRANCH  13  14
ATOM     14  S   UNL     1       3.845   2.783  18.476  0.00  0.00    +0.000 S 
BRANCH  14  20
ATOM     15  C   UNL     1       0.616   2.637  19.058  0.00  0.00    +0.000 C 
ATOM     16  N   UNL     1       1.626   2.657  20.078  0.00  0.00    +0.000 N 
ATOM     17  N   UNL     1       1.282   2.618  21.376  0.00  0.00    +0.000 NA
ATOM     18  N   UNL     1       2.428   2.652  22.043  0.00  0.00    +0.000 NA
ATOM     19  N   UNL     1       3.499   2.715  21.180  0.00  0.00    +0.000 NA
ATOM     20  C   UNL     1       2.989   2.719  19.971  0.00  0.00    +0.000 A 
ENDBRANCH  14  20
ENDBRANCH  13  14
ENDBRANCH  12  13
ENDBRANCH   1  12
TORSDOF 6
ENDMDL
MODEL 9
REMARK VINA RESULT:      -6.4      3.236      6.419
REMARK  Name = 
REMARK  7 active torsions:
REMARK  status: ('A' for Active; 'I' for Inactive)
REMARK    1  A    between atoms: C_1  and  N_2
REMARK    2  A    between atoms: C_6  and  S_7
REMARK    3  A    between atoms: S_7  and  C_8
REMARK    4  A    between atoms: C_8  and  C_9
REMARK    5  A    between atoms: C_9  and  N_10
REMARK    6  A    between atoms: N_10  and  S_11
REMARK    7  A    between atoms: S_11  and  C_14
REMARK                            x       y       z     vdW  Elec       q    Type
REMARK                         _______ _______ _______ _____ _____    ______ ____
ROOT
ATOM      1  N   UNL     1       4.665   3.073  17.526  0.00  0.00    +0.000 NA
ATOM      2  H   UNL     1       5.272   3.608  18.152  0.00  0.00    +0.000 HD
ENDROOT
BRANCH   1   3
ATOM      3  S   UNL     1       3.140   2.925  18.256  0.00  0.00    +0.000 S 
ATOM      4  O   UNL     1       2.204   2.617  17.194  0.00  0.00    +0.000 OA
ATOM      5  O   UNL     1       3.300   2.049  19.394  0.00  0.00    +0.000 OA
BRANCH   3   6
ATOM      6  C   UNL     1       2.788   4.564  18.833  0.00  0.00    +0.000 A 
ATOM      7  C   UNL     1       3.175   5.670  18.072  0.00  0.00    +0.000 A 
ATOM      8  C   UNL     1       2.893   6.955  18.539  0.00  0.00    +0.000 A 
ATOM      9  C   UNL     1       2.225   7.130  19.755  0.00  0.00    +0.000 A 
ATOM     10  C   UNL     1       1.831   6.021  20.505  0.00  0.00    +0.000 A 
ATOM     11  C   UNL     1       2.110   4.734  20.045  0.00  0.00    +0.000 A 
ENDBRANCH   3   6
ENDBRANCH   1   3
BRANCH   1  12
ATOM     12  C   UNL     1       4.673   3.477  16.102  0.00  0.00    +0.000 C 
BRANCH  12  13
ATOM     13  C   UNL     1       6.095   3.790  15.617  0.00  0.00    +0.000 C 
BRANCH  13  14
ATOM     14  S   UNL     1       6.427   5.575  15.856  0.00  0.00    +0.000 S 
BRANCH  14  20
ATOM     15  C   UNL     1       7.681   8.075  17.579  0.00  0.00    +0.000 C 
ATOM     16  N   UNL     1       7.660   6.709  18.023  0.00  0.00    +0.000 N 
ATOM     17  N   UNL     1       8.179   6.376  19.217  0.00  0.00    +0.000 NA
ATOM     18  N   UNL     1       8.006   5.065  19.319  0.00  0.00    +0.000 NA
ATOM     19  N   UNL     1       7.382   4.561  18.200  0.00  0.00    +0.000 NA
ATOM     20  C   UNL     1       7.178   5.587  17.408  0.00  0.00    +0.000 A 
ENDBRANCH  14  20
ENDBRANCH  13  14
ENDBRANCH  12  13
ENDBRANCH   1  12
TORSDOF 6
ENDMDL
