MODEL 1
REMARK VINA RESULT:      -7.6      0.000      0.000
REMARK  Name = 
REMARK  10 active torsions:
REMARK  status: ('A' for Active; 'I' for Inactive)
REMARK    1  A    between atoms: C_1  and  O_2
REMARK    2  A    between atoms: O_2  and  C_3
REMARK    3  A    between atoms: C_7  and  C_8
REMARK    4  A    between atoms: C_8  and  N_9
REMARK    5  A    between atoms: N_9  and  C_10
REMARK    6  A    between atoms: C_10  and  C_11
REMARK    7  A    between atoms: C_13  and  N_14
REMARK    8  A    between atoms: C_22  and  O_23
REMARK    9  A    between atoms: C_24  and  O_25
REMARK   10  A    between atoms: C_28  and  O_29
REMARK                            x       y       z     vdW  Elec       q    Type
REMARK                         _______ _______ _______ _____ _____    ______ ____
ROOT
ATOM      1  C   UNL     1       1.578   3.715  19.342  0.00  0.00    +0.000 C 
ATOM      2  O   UNL     1       2.301   4.266  18.218  0.00  0.00    +0.000 OA
ATOM      3  C   UNL     1       3.484   3.468  17.963  0.00  0.00    +0.000 C 
ATOM      4  C   UNL     1       3.453   2.279  18.951  0.00  0.00    +0.000 C 
ATOM      5  C   UNL     1       2.013   2.263  19.434  0.00  0.00    +0.000 C 
ENDROOT
BRANCH   3   6
ATOM      6  N   UNL     1       4.703   4.291  18.048  0.00  0.00    +0.000 N 
ATOM      7  C   UNL     1       5.197   4.749  19.254  0.00  0.00    +0.000 A 
ATOM      8  C   UNL     1       6.284   5.516  19.342  0.00  0.00    +0.000 A 
ATOM      9  C   UNL     1       6.986   5.894  18.108  0.00  0.00    +0.000 A 
ATOM     10  O   UNL     1       7.977   6.612  18.136  0.00  0.00    +0.000 OA
ATOM     11  N   UNL     1       6.448   5.407  16.956  0.00  0.00    +0.000 N 
ATOM     12  C   UNL     1       5.293   4.677  16.848  0.00  0.00    +0.000 A 
ATOM     13  O   UNL     1       4.841   4.425  15.737  0.00  0.00    +0.000 OA
ATOM     14  H   UNL     1       6.882   5.687  16.091  0.00  0.00    +0.000 HD
ENDBRANCH   3   6
BRANCH   4  15
ATOM     15  O   UNL     1       3.787   1.025  18.358  0.00  0.00    +0.000 OA
ATOM     16  H   UNL     1       4.764   0.994  18.292  0.00  0.00    +0.000 HD
ENDBRANCH   4  15
BRANCH   5  17
ATOM     17  O   UNL     1       1.232   1.462  18.517  0.00  0.00    +0.000 OA
ATOM     18  H   UNL     1       0.495   2.003  18.179  0.00  0.00    +0.000 HD
ENDBRANCH   5  17
BRANCH   1  19
ATOM     19  C   UNL     1       1.841   4.574  20.597  0.00  0.00    +0.000 C 
BRANCH  19  20
ATOM     20  N   UNL     1       1.066   5.839  20.601  0.00  0.00    +0.000 NA
ATOM     21  H   UNL     1       0.283   5.712  21.238  0.00  0.00    +0.000 HD
BRANCH  20  22
ATOM     22  C   UNL     1       1.841   6.978  21.099  0.00  0.00    +0.000 C 
BRANCH  22  27
ATOM     23  C   UNL     1       0.405  10.605  19.152  0.00  0.00    +0.000 A 
ATOM     24  C   UNL     1       0.056  10.322  20.470  0.00  0.00    +0.000 A 
ATOM     25  C   UNL     1       0.569   9.187  21.120  0.00  0.00    +0.000 A 
ATOM     26 CL   UNL     1       0.102   8.963  22.773  0.00  0.00    +0.000 Cl
ATOM     27  C   UNL     1       1.419   8.284  20.458  0.00  0.00    +0.000 A 
ATOM     28  C   UNL     1       1.830   8.625  19.154  0.00  0.00    +0.000 A 
ATOM     29 CL   UNL     1       2.972   7.647  18.281  0.00  0.00    +0.000 Cl
ATOM     30  C   UNL     1       1.328   9.771  18.513  0.00  0.00    +0.000 A 
BRANCH  23  32
ATOM     31  C   UNL     1      -0.598  12.774  19.126  0.00  0.00    +0.000 C 
ATOM     32  O   UNL     1      -0.073  11.658  18.419  0.00  0.00    +0.000 OA
ENDBRANCH  23  32
BRANCH  30  33
ATOM     33  O   UNL     1       1.731  10.100  17.241  0.00  0.00    +0.000 OA
ATOM     34  H   UNL     1       1.349   9.448  16.626  0.00  0.00    +0.000 HD
ENDBRANCH  30  33
ENDBRANCH  22  27
ENDBRANCH  20  22
ENDBRANCH  19  20
ENDBRANCH   1  19
TORSDOF 9
ENDMDL
MODEL 2
REMARK VINA RESULT:      -7.5      2.129      4.404
REMARK  Name = 
REMARK  10 active torsions:
REMARK  status: ('A' for Active; 'I' for Inactive)
REMARK    1  A    between atoms: C_1  and  O_2
REMARK    2  A    between atoms: O_2  and  C_3
REMARK    3  A    between atoms: C_7  and  C_8
REMARK    4  A    between atoms: C_8  and  N_9
REMARK    5  A    between atoms: N_9  and  C_10
REMARK    6  A    between atoms: C_10  and  C_11
REMARK    7  A    between atoms: C_13  and  N_14
REMARK    8  A    between atoms: C_22  and  O_23
REMARK    9  A    between atoms: C_24  and  O_25
REMARK   10  A    between atoms: C_28  and  O_29
REMARK                            x       y       z     vdW  Elec       q    Type
REMARK                         _______ _______ _______ _____ _____    ______ ____
ROOT
ATOM      1  C   UNL     1       6.160   5.959  17.377  0.00  0.00    +0.000 C 
ATOM      2  O   UNL     1       5.789   4.957  18.351  0.00  0.00    +0.000 OA
ATOM      3  C   UNL     1       5.358   3.753  17.668  0.00  0.00    +0.000 C 
ATOM      4  C   UNL     1       5.554   3.992  16.154  0.00  0.00    +0.000 C 
ATOM      5  C   UNL     1       6.485   5.192  16.107  0.00  0.00    +0.000 C 
ENDROOT
BRANCH   3   6
ATOM      6  N   UNL     1       3.980   3.396  18.049  0.00  0.00    +0.000 N 
ATOM      7  C   UNL     1       2.882   3.858  17.349  0.00  0.00    +0.000 A 
ATOM      8  C   UNL     1       1.630   3.564  17.699  0.00  0.00    +0.000 A 
ATOM      9  C   UNL     1       1.404   2.716  18.878  0.00  0.00    +0.000 A 
ATOM     10  O   UNL     1       0.272   2.434  19.249  0.00  0.00    +0.000 OA
ATOM     11  N   UNL     1       2.529   2.294  19.518  0.00  0.00    +0.000 N 
ATOM     12  C   UNL     1       3.816   2.647  19.210  0.00  0.00    +0.000 A 
ATOM     13  O   UNL     1       4.728   2.313  19.958  0.00  0.00    +0.000 OA
ATOM     14  H   UNL     1       2.402   1.749  20.356  0.00  0.00    +0.000 HD
ENDBRANCH   3   6
BRANCH   4  15
ATOM     15  O   UNL     1       6.140   2.889  15.465  0.00  0.00    +0.000 OA
ATOM     16  H   UNL     1       6.789   3.261  14.832  0.00  0.00    +0.000 HD
ENDBRANCH   4  15
BRANCH   5  17
ATOM     17  O   UNL     1       7.849   4.715  16.162  0.00  0.00    +0.000 OA
ATOM     18  H   UNL     1       7.844   3.743  16.091  0.00  0.00    +0.000 HD
ENDBRANCH   5  17
BRANCH   1  19
ATOM     19  C   UNL     1       5.033   7.006  17.257  0.00  0.00    +0.000 C 
BRANCH  19  20
ATOM     20  N   UNL     1       4.121   7.007  18.427  0.00  0.00    +0.000 NA
ATOM     21  H   UNL     1       4.419   7.761  19.042  0.00  0.00    +0.000 HD
BRANCH  20  22
ATOM     22  C   UNL     1       2.729   7.279  18.063  0.00  0.00    +0.000 C 
BRANCH  22  27
ATOM     23  C   UNL     1       0.298   9.157  21.157  0.00  0.00    +0.000 A 
ATOM     24  C   UNL     1       0.752   7.849  21.308  0.00  0.00    +0.000 A 
ATOM     25  C   UNL     1       1.588   7.264  20.342  0.00  0.00    +0.000 A 
ATOM     26 CL   UNL     1       2.129   5.649  20.661  0.00  0.00    +0.000 Cl
ATOM     27  C   UNL     1       1.965   7.959  19.180  0.00  0.00    +0.000 A 
ATOM     28  C   UNL     1       1.568   9.308  19.080  0.00  0.00    +0.000 A 
ATOM     29 CL   UNL     1       2.075  10.302  17.747  0.00  0.00    +0.000 Cl
ATOM     30  C   UNL     1       0.746   9.895  20.057  0.00  0.00    +0.000 A 
BRANCH  23  32
ATOM     31  C   UNL     1      -0.239   9.773  23.402  0.00  0.00    +0.000 C 
ATOM     32  O   UNL     1      -0.552   9.800  22.016  0.00  0.00    +0.000 OA
ENDBRANCH  23  32
BRANCH  30  33
ATOM     33  O   UNL     1       0.360  11.210  19.954  0.00  0.00    +0.000 OA
ATOM     34  H   UNL     1       0.157  11.393  19.019  0.00  0.00    +0.000 HD
ENDBRANCH  30  33
ENDBRANCH  22  27
ENDBRANCH  20  22
ENDBRANCH  19  20
ENDBRANCH   1  19
TORSDOF 9
ENDMDL
MODEL 3
REMARK VINA RESULT:      -7.5      1.323      1.623
REMARK  Name = 
REMARK  10 active torsions:
REMARK  status: ('A' for Active; 'I' for Inactive)
REMARK    1  A    between atoms: C_1  and  O_2
REMARK    2  A    between atoms: O_2  and  C_3
REMARK    3  A    between atoms: C_7  and  C_8
REMARK    4  A    between atoms: C_8  and  N_9
REMARK    5  A    between atoms: N_9  and  C_10
REMARK    6  A    between atoms: C_10  and  C_11
REMARK    7  A    between atoms: C_13  and  N_14
REMARK    8  A    between atoms: C_22  and  O_23
REMARK    9  A    between atoms: C_24  and  O_25
REMARK   10  A    between atoms: C_28  and  O_29
REMARK                            x       y       z     vdW  Elec       q    Type
REMARK                         _______ _______ _______ _____ _____    ______ ____
ROOT
ATOM      1  C   UNL     1       1.311   4.487  19.903  0.00  0.00    +0.000 C 
ATOM      2  O   UNL     1       1.858   4.755  18.592  0.00  0.00    +0.000 OA
ATOM      3  C   UNL     1       2.626   3.611  18.142  0.00  0.00    +0.000 C 
ATOM      4  C   UNL     1       2.479   2.512  19.219  0.00  0.00    +0.000 C 
ATOM      5  C   UNL     1       1.279   2.974  20.029  0.00  0.00    +0.000 C 
ENDROOT
BRANCH   3   6
ATOM      6  N   UNL     1       4.019   3.992  17.856  0.00  0.00    +0.000 N 
ATOM      7  C   UNL     1       4.388   4.589  16.665  0.00  0.00    +0.000 A 
ATOM      8  C   UNL     1       5.650   4.914  16.384  0.00  0.00    +0.000 A 
ATOM      9  C   UNL     1       6.695   4.625  17.376  0.00  0.00    +0.000 A 
ATOM     10  O   UNL     1       7.870   4.888  17.155  0.00  0.00    +0.000 OA
ATOM     11  N   UNL     1       6.262   4.039  18.526  0.00  0.00    +0.000 N 
ATOM     12  C   UNL     1       4.981   3.637  18.798  0.00  0.00    +0.000 A 
ATOM     13  O   UNL     1       4.755   2.990  19.813  0.00  0.00    +0.000 OA
ATOM     14  H   UNL     1       6.963   3.789  19.205  0.00  0.00    +0.000 HD
ENDBRANCH   3   6
BRANCH   4  15
ATOM     15  O   UNL     1       2.240   1.210  18.687  0.00  0.00    +0.000 OA
ATOM     16  H   UNL     1       2.701   0.575  19.275  0.00  0.00    +0.000 HD
ENDBRANCH   4  15
BRANCH   5  17
ATOM     17  O   UNL     1       0.080   2.459  19.405  0.00  0.00    +0.000 OA
ATOM     18  H   UNL     1       0.252   1.549  19.102  0.00  0.00    +0.000 HD
ENDBRANCH   5  17
BRANCH   1  19
ATOM     19  C   UNL     1       2.142   5.230  20.971  0.00  0.00    +0.000 C 
BRANCH  19  20
ATOM     20  N   UNL     1       2.264   6.683  20.697  0.00  0.00    +0.000 NA
ATOM     21  H   UNL     1       2.604   6.782  19.743  0.00  0.00    +0.000 HD
BRANCH  20  22
ATOM     22  C   UNL     1       0.981   7.384  20.767  0.00  0.00    +0.000 C 
BRANCH  22  27
ATOM     23  C   UNL     1       1.067  11.559  19.512  0.00  0.00    +0.000 A 
ATOM     24  C   UNL     1       0.667  11.214  20.801  0.00  0.00    +0.000 A 
ATOM     25  C   UNL     1       0.700   9.876  21.227  0.00  0.00    +0.000 A 
ATOM     26 CL   UNL     1       0.226   9.574  22.866  0.00  0.00    +0.000 Cl
ATOM     27  C   UNL     1       1.100   8.840  20.365  0.00  0.00    +0.000 A 
ATOM     28  C   UNL     1       1.580   9.212  19.093  0.00  0.00    +0.000 A 
ATOM     29 CL   UNL     1       2.213   8.030  17.986  0.00  0.00    +0.000 Cl
ATOM     30  C   UNL     1       1.562  10.553  18.676  0.00  0.00    +0.000 A 
BRANCH  23  32
ATOM     31  C   UNL     1      -0.241  13.379  18.683  0.00  0.00    +0.000 C 
ATOM     32  O   UNL     1       1.031  12.824  18.988  0.00  0.00    +0.000 OA
ENDBRANCH  23  32
BRANCH  30  33
ATOM     33  O   UNL     1       2.030  10.910  17.434  0.00  0.00    +0.000 OA
ATOM     34  H   UNL     1       2.678  11.628  17.550  0.00  0.00    +0.000 HD
ENDBRANCH  30  33
ENDBRANCH  22  27
ENDBRANCH  20  22
ENDBRANCH  19  20
ENDBRANCH   1  19
TORSDOF 9
ENDMDL
MODEL 4
REMARK VINA RESULT:      -7.4      1.595      2.617
REMARK  Name = 
REMARK  10 active torsions:
REMARK  status: ('A' for Active; 'I' for Inactive)
REMARK    1  A    between atoms: C_1  and  O_2
REMARK    2  A    between atoms: O_2  and  C_3
REMARK    3  A    between atoms: C_7  and  C_8
REMARK    4  A    between atoms: C_8  and  N_9
REMARK    5  A    between atoms: N_9  and  C_10
REMARK    6  A    between atoms: C_10  and  C_11
REMARK    7  A    between atoms: C_13  and  N_14
REMARK    8  A    between atoms: C_22  and  O_23
REMARK    9  A    between atoms: C_24  and  O_25
REMARK   10  A    between atoms: C_28  and  O_29
REMARK                            x       y       z     vdW  Elec       q    Type
REMARK                         _______ _______ _______ _____ _____    ______ ____
ROOT
ATOM      1  C   UNL     1       1.518   4.711  19.723  0.00  0.00    +0.000 C 
ATOM      2  O   UNL     1       2.032   4.867  18.381  0.00  0.00    +0.000 OA
ATOM      3  C   UNL     1       2.721   3.656  17.981  0.00  0.00    +0.000 C 
ATOM      4  C   UNL     1       2.552   2.635  19.129  0.00  0.00    +0.000 C 
ATOM      5  C   UNL     1       1.408   3.213  19.945  0.00  0.00    +0.000 C 
ENDROOT
BRANCH   3   6
ATOM      6  N   UNL     1       4.122   3.939  17.628  0.00  0.00    +0.000 N 
ATOM      7  C   UNL     1       4.493   4.346  16.360  0.00  0.00    +0.000 A 
ATOM      8  C   UNL     1       5.760   4.580  16.021  0.00  0.00    +0.000 A 
ATOM      9  C   UNL     1       6.810   4.397  17.033  0.00  0.00    +0.000 A 
ATOM     10  O   UNL     1       7.990   4.581  16.763  0.00  0.00    +0.000 OA
ATOM     11  N   UNL     1       6.376   3.998  18.260  0.00  0.00    +0.000 N 
ATOM     12  C   UNL     1       5.086   3.687  18.600  0.00  0.00    +0.000 A 
ATOM     13  O   UNL     1       4.853   3.200  19.700  0.00  0.00    +0.000 OA
ATOM     14  H   UNL     1       7.078   3.821  18.960  0.00  0.00    +0.000 HD
ENDBRANCH   3   6
BRANCH   4  15
ATOM     15  O   UNL     1       2.225   1.318  18.688  0.00  0.00    +0.000 OA
ATOM     16  H   UNL     1       2.496   0.704  19.403  0.00  0.00    +0.000 HD
ENDBRANCH   4  15
BRANCH   5  17
ATOM     17  O   UNL     1       0.162   2.729  19.393  0.00  0.00    +0.000 OA
ATOM     18  H   UNL     1       0.221   2.751  18.420  0.00  0.00    +0.000 HD
ENDBRANCH   5  17
BRANCH   1  19
ATOM     19  C   UNL     1       2.423   5.470  20.716  0.00  0.00    +0.000 C 
BRANCH  19  20
ATOM     20  N   UNL     1       2.371   6.941  20.532  0.00  0.00    +0.000 NA
ATOM     21  H   UNL     1       2.576   7.131  19.554  0.00  0.00    +0.000 HD
BRANCH  20  22
ATOM     22  C   UNL     1       1.046   7.501  20.807  0.00  0.00    +0.000 C 
BRANCH  22  27
ATOM     23  C   UNL     1       1.040  11.743  19.796  0.00  0.00    +0.000 A 
ATOM     24  C   UNL     1       1.336  10.784  18.830  0.00  0.00    +0.000 A 
ATOM     25  C   UNL     1       1.275   9.414  19.138  0.00  0.00    +0.000 A 
ATOM     26 CL   UNL     1       1.617   8.314  17.844  0.00  0.00    +0.000 Cl
ATOM     27  C   UNL     1       0.952   8.966  20.430  0.00  0.00    +0.000 A 
ATOM     28  C   UNL     1       0.575   9.942  21.374  0.00  0.00    +0.000 A 
ATOM     29 CL   UNL     1       0.040   9.498  22.968  0.00  0.00    +0.000 Cl
ATOM     30  C   UNL     1       0.619  11.310  21.058  0.00  0.00    +0.000 A 
BRANCH  23  32
ATOM     31  C   UNL     1       0.272  13.676  18.619  0.00  0.00    +0.000 C 
ATOM     32  O   UNL     1       1.111  13.097  19.609  0.00  0.00    +0.000 OA
ENDBRANCH  23  32
BRANCH  30  33
ATOM     33  O   UNL     1       0.251  12.259  21.982  0.00  0.00    +0.000 OA
ATOM     34  H   UNL     1      -0.536  12.721  21.644  0.00  0.00    +0.000 HD
ENDBRANCH  30  33
ENDBRANCH  22  27
ENDBRANCH  20  22
ENDBRANCH  19  20
ENDBRANCH   1  19
TORSDOF 9
ENDMDL
MODEL 5
REMARK VINA RESULT:      -7.4      1.551      2.403
REMARK  Name = 
REMARK  10 active torsions:
REMARK  status: ('A' for Active; 'I' for Inactive)
REMARK    1  A    between atoms: C_1  and  O_2
REMARK    2  A    between atoms: O_2  and  C_3
REMARK    3  A    between atoms: C_7  and  C_8
REMARK    4  A    between atoms: C_8  and  N_9
REMARK    5  A    between atoms: N_9  and  C_10
REMARK    6  A    between atoms: C_10  and  C_11
REMARK    7  A    between atoms: C_13  and  N_14
REMARK    8  A    between atoms: C_22  and  O_23
REMARK    9  A    between atoms: C_24  and  O_25
REMARK   10  A    between atoms: C_28  and  O_29
REMARK                            x       y       z     vdW  Elec       q    Type
REMARK                         _______ _______ _______ _____ _____    ______ ____
ROOT
ATOM      1  C   UNL     1       2.081   4.721  18.963  0.00  0.00    +0.000 C 
ATOM      2  O   UNL     1       2.856   5.393  17.945  0.00  0.00    +0.000 OA
ATOM      3  C   UNL     1       4.025   4.598  17.620  0.00  0.00    +0.000 C 
ATOM      4  C   UNL     1       3.927   3.290  18.438  0.00  0.00    +0.000 C 
ATOM      5  C   UNL     1       2.472   3.256  18.871  0.00  0.00    +0.000 C 
ENDROOT
BRANCH   3   6
ATOM      6  N   UNL     1       5.262   5.363  17.850  0.00  0.00    +0.000 N 
ATOM      7  C   UNL     1       6.061   5.151  18.958  0.00  0.00    +0.000 A 
ATOM      8  C   UNL     1       7.169   5.854  19.191  0.00  0.00    +0.000 A 
ATOM      9  C   UNL     1       7.560   6.900  18.235  0.00  0.00    +0.000 A 
ATOM     10  O   UNL     1       8.558   7.584  18.416  0.00  0.00    +0.000 OA
ATOM     11  N   UNL     1       6.730   7.054  17.166  0.00  0.00    +0.000 N 
ATOM     12  C   UNL     1       5.553   6.387  16.953  0.00  0.00    +0.000 A 
ATOM     13  O   UNL     1       4.829   6.724  16.024  0.00  0.00    +0.000 OA
ATOM     14  H   UNL     1       6.949   7.794  16.519  0.00  0.00    +0.000 HD
ENDBRANCH   3   6
BRANCH   4  15
ATOM     15  O   UNL     1       4.245   2.117  17.692  0.00  0.00    +0.000 OA
ATOM     16  H   UNL     1       4.562   1.449  18.335  0.00  0.00    +0.000 HD
ENDBRANCH   4  15
BRANCH   5  17
ATOM     17  O   UNL     1       1.700   2.610  17.833  0.00  0.00    +0.000 OA
ATOM     18  H   UNL     1       1.032   3.239  17.502  0.00  0.00    +0.000 HD
ENDBRANCH   5  17
BRANCH   1  19
ATOM     19  C   UNL     1       2.326   5.396  20.329  0.00  0.00    +0.000 C 
BRANCH  19  20
ATOM     20  N   UNL     1       2.365   6.876  20.241  0.00  0.00    +0.000 NA
ATOM     21  H   UNL     1       2.470   7.117  19.258  0.00  0.00    +0.000 HD
BRANCH  20  22
ATOM     22  C   UNL     1       1.127   7.505  20.705  0.00  0.00    +0.000 C 
BRANCH  22  27
ATOM     23  C   UNL     1       1.184  11.748  19.700  0.00  0.00    +0.000 A 
ATOM     24  C   UNL     1       1.434  10.784  18.725  0.00  0.00    +0.000 A 
ATOM     25  C   UNL     1       1.353   9.416  19.032  0.00  0.00    +0.000 A 
ATOM     26 CL   UNL     1       1.636   8.311  17.729  0.00  0.00    +0.000 Cl
ATOM     27  C   UNL     1       1.054   8.972  20.332  0.00  0.00    +0.000 A 
ATOM     28  C   UNL     1       0.723   9.954  21.287  0.00  0.00    +0.000 A 
ATOM     29 CL   UNL     1       0.221   9.519  22.894  0.00  0.00    +0.000 Cl
ATOM     30  C   UNL     1       0.788  11.322  20.971  0.00  0.00    +0.000 A 
BRANCH  23  32
ATOM     31  C   UNL     1       2.549  13.633  19.158  0.00  0.00    +0.000 C 
ATOM     32  O   UNL     1       1.280  13.101  19.513  0.00  0.00    +0.000 OA
ENDBRANCH  23  32
BRANCH  30  33
ATOM     33  O   UNL     1       0.465  12.277  21.907  0.00  0.00    +0.000 OA
ATOM     34  H   UNL     1       0.114  13.053  21.436  0.00  0.00    +0.000 HD
ENDBRANCH  30  33
ENDBRANCH  22  27
ENDBRANCH  20  22
ENDBRANCH  19  20
ENDBRANCH   1  19
TORSDOF 9
ENDMDL
MODEL 6
REMARK VINA RESULT:      -7.3      1.041      1.334
REMARK  Name = 
REMARK  10 active torsions:
REMARK  status: ('A' for Active; 'I' for Inactive)
REMARK    1  A    between atoms: C_1  and  O_2
REMARK    2  A    between atoms: O_2  and  C_3
REMARK    3  A    between atoms: C_7  and  C_8
REMARK    4  A    between atoms: C_8  and  N_9
REMARK    5  A    between atoms: N_9  and  C_10
REMARK    6  A    between atoms: C_10  and  C_11
REMARK    7  A    between atoms: C_13  and  N_14
REMARK    8  A    between atoms: C_22  and  O_23
REMARK    9  A    between atoms: C_24  and  O_25
REMARK   10  A    between atoms: C_28  and  O_29
REMARK                            x       y       z     vdW  Elec       q    Type
REMARK                         _______ _______ _______ _____ _____    ______ ____
ROOT
ATOM      1  C   UNL     1       1.941   3.851  19.564  0.00  0.00    +0.000 C 
ATOM      2  O   UNL     1       2.313   4.369  18.267  0.00  0.00    +0.000 OA
ATOM      3  C   UNL     1       3.466   3.646  17.768  0.00  0.00    +0.000 C 
ATOM      4  C   UNL     1       3.788   2.536  18.794  0.00  0.00    +0.000 C 
ATOM      5  C   UNL     1       2.517   2.447  19.623  0.00  0.00    +0.000 C 
ENDROOT
BRANCH   3   6
ATOM      6  N   UNL     1       4.587   4.563  17.500  0.00  0.00    +0.000 N 
ATOM      7  C   UNL     1       4.672   5.299  16.333  0.00  0.00    +0.000 A 
ATOM      8  C   UNL     1       5.694   6.112  16.068  0.00  0.00    +0.000 A 
ATOM      9  C   UNL     1       6.779   6.232  17.052  0.00  0.00    +0.000 A 
ATOM     10  O   UNL     1       7.747   6.951  16.845  0.00  0.00    +0.000 OA
ATOM     11  N   UNL     1       6.630   5.482  18.179  0.00  0.00    +0.000 N 
ATOM     12  C   UNL     1       5.621   4.591  18.431  0.00  0.00    +0.000 A 
ATOM     13  O   UNL     1       5.685   3.872  19.422  0.00  0.00    +0.000 OA
ATOM     14  H   UNL     1       7.381   5.510  18.851  0.00  0.00    +0.000 HD
ENDBRANCH   3   6
BRANCH   4  15
ATOM     15  O   UNL     1       4.080   1.270  18.205  0.00  0.00    +0.000 OA
ATOM     16  H   UNL     1       5.043   1.257  18.025  0.00  0.00    +0.000 HD
ENDBRANCH   4  15
BRANCH   5  17
ATOM     17  O   UNL     1       1.613   1.522  18.975  0.00  0.00    +0.000 OA
ATOM     18  H   UNL     1       1.891   1.410  18.048  0.00  0.00    +0.000 HD
ENDBRANCH   5  17
BRANCH   1  19
ATOM     19  C   UNL     1       2.423   4.819  20.665  0.00  0.00    +0.000 C 
BRANCH  19  20
ATOM     20  N   UNL     1       2.412   6.237  20.229  0.00  0.00    +0.000 NA
ATOM     21  H   UNL     1       2.243   6.243  19.226  0.00  0.00    +0.000 HD
BRANCH  20  22
ATOM     22  C   UNL     1       1.336   7.013  20.849  0.00  0.00    +0.000 C 
BRANCH  22  27
ATOM     23  C   UNL     1       1.039  11.117  19.405  0.00  0.00    +0.000 A 
ATOM     24  C   UNL     1       0.712  10.803  20.722  0.00  0.00    +0.000 A 
ATOM     25  C   UNL     1       0.868   9.494  21.206  0.00  0.00    +0.000 A 
ATOM     26 CL   UNL     1       0.474   9.233  22.873  0.00  0.00    +0.000 Cl
ATOM     27  C   UNL     1       1.322   8.453  20.378  0.00  0.00    +0.000 A 
ATOM     28  C   UNL     1       1.728   8.801  19.073  0.00  0.00    +0.000 A 
ATOM     29 CL   UNL     1       2.419   7.622  17.998  0.00  0.00    +0.000 Cl
ATOM     30  C   UNL     1       1.587  10.115  18.598  0.00  0.00    +0.000 A 
BRANCH  23  32
ATOM     31  C   UNL     1      -0.440  12.793  18.560  0.00  0.00    +0.000 C 
ATOM     32  O   UNL     1       0.883  12.348  18.826  0.00  0.00    +0.000 OA
ENDBRANCH  23  32
BRANCH  30  33
ATOM     33  O   UNL     1       1.983  10.449  17.324  0.00  0.00    +0.000 OA
ATOM     34  H   UNL     1       2.097  11.416  17.287  0.00  0.00    +0.000 HD
ENDBRANCH  30  33
ENDBRANCH  22  27
ENDBRANCH  20  22
ENDBRANCH  19  20
ENDBRANCH   1  19
TORSDOF 9
ENDMDL
MODEL 7
REMARK VINA RESULT:      -7.3      1.199      1.297
REMARK  Name = 
REMARK  10 active torsions:
REMARK  status: ('A' for Active; 'I' for Inactive)
REMARK    1  A    between atoms: C_1  and  O_2
REMARK    2  A    between atoms: O_2  and  C_3
REMARK    3  A    between atoms: C_7  and  C_8
REMARK    4  A    between atoms: C_8  and  N_9
REMARK    5  A    between atoms: N_9  and  C_10
REMARK    6  A    between atoms: C_10  and  C_11
REMARK    7  A    between atoms: C_13  and  N_14
REMARK    8  A    between atoms: C_22  and  O_23
REMARK    9  A    between atoms: C_24  and  O_25
REMARK   10  A    between atoms: C_28  and  O_29
REMARK                            x       y       z     vdW  Elec       q    Type
REMARK                         _______ _______ _______ _____ _____    ______ ____
ROOT
ATOM      1  C   UNL     1       1.740   4.479  19.200  0.00  0.00    +0.000 C 
ATOM      2  O   UNL     1       2.229   4.936  17.918  0.00  0.00    +0.000 OA
ATOM      3  C   UNL     1       3.357   4.123  17.511  0.00  0.00    +0.000 C 
ATOM      4  C   UNL     1       3.534   3.020  18.580  0.00  0.00    +0.000 C 
ATOM      5  C   UNL     1       2.211   3.041  19.326  0.00  0.00    +0.000 C 
ENDROOT
BRANCH   3   6
ATOM      6  N   UNL     1       4.555   4.953  17.296  0.00  0.00    +0.000 N 
ATOM      7  C   UNL     1       4.618   6.271  17.703  0.00  0.00    +0.000 A 
ATOM      8  C   UNL     1       5.686   7.040  17.492  0.00  0.00    +0.000 A 
ATOM      9  C   UNL     1       6.845   6.466  16.795  0.00  0.00    +0.000 A 
ATOM     10  O   UNL     1       7.841   7.139  16.561  0.00  0.00    +0.000 OA
ATOM     11  N   UNL     1       6.718   5.163  16.424  0.00  0.00    +0.000 N 
ATOM     12  C   UNL     1       5.600   4.384  16.573  0.00  0.00    +0.000 A 
ATOM     13  O   UNL     1       5.569   3.271  16.064  0.00  0.00    +0.000 OA
ATOM     14  H   UNL     1       7.479   4.757  15.904  0.00  0.00    +0.000 HD
ENDBRANCH   3   6
BRANCH   4  15
ATOM     15  O   UNL     1       3.773   1.722  18.038  0.00  0.00    +0.000 OA
ATOM     16  H   UNL     1       4.433   1.289  18.620  0.00  0.00    +0.000 HD
ENDBRANCH   4  15
BRANCH   5  17
ATOM     17  O   UNL     1       1.286   2.164  18.642  0.00  0.00    +0.000 OA
ATOM     18  H   UNL     1       0.848   1.596  19.301  0.00  0.00    +0.000 HD
ENDBRANCH   5  17
BRANCH   1  19
ATOM     19  C   UNL     1       2.219   5.440  20.309  0.00  0.00    +0.000 C 
BRANCH  19  20
ATOM     20  N   UNL     1       1.220   6.486  20.635  0.00  0.00    +0.000 NA
ATOM     21  H   UNL     1       0.677   6.149  21.426  0.00  0.00    +0.000 HD
BRANCH  20  22
ATOM     22  C   UNL     1       1.833   7.751  21.046  0.00  0.00    +0.000 C 
BRANCH  22  27
ATOM     23  C   UNL     1      -0.854  11.021  20.002  0.00  0.00    +0.000 A 
ATOM     24  C   UNL     1      -0.671  10.651  21.333  0.00  0.00    +0.000 A 
ATOM     25  C   UNL     1       0.243   9.641  21.676  0.00  0.00    +0.000 A 
ATOM     26 CL   UNL     1       0.422   9.300  23.364  0.00  0.00    +0.000 Cl
ATOM     27  C   UNL     1       0.973   8.947  20.695  0.00  0.00    +0.000 A 
ATOM     28  C   UNL     1       0.839   9.387  19.363  0.00  0.00    +0.000 A 
ATOM     29 CL   UNL     1       1.781   8.686  18.081  0.00  0.00    +0.000 Cl
ATOM     30  C   UNL     1      -0.063  10.411  19.025  0.00  0.00    +0.000 A 
BRANCH  23  32
ATOM     31  C   UNL     1      -1.487  13.322  19.872  0.00  0.00    +0.000 C 
ATOM     32  O   UNL     1      -1.749  11.960  19.562  0.00  0.00    +0.000 OA
ENDBRANCH  23  32
BRANCH  30  33
ATOM     33  O   UNL     1      -0.191  10.836  17.724  0.00  0.00    +0.000 OA
ATOM     34  H   UNL     1      -1.093  11.182  17.607  0.00  0.00    +0.000 HD
ENDBRANCH  30  33
ENDBRANCH  22  27
ENDBRANCH  20  22
ENDBRANCH  19  20
ENDBRANCH   1  19
TORSDOF 9
ENDMDL
MODEL 8
REMARK VINA RESULT:      -7.3      1.452      1.818
REMARK  Name = 
REMARK  10 active torsions:
REMARK  status: ('A' for Active; 'I' for Inactive)
REMARK    1  A    between atoms: C_1  and  O_2
REMARK    2  A    between atoms: O_2  and  C_3
REMARK    3  A    between atoms: C_7  and  C_8
REMARK    4  A    between atoms: C_8  and  N_9
REMARK    5  A    between atoms: N_9  and  C_10
REMARK    6  A    between atoms: C_10  and  C_11
REMARK    7  A    between atoms: C_13  and  N_14
REMARK    8  A    between atoms: C_22  and  O_23
REMARK    9  A    between atoms: C_24  and  O_25
REMARK   10  A    between atoms: C_28  and  O_29
REMARK                            x       y       z     vdW  Elec       q    Type
REMARK                         _______ _______ _______ _____ _____    ______ ____
ROOT
ATOM      1  C   UNL     1       1.278   4.567  19.600  0.00  0.00    +0.000 C 
ATOM      2  O   UNL     1       1.866   4.711  18.288  0.00  0.00    +0.000 OA
ATOM      3  C   UNL     1       2.655   3.535  17.977  0.00  0.00    +0.000 C 
ATOM      4  C   UNL     1       2.478   2.545  19.151  0.00  0.00    +0.000 C 
ATOM      5  C   UNL     1       1.250   3.074  19.872  0.00  0.00    +0.000 C 
ENDROOT
BRANCH   3   6
ATOM      6  N   UNL     1       4.055   3.899  17.700  0.00  0.00    +0.000 N 
ATOM      7  C   UNL     1       4.465   4.351  16.461  0.00  0.00    +0.000 A 
ATOM      8  C   UNL     1       5.734   4.658  16.190  0.00  0.00    +0.000 A 
ATOM      9  C   UNL     1       6.741   4.508  17.250  0.00  0.00    +0.000 A 
ATOM     10  O   UNL     1       7.921   4.758  17.044  0.00  0.00    +0.000 OA
ATOM     11  N   UNL     1       6.268   4.060  18.446  0.00  0.00    +0.000 N 
ATOM     12  C   UNL     1       4.982   3.676  18.715  0.00  0.00    +0.000 A 
ATOM     13  O   UNL     1       4.721   3.154  19.793  0.00  0.00    +0.000 OA
ATOM     14  H   UNL     1       6.944   3.905  19.177  0.00  0.00    +0.000 HD
ENDBRANCH   3   6
BRANCH   4  15
ATOM     15  O   UNL     1       2.265   1.195  18.742  0.00  0.00    +0.000 OA
ATOM     16  H   UNL     1       1.552   0.836  19.310  0.00  0.00    +0.000 HD
ENDBRANCH   4  15
BRANCH   5  17
ATOM     17  O   UNL     1       0.075   2.490  19.264  0.00  0.00    +0.000 OA
ATOM     18  H   UNL     1      -0.166   1.685  19.758  0.00  0.00    +0.000 HD
ENDBRANCH   5  17
BRANCH   1  19
ATOM     19  C   UNL     1       2.068   5.419  20.617  0.00  0.00    +0.000 C 
BRANCH  19  20
ATOM     20  N   UNL     1       1.366   6.672  20.986  0.00  0.00    +0.000 NA
ATOM     21  H   UNL     1       1.382   6.740  22.001  0.00  0.00    +0.000 HD
BRANCH  20  22
ATOM     22  C   UNL     1       2.032   7.869  20.468  0.00  0.00    +0.000 C 
BRANCH  22  27
ATOM     23  C   UNL     1      -0.930  11.030  19.969  0.00  0.00    +0.000 A 
ATOM     24  C   UNL     1      -0.547  10.612  21.241  0.00  0.00    +0.000 A 
ATOM     25  C   UNL     1       0.454   9.639  21.404  0.00  0.00    +0.000 A 
ATOM     26 CL   UNL     1       0.881   9.233  23.033  0.00  0.00    +0.000 Cl
ATOM     27  C   UNL     1       1.074   9.031  20.299  0.00  0.00    +0.000 A 
ATOM     28  C   UNL     1       0.736   9.522  19.022  0.00  0.00    +0.000 A 
ATOM     29 CL   UNL     1       1.525   8.931  17.590  0.00  0.00    +0.000 Cl
ATOM     30  C   UNL     1      -0.253  10.508  18.863  0.00  0.00    +0.000 A 
BRANCH  23  32
ATOM     31  C   UNL     1      -1.722  13.279  20.123  0.00  0.00    +0.000 C 
ATOM     32  O   UNL     1      -1.922  11.936  19.704  0.00  0.00    +0.000 OA
ENDBRANCH  23  32
BRANCH  30  33
ATOM     33  O   UNL     1      -0.580  10.982  17.615  0.00  0.00    +0.000 OA
ATOM     34  H   UNL     1      -1.535  11.173  17.606  0.00  0.00    +0.000 HD
ENDBRANCH  30  33
ENDBRANCH  22  27
ENDBRANCH  20  22
ENDBRANCH  19  20
ENDBRANCH   1  19
TORSDOF 9
ENDMDL
MODEL 9
REMARK VINA RESULT:      -7.2      0.949      2.045
REMARK  Name = 
REMARK  10 active torsions:
REMARK  status: ('A' for Active; 'I' for Inactive)
REMARK    1  A    between atoms: C_1  and  O_2
REMARK    2  A    between atoms: O_2  and  C_3
REMARK    3  A    between atoms: C_7  and  C_8
REMARK    4  A    between atoms: C_8  and  N_9
REMARK    5  A    between atoms: N_9  and  C_10
REMARK    6  A    between atoms: C_10  and  C_11
REMARK    7  A    between atoms: C_13  and  N_14
REMARK    8  A    between atoms: C_22  and  O_23
REMARK    9  A    between atoms: C_24  and  O_25
REMARK   10  A    between atoms: C_28  and  O_29
REMARK                            x       y       z     vdW  Elec       q    Type
REMARK                         _______ _______ _______ _____ _____    ______ ____
ROOT
ATOM      1  C   UNL     1       1.830   3.791  19.095  0.00  0.00    +0.000 C 
ATOM      2  O   UNL     1       2.415   4.191  17.836  0.00  0.00    +0.000 OA
ATOM      3  C   UNL     1       3.647   3.459  17.618  0.00  0.00    +0.000 C 
ATOM      4  C   UNL     1       3.799   2.464  18.791  0.00  0.00    +0.000 C 
ATOM      5  C   UNL     1       2.404   2.417  19.393  0.00  0.00    +0.000 C 
ENDROOT
BRANCH   3   6
ATOM      6  N   UNL     1       4.786   4.379  17.457  0.00  0.00    +0.000 N 
ATOM      7  C   UNL     1       5.332   5.067  18.523  0.00  0.00    +0.000 A 
ATOM      8  C   UNL     1       6.345   5.922  18.386  0.00  0.00    +0.000 A 
ATOM      9  C   UNL     1       6.907   6.146  17.047  0.00  0.00    +0.000 A 
ATOM     10  O   UNL     1       7.825   6.936  16.868  0.00  0.00    +0.000 OA
ATOM     11  N   UNL     1       6.324   5.435  16.043  0.00  0.00    +0.000 N 
ATOM     12  C   UNL     1       5.239   4.608  16.160  0.00  0.00    +0.000 A 
ATOM     13  O   UNL     1       4.724   4.142  15.151  0.00  0.00    +0.000 OA
ATOM     14  H   UNL     1       6.659   5.603  15.107  0.00  0.00    +0.000 HD
ENDBRANCH   3   6
BRANCH   4  15
ATOM     15  O   UNL     1       4.206   1.156  18.392  0.00  0.00    +0.000 OA
ATOM     16  H   UNL     1       5.064   0.980  18.830  0.00  0.00    +0.000 HD
ENDBRANCH   4  15
BRANCH   5  17
ATOM     17  O   UNL     1       1.639   1.407  18.696  0.00  0.00    +0.000 OA
ATOM     18  H   UNL     1       1.774   0.550  19.140  0.00  0.00    +0.000 HD
ENDBRANCH   5  17
BRANCH   1  19
ATOM     19  C   UNL     1       2.100   4.875  20.159  0.00  0.00    +0.000 C 
BRANCH  19  20
ATOM     20  N   UNL     1       2.176   6.240  19.583  0.00  0.00    +0.000 NA
ATOM     21  H   UNL     1       1.442   6.313  18.882  0.00  0.00    +0.000 HD
BRANCH  20  22
ATOM     22  C   UNL     1       1.926   7.289  20.574  0.00  0.00    +0.000 C 
BRANCH  22  27
ATOM     23  C   UNL     1       0.429  11.030  18.906  0.00  0.00    +0.000 A 
ATOM     24  C   UNL     1       1.350  10.257  18.201  0.00  0.00    +0.000 A 
ATOM     25  C   UNL     1       1.784   9.021  18.708  0.00  0.00    +0.000 A 
ATOM     26 CL   UNL     1       2.893   8.126  17.722  0.00  0.00    +0.000 Cl
ATOM     27  C   UNL     1       1.337   8.539  19.950  0.00  0.00    +0.000 A 
ATOM     28  C   UNL     1       0.345   9.290  20.613  0.00  0.00    +0.000 A 
ATOM     29 CL   UNL     1      -0.370   8.732  22.096  0.00  0.00    +0.000 Cl
ATOM     30  C   UNL     1      -0.100  10.517  20.094  0.00  0.00    +0.000 A 
BRANCH  23  32
ATOM     31  C   UNL     1       0.888  13.353  18.587  0.00  0.00    +0.000 C 
ATOM     32  O   UNL     1      -0.022  12.264  18.520  0.00  0.00    +0.000 OA
ENDBRANCH  23  32
BRANCH  30  33
ATOM     33  O   UNL     1      -1.067  11.247  20.744  0.00  0.00    +0.000 OA
ATOM     34  H   UNL     1      -0.846  11.263  21.692  0.00  0.00    +0.000 HD
ENDBRANCH  30  33
ENDBRANCH  22  27
ENDBRANCH  20  22
ENDBRANCH  19  20
ENDBRANCH   1  19
TORSDOF 9
ENDMDL
