MODEL 1
REMARK VINA RESULT:      -9.8      0.000      0.000
REMARK  Name = 
REMARK  5 active torsions:
REMARK  status: ('A' for Active; 'I' for Inactive)
REMARK    1  A    between atoms: C_1  and  O_2
REMARK    2  A    between atoms: O_2  and  C_3
REMARK    3  A    between atoms: C_13  and  C_14
REMARK    4  A    between atoms: C_20  and  C_21
REMARK    5  A    between atoms: C_28  and  C_29
REMARK                            x       y       z     vdW  Elec       q    Type
REMARK                         _______ _______ _______ _____ _____    ______ ____
ROOT
ATOM      1  C   UNL     1       0.809  14.887  19.810  0.00  0.00    +0.000 C 
ATOM      2  C   UNL     1      -0.403  14.152  19.259  0.00  0.00    +0.000 C 
ATOM      3  C   UNL     1      -0.588  12.865  20.040  0.00  0.00    +0.000 C 
ATOM      4  C   UNL     1       0.628  11.876  19.972  0.00  0.00    +0.000 C 
ATOM      5  C   UNL     1       1.931  12.637  20.330  0.00  0.00    +0.000 C 
ATOM      6  C   UNL     1       2.059  14.015  19.637  0.00  0.00    +0.000 C 
ATOM      7  C   UNL     1       0.630  11.428  18.468  0.00  0.00    +0.000 C 
ATOM      8  C   UNL     1       1.234  10.088  18.513  0.00  0.00    +0.000 A 
ATOM      9  C   UNL     1       1.893   9.503  17.453  0.00  0.00    +0.000 A 
ATOM     10  C   UNL     1       2.526   8.296  17.672  0.00  0.00    +0.000 A 
ATOM     11  C   UNL     1       2.461   7.633  18.919  0.00  0.00    +0.000 A 
ATOM     12  C   UNL     1       1.713   8.251  19.962  0.00  0.00    +0.000 A 
ATOM     13  C   UNL     1       1.053   9.474  19.757  0.00  0.00    +0.000 A 
ATOM     14  C   UNL     1       0.428  10.453  20.768  0.00  0.00    +0.000 C 
ATOM     15  N   UNL     1      -1.078  10.452  21.016  0.00  0.00    +0.000 NA
ATOM     16  C   UNL     1      -1.021  10.704  22.293  0.00  0.00    +0.000 C 
ATOM     17  C   UNL     1      -1.231  12.014  23.025  0.00  0.00    +0.000 C 
ATOM     18  C   UNL     1       0.081   9.921  22.877  0.00  0.00    +0.000 C 
ATOM     19  N   UNL     1      -0.151   9.251  24.043  0.00  0.00    +0.000 N 
ATOM     20  N   UNL     1       1.093  10.159  22.112  0.00  0.00    +0.000 NA
ATOM     21  H   UNL     1      -0.929   8.606  23.895  0.00  0.00    +0.000 HD
ATOM     22  H   UNL     1      -0.556   9.853  24.756  0.00  0.00    +0.000 HD
ENDROOT
BRANCH  11  23
ATOM     23  C   UNL     1       3.207   6.349  19.066  0.00  0.00    +0.000 A 
ATOM     24  C   UNL     1       4.344   6.042  18.304  0.00  0.00    +0.000 A 
ATOM     25  C   UNL     1       5.017   4.811  18.420  0.00  0.00    +0.000 A 
ATOM     26  C   UNL     1       4.462   3.843  19.263  0.00  0.00    +0.000 A 
ATOM     27  N   UNL     1       4.884   2.574  19.578  0.00  0.00    +0.000 N 
ATOM     28  C   UNL     1       3.868   1.889  20.189  0.00  0.00    +0.000 A 
ATOM     29  C   UNL     1       2.963   2.827  20.645  0.00  0.00    +0.000 A 
ATOM     30  C   UNL     1       1.844   2.576  21.587  0.00  0.00    +0.000 C 
ATOM     31  C   UNL     1       3.300   4.061  19.997  0.00  0.00    +0.000 A 
ATOM     32  C   UNL     1       2.720   5.346  19.944  0.00  0.00    +0.000 A 
ATOM     33  H   UNL     1       5.792   2.192  19.356  0.00  0.00    +0.000 HD
ENDBRANCH  11  23
BRANCH   1  35
ATOM     34  C   UNL     1      -0.332  16.463  18.446  0.00  0.00    +0.000 C 
ATOM     35  O   UNL     1       0.874  16.127  19.111  0.00  0.00    +0.000 OA
ENDBRANCH   1  35
TORSDOF 2
ENDMDL
MODEL 2
REMARK VINA RESULT:      -9.5      2.344      3.857
REMARK  Name = 
REMARK  5 active torsions:
REMARK  status: ('A' for Active; 'I' for Inactive)
REMARK    1  A    between atoms: C_1  and  O_2
REMARK    2  A    between atoms: O_2  and  C_3
REMARK    3  A    between atoms: C_13  and  C_14
REMARK    4  A    between atoms: C_20  and  C_21
REMARK    5  A    between atoms: C_28  and  C_29
REMARK                            x       y       z     vdW  Elec       q    Type
REMARK                         _______ _______ _______ _____ _____    ______ ____
ROOT
ATOM      1  C   UNL     1      -3.444  14.181  21.231  0.00  0.00    +0.000 C 
ATOM      2  C   UNL     1      -2.309  14.322  22.234  0.00  0.00    +0.000 C 
ATOM      3  C   UNL     1      -1.000  14.015  21.534  0.00  0.00    +0.000 C 
ATOM      4  C   UNL     1      -0.905  12.572  20.923  0.00  0.00    +0.000 C 
ATOM      5  C   UNL     1      -2.156  12.302  20.047  0.00  0.00    +0.000 C 
ATOM      6  C   UNL     1      -3.487  12.740  20.706  0.00  0.00    +0.000 C 
ATOM      7  C   UNL     1      -0.897  11.654  22.196  0.00  0.00    +0.000 C 
ATOM      8  C   UNL     1      -0.156  10.464  21.752  0.00  0.00    +0.000 A 
ATOM      9  C   UNL     1      -0.303   9.211  22.309  0.00  0.00    +0.000 A 
ATOM     10  C   UNL     1       0.356   8.157  21.710  0.00  0.00    +0.000 A 
ATOM     11  C   UNL     1       1.210   8.343  20.598  0.00  0.00    +0.000 A 
ATOM     12  C   UNL     1       1.375   9.668  20.103  0.00  0.00    +0.000 A 
ATOM     13  C   UNL     1       0.722  10.756  20.703  0.00  0.00    +0.000 A 
ATOM     14  C   UNL     1       0.524  12.200  20.205  0.00  0.00    +0.000 C 
ATOM     15  N   UNL     1       1.423  13.324  20.715  0.00  0.00    +0.000 NA
ATOM     16  C   UNL     1       1.486  13.986  19.596  0.00  0.00    +0.000 C 
ATOM     17  C   UNL     1       0.727  15.228  19.170  0.00  0.00    +0.000 C 
ATOM     18  C   UNL     1       1.630  13.026  18.489  0.00  0.00    +0.000 C 
ATOM     19  N   UNL     1       2.564  13.286  17.527  0.00  0.00    +0.000 N 
ATOM     20  N   UNL     1       0.698  12.155  18.688  0.00  0.00    +0.000 NA
ATOM     21  H   UNL     1       3.477  13.361  17.977  0.00  0.00    +0.000 HD
ATOM     22  H   UNL     1       2.474  14.226  17.152  0.00  0.00    +0.000 HD
ENDROOT
BRANCH  11  23
ATOM     23  C   UNL     1       1.850   7.134  20.002  0.00  0.00    +0.000 A 
ATOM     24  C   UNL     1       2.473   7.149  18.745  0.00  0.00    +0.000 A 
ATOM     25  C   UNL     1       3.038   5.993  18.174  0.00  0.00    +0.000 A 
ATOM     26  C   UNL     1       2.880   4.784  18.858  0.00  0.00    +0.000 A 
ATOM     27  N   UNL     1       3.315   3.515  18.558  0.00  0.00    +0.000 N 
ATOM     28  C   UNL     1       2.662   2.606  19.346  0.00  0.00    +0.000 A 
ATOM     29  C   UNL     1       2.140   3.300  20.420  0.00  0.00    +0.000 A 
ATOM     30  C   UNL     1       1.580   2.702  21.658  0.00  0.00    +0.000 C 
ATOM     31  C   UNL     1       2.215   4.690  20.077  0.00  0.00    +0.000 A 
ATOM     32  C   UNL     1       1.766   5.886  20.674  0.00  0.00    +0.000 A 
ATOM     33  H   UNL     1       3.985   3.286  17.838  0.00  0.00    +0.000 HD
ENDBRANCH  11  23
BRANCH   1  35
ATOM     34  C   UNL     1      -4.436  14.795  23.301  0.00  0.00    +0.000 C 
ATOM     35  O   UNL     1      -4.630  14.577  21.914  0.00  0.00    +0.000 OA
ENDBRANCH   1  35
TORSDOF 2
ENDMDL
MODEL 3
REMARK VINA RESULT:      -9.2      2.314      4.237
REMARK  Name = 
REMARK  5 active torsions:
REMARK  status: ('A' for Active; 'I' for Inactive)
REMARK    1  A    between atoms: C_1  and  O_2
REMARK    2  A    between atoms: O_2  and  C_3
REMARK    3  A    between atoms: C_13  and  C_14
REMARK    4  A    between atoms: C_20  and  C_21
REMARK    5  A    between atoms: C_28  and  C_29
REMARK                            x       y       z     vdW  Elec       q    Type
REMARK                         _______ _______ _______ _____ _____    ______ ____
ROOT
ATOM      1  C   UNL     1      -3.312  14.256  21.226  0.00  0.00    +0.000 C 
ATOM      2  C   UNL     1      -2.151  14.399  22.199  0.00  0.00    +0.000 C 
ATOM      3  C   UNL     1      -0.870  14.010  21.489  0.00  0.00    +0.000 C 
ATOM      4  C   UNL     1      -0.843  12.538  20.944  0.00  0.00    +0.000 C 
ATOM      5  C   UNL     1      -2.121  12.276  20.106  0.00  0.00    +0.000 C 
ATOM      6  C   UNL     1      -3.420  12.795  20.770  0.00  0.00    +0.000 C 
ATOM      7  C   UNL     1      -0.842  11.680  22.258  0.00  0.00    +0.000 C 
ATOM      8  C   UNL     1      -0.155  10.443  21.855  0.00  0.00    +0.000 A 
ATOM      9  C   UNL     1      -0.338   9.224  22.473  0.00  0.00    +0.000 A 
ATOM     10  C   UNL     1       0.269   8.119  21.912  0.00  0.00    +0.000 A 
ATOM     11  C   UNL     1       1.105   8.220  20.776  0.00  0.00    +0.000 A 
ATOM     12  C   UNL     1       1.310   9.513  20.216  0.00  0.00    +0.000 A 
ATOM     13  C   UNL     1       0.710  10.652  20.777  0.00  0.00    +0.000 A 
ATOM     14  C   UNL     1       0.556  12.079  20.216  0.00  0.00    +0.000 C 
ATOM     15  N   UNL     1       1.507  13.189  20.656  0.00  0.00    +0.000 NA
ATOM     16  C   UNL     1       1.571  13.797  19.505  0.00  0.00    +0.000 C 
ATOM     17  C   UNL     1       0.851  15.045  19.037  0.00  0.00    +0.000 C 
ATOM     18  C   UNL     1       1.656  12.782  18.442  0.00  0.00    +0.000 C 
ATOM     19  N   UNL     1       2.578  12.961  17.451  0.00  0.00    +0.000 N 
ATOM     20  N   UNL     1       0.696  11.957  18.700  0.00  0.00    +0.000 NA
ATOM     21  H   UNL     1       3.502  13.021  17.879  0.00  0.00    +0.000 HD
ATOM     22  H   UNL     1       2.515  13.886  17.034  0.00  0.00    +0.000 HD
ENDROOT
BRANCH  11  23
ATOM     23  C   UNL     1       1.687   6.961  20.224  0.00  0.00    +0.000 A 
ATOM     24  C   UNL     1       1.491   5.709  20.825  0.00  0.00    +0.000 A 
ATOM     25  C   UNL     1       2.078   4.533  20.319  0.00  0.00    +0.000 A 
ATOM     26  C   UNL     1       2.956   4.657  19.238  0.00  0.00    +0.000 A 
ATOM     27  N   UNL     1       3.664   3.708  18.540  0.00  0.00    +0.000 N 
ATOM     28  C   UNL     1       4.623   4.319  17.777  0.00  0.00    +0.000 A 
ATOM     29  C   UNL     1       4.260   5.646  17.654  0.00  0.00    +0.000 A 
ATOM     30  C   UNL     1       4.851   6.629  16.712  0.00  0.00    +0.000 C 
ATOM     31  C   UNL     1       3.244   5.879  18.638  0.00  0.00    +0.000 A 
ATOM     32  C   UNL     1       2.547   7.016  19.096  0.00  0.00    +0.000 A 
ATOM     33  H   UNL     1       3.523   2.711  18.608  0.00  0.00    +0.000 HD
ENDBRANCH  11  23
BRANCH   1  35
ATOM     34  C   UNL     1      -5.004  13.787  22.827  0.00  0.00    +0.000 C 
ATOM     35  O   UNL     1      -4.467  14.728  21.913  0.00  0.00    +0.000 OA
ENDBRANCH   1  35
TORSDOF 2
ENDMDL
MODEL 4
REMARK VINA RESULT:      -9.2      1.287      2.010
REMARK  Name = 
REMARK  5 active torsions:
REMARK  status: ('A' for Active; 'I' for Inactive)
REMARK    1  A    between atoms: C_1  and  O_2
REMARK    2  A    between atoms: O_2  and  C_3
REMARK    3  A    between atoms: C_13  and  C_14
REMARK    4  A    between atoms: C_20  and  C_21
REMARK    5  A    between atoms: C_28  and  C_29
REMARK                            x       y       z     vdW  Elec       q    Type
REMARK                         _______ _______ _______ _____ _____    ______ ____
ROOT
ATOM      1  C   UNL     1       2.023  15.603  19.891  0.00  0.00    +0.000 C 
ATOM      2  C   UNL     1       0.839  15.206  19.022  0.00  0.00    +0.000 C 
ATOM      3  C   UNL     1       0.123  14.042  19.676  0.00  0.00    +0.000 C 
ATOM      4  C   UNL     1       1.004  12.758  19.877  0.00  0.00    +0.000 C 
ATOM      5  C   UNL     1       2.328  13.150  20.584  0.00  0.00    +0.000 C 
ATOM      6  C   UNL     1       2.994  14.421  20.003  0.00  0.00    +0.000 C 
ATOM      7  C   UNL     1       1.268  12.283  18.405  0.00  0.00    +0.000 C 
ATOM      8  C   UNL     1       1.458  10.831  18.545  0.00  0.00    +0.000 A 
ATOM      9  C   UNL     1       2.184  10.059  17.663  0.00  0.00    +0.000 A 
ATOM     10  C   UNL     1       2.391   8.734  17.985  0.00  0.00    +0.000 A 
ATOM     11  C   UNL     1       1.835   8.149  19.146  0.00  0.00    +0.000 A 
ATOM     12  C   UNL     1       1.041   8.977  19.990  0.00  0.00    +0.000 A 
ATOM     13  C   UNL     1       0.808  10.326  19.676  0.00  0.00    +0.000 A 
ATOM     14  C   UNL     1       0.234  11.467  20.537  0.00  0.00    +0.000 C 
ATOM     15  N   UNL     1      -1.229  11.880  20.395  0.00  0.00    +0.000 NA
ATOM     16  C   UNL     1      -1.434  12.144  21.655  0.00  0.00    +0.000 C 
ATOM     17  C   UNL     1      -1.463  13.483  22.363  0.00  0.00    +0.000 C 
ATOM     18  C   UNL     1      -0.769  11.110  22.465  0.00  0.00    +0.000 C 
ATOM     19  N   UNL     1      -1.462  10.562  23.506  0.00  0.00    +0.000 N 
ATOM     20  N   UNL     1       0.430  11.044  21.991  0.00  0.00    +0.000 NA
ATOM     21  H   UNL     1      -2.319  10.147  23.139  0.00  0.00    +0.000 HD
ATOM     22  H   UNL     1      -1.857  11.272  24.118  0.00  0.00    +0.000 HD
ENDROOT
BRANCH  11  23
ATOM     23  C   UNL     1       2.147   6.716  19.423  0.00  0.00    +0.000 A 
ATOM     24  C   UNL     1       1.839   6.096  20.643  0.00  0.00    +0.000 A 
ATOM     25  C   UNL     1       2.174   4.755  20.910  0.00  0.00    +0.000 A 
ATOM     26  C   UNL     1       2.920   4.067  19.948  0.00  0.00    +0.000 A 
ATOM     27  N   UNL     1       3.384   2.773  19.923  0.00  0.00    +0.000 N 
ATOM     28  C   UNL     1       4.323   2.640  18.936  0.00  0.00    +0.000 A 
ATOM     29  C   UNL     1       4.154   3.701  18.068  0.00  0.00    +0.000 A 
ATOM     30  C   UNL     1       4.765   3.835  16.722  0.00  0.00    +0.000 C 
ATOM     31  C   UNL     1       3.313   4.645  18.745  0.00  0.00    +0.000 A 
ATOM     32  C   UNL     1       2.859   5.950  18.463  0.00  0.00    +0.000 A 
ATOM     33  H   UNL     1       3.103   2.043  20.562  0.00  0.00    +0.000 HD
ENDBRANCH  11  23
BRANCH   1  35
ATOM     34  C   UNL     1       3.294  16.476  18.084  0.00  0.00    +0.000 C 
ATOM     35  O   UNL     1       2.593  16.758  19.284  0.00  0.00    +0.000 OA
ENDBRANCH   1  35
TORSDOF 2
ENDMDL
MODEL 5
REMARK VINA RESULT:      -9.0      2.897      4.947
REMARK  Name = 
REMARK  5 active torsions:
REMARK  status: ('A' for Active; 'I' for Inactive)
REMARK    1  A    between atoms: C_1  and  O_2
REMARK    2  A    between atoms: O_2  and  C_3
REMARK    3  A    between atoms: C_13  and  C_14
REMARK    4  A    between atoms: C_20  and  C_21
REMARK    5  A    between atoms: C_28  and  C_29
REMARK                            x       y       z     vdW  Elec       q    Type
REMARK                         _______ _______ _______ _____ _____    ______ ____
ROOT
ATOM      1  C   UNL     1      -5.037  13.997  23.021  0.00  0.00    +0.000 C 
ATOM      2  C   UNL     1      -3.835  14.253  23.917  0.00  0.00    +0.000 C 
ATOM      3  C   UNL     1      -2.593  14.340  23.053  0.00  0.00    +0.000 C 
ATOM      4  C   UNL     1      -2.284  13.048  22.216  0.00  0.00    +0.000 C 
ATOM      5  C   UNL     1      -3.555  12.626  21.435  0.00  0.00    +0.000 C 
ATOM      6  C   UNL     1      -4.850  12.665  22.282  0.00  0.00    +0.000 C 
ATOM      7  C   UNL     1      -1.922  11.995  23.321  0.00  0.00    +0.000 C 
ATOM      8  C   UNL     1      -1.016  11.069  22.625  0.00  0.00    +0.000 A 
ATOM      9  C   UNL     1      -0.829   9.753  22.990  0.00  0.00    +0.000 A 
ATOM     10  C   UNL     1      -0.050   8.960  22.171  0.00  0.00    +0.000 A 
ATOM     11  C   UNL     1       0.596   9.477  21.024  0.00  0.00    +0.000 A 
ATOM     12  C   UNL     1       0.420  10.859  20.729  0.00  0.00    +0.000 A 
ATOM     13  C   UNL     1      -0.360  11.685  21.555  0.00  0.00    +0.000 A 
ATOM     14  C   UNL     1      -0.914  13.102  21.312  0.00  0.00    +0.000 C 
ATOM     15  N   UNL     1      -0.207  14.320  21.902  0.00  0.00    +0.000 NA
ATOM     16  C   UNL     1      -0.427  15.122  20.900  0.00  0.00    +0.000 C 
ATOM     17  C   UNL     1      -1.473  16.209  20.751  0.00  0.00    +0.000 C 
ATOM     18  C   UNL     1      -0.233  14.374  19.647  0.00  0.00    +0.000 C 
ATOM     19  N   UNL     1       0.495  14.959  18.652  0.00  0.00    +0.000 N 
ATOM     20  N   UNL     1      -0.932  13.298  19.797  0.00  0.00    +0.000 NA
ATOM     21  H   UNL     1       1.424  15.175  19.017  0.00  0.00    +0.000 HD
ATOM     22  H   UNL     1       0.166  15.898  18.440  0.00  0.00    +0.000 HD
ENDROOT
BRANCH  11  23
ATOM     23  C   UNL     1       1.388   8.531  20.185  0.00  0.00    +0.000 A 
ATOM     24  C   UNL     1       1.806   8.841  18.883  0.00  0.00    +0.000 A 
ATOM     25  C   UNL     1       2.518   7.926  18.085  0.00  0.00    +0.000 A 
ATOM     26  C   UNL     1       2.723   6.639  18.593  0.00  0.00    +0.000 A 
ATOM     27  N   UNL     1       3.372   5.552  18.059  0.00  0.00    +0.000 N 
ATOM     28  C   UNL     1       3.049   4.428  18.771  0.00  0.00    +0.000 A 
ATOM     29  C   UNL     1       2.551   4.847  19.989  0.00  0.00    +0.000 A 
ATOM     30  C   UNL     1       2.315   3.991  21.178  0.00  0.00    +0.000 C 
ATOM     31  C   UNL     1       2.276   6.247  19.852  0.00  0.00    +0.000 A 
ATOM     32  C   UNL     1       1.671   7.226  20.668  0.00  0.00    +0.000 A 
ATOM     33  H   UNL     1       3.966   5.573  17.243  0.00  0.00    +0.000 HD
ENDBRANCH  11  23
BRANCH   1  35
ATOM     34  C   UNL     1      -6.889  12.798  23.904  0.00  0.00    +0.000 C 
ATOM     35  O   UNL     1      -6.180  14.025  23.870  0.00  0.00    +0.000 OA
ENDBRANCH   1  35
TORSDOF 2
ENDMDL
MODEL 6
REMARK VINA RESULT:      -8.3      1.262      2.133
REMARK  Name = 
REMARK  5 active torsions:
REMARK  status: ('A' for Active; 'I' for Inactive)
REMARK    1  A    between atoms: C_1  and  O_2
REMARK    2  A    between atoms: O_2  and  C_3
REMARK    3  A    between atoms: C_13  and  C_14
REMARK    4  A    between atoms: C_20  and  C_21
REMARK    5  A    between atoms: C_28  and  C_29
REMARK                            x       y       z     vdW  Elec       q    Type
REMARK                         _______ _______ _______ _____ _____    ______ ____
ROOT
ATOM      1  C   UNL     1       1.238  15.660  20.545  0.00  0.00    +0.000 C 
ATOM      2  C   UNL     1       0.008  15.180  19.790  0.00  0.00    +0.000 C 
ATOM      3  C   UNL     1      -0.413  13.835  20.349  0.00  0.00    +0.000 C 
ATOM      4  C   UNL     1       0.674  12.708  20.236  0.00  0.00    +0.000 C 
ATOM      5  C   UNL     1       2.016  13.229  20.813  0.00  0.00    +0.000 C 
ATOM      6  C   UNL     1       2.383  14.659  20.348  0.00  0.00    +0.000 C 
ATOM      7  C   UNL     1       0.776  12.477  18.687  0.00  0.00    +0.000 C 
ATOM      8  C   UNL     1       1.204  11.074  18.581  0.00  0.00    +0.000 A 
ATOM      9  C   UNL     1       1.893  10.557  17.504  0.00  0.00    +0.000 A 
ATOM     10  C   UNL     1       2.347   9.257  17.591  0.00  0.00    +0.000 A 
ATOM     11  C   UNL     1       2.073   8.443  18.714  0.00  0.00    +0.000 A 
ATOM     12  C   UNL     1       1.303   9.007  19.771  0.00  0.00    +0.000 A 
ATOM     13  C   UNL     1       0.822  10.324  19.698  0.00  0.00    +0.000 A 
ATOM     14  C   UNL     1       0.221  11.230  20.789  0.00  0.00    +0.000 C 
ATOM     15  N   UNL     1      -1.292  11.399  20.906  0.00  0.00    +0.000 NA
ATOM     16  C   UNL     1      -1.337  11.461  22.207  0.00  0.00    +0.000 C 
ATOM     17  C   UNL     1      -1.459  12.675  23.107  0.00  0.00    +0.000 C 
ATOM     18  C   UNL     1      -0.405  10.463  22.757  0.00  0.00    +0.000 C 
ATOM     19  N   UNL     1      -0.836   9.676  23.785  0.00  0.00    +0.000 N 
ATOM     20  N   UNL     1       0.702  10.665  22.124  0.00  0.00    +0.000 NA
ATOM     21  H   UNL     1      -1.667   9.169  23.476  0.00  0.00    +0.000 HD
ATOM     22  H   UNL     1      -1.235  10.223  24.544  0.00  0.00    +0.000 HD
ENDROOT
BRANCH  11  23
ATOM     23  C   UNL     1       2.638   7.062  18.728  0.00  0.00    +0.000 A 
ATOM     24  C   UNL     1       2.547   6.217  19.845  0.00  0.00    +0.000 A 
ATOM     25  C   UNL     1       3.120   4.931  19.862  0.00  0.00    +0.000 A 
ATOM     26  C   UNL     1       3.877   4.541  18.754  0.00  0.00    +0.000 A 
ATOM     27  N   UNL     1       4.542   3.368  18.484  0.00  0.00    +0.000 N 
ATOM     28  C   UNL     1       5.397   3.555  17.432  0.00  0.00    +0.000 A 
ATOM     29  C   UNL     1       4.979   4.690  16.765  0.00  0.00    +0.000 A 
ATOM     30  C   UNL     1       5.436   5.135  15.425  0.00  0.00    +0.000 C 
ATOM     31  C   UNL     1       4.061   5.357  17.641  0.00  0.00    +0.000 A 
ATOM     32  C   UNL     1       3.376   6.589  17.611  0.00  0.00    +0.000 A 
ATOM     33  H   UNL     1       4.444   2.511  19.009  0.00  0.00    +0.000 HD
ENDBRANCH  11  23
BRANCH   1  35
ATOM     34  C   UNL     1       0.390  17.629  19.519  0.00  0.00    +0.000 C 
ATOM     35  O   UNL     1       1.525  16.965  20.049  0.00  0.00    +0.000 OA
ENDBRANCH   1  35
TORSDOF 2
ENDMDL
MODEL 7
REMARK VINA RESULT:      -8.2      8.249     10.969
REMARK  Name = 
REMARK  5 active torsions:
REMARK  status: ('A' for Active; 'I' for Inactive)
REMARK    1  A    between atoms: C_1  and  O_2
REMARK    2  A    between atoms: O_2  and  C_3
REMARK    3  A    between atoms: C_13  and  C_14
REMARK    4  A    between atoms: C_20  and  C_21
REMARK    5  A    between atoms: C_28  and  C_29
REMARK                            x       y       z     vdW  Elec       q    Type
REMARK                         _______ _______ _______ _____ _____    ______ ____
ROOT
ATOM      1  C   UNL     1      10.936  16.312  17.612  0.00  0.00    +0.000 C 
ATOM      2  C   UNL     1      12.080  15.823  18.487  0.00  0.00    +0.000 C 
ATOM      3  C   UNL     1      11.738  14.441  19.007  0.00  0.00    +0.000 C 
ATOM      4  C   UNL     1      10.428  14.369  19.869  0.00  0.00    +0.000 C 
ATOM      5  C   UNL     1       9.267  15.047  19.096  0.00  0.00    +0.000 C 
ATOM      6  C   UNL     1       9.653  16.399  18.447  0.00  0.00    +0.000 C 
ATOM      7  C   UNL     1      10.809  15.190  21.151  0.00  0.00    +0.000 C 
ATOM      8  C   UNL     1       9.957  14.603  22.196  0.00  0.00    +0.000 A 
ATOM      9  C   UNL     1       9.560  15.273  23.334  0.00  0.00    +0.000 A 
ATOM     10  C   UNL     1       8.655  14.649  24.168  0.00  0.00    +0.000 A 
ATOM     11  C   UNL     1       8.183  13.340  23.915  0.00  0.00    +0.000 A 
ATOM     12  C   UNL     1       8.675  12.670  22.758  0.00  0.00    +0.000 A 
ATOM     13  C   UNL     1       9.604  13.282  21.902  0.00  0.00    +0.000 A 
ATOM     14  C   UNL     1      10.066  12.891  20.486  0.00  0.00    +0.000 C 
ATOM     15  N   UNL     1      11.382  12.145  20.280  0.00  0.00    +0.000 NA
ATOM     16  C   UNL     1      10.977  11.395  19.295  0.00  0.00    +0.000 C 
ATOM     17  C   UNL     1      11.212  11.555  17.806  0.00  0.00    +0.000 C 
ATOM     18  C   UNL     1       9.610  10.933  19.587  0.00  0.00    +0.000 C 
ATOM     19  N   UNL     1       9.317   9.615  19.383  0.00  0.00    +0.000 N 
ATOM     20  N   UNL     1       8.965  12.003  19.909  0.00  0.00    +0.000 NA
ATOM     21  H   UNL     1       9.950   9.053  19.954  0.00  0.00    +0.000 HD
ATOM     22  H   UNL     1       9.591   9.302  18.455  0.00  0.00    +0.000 HD
ENDROOT
BRANCH  11  23
ATOM     23  C   UNL     1       7.179  12.766  24.858  0.00  0.00    +0.000 A 
ATOM     24  C   UNL     1       6.567  11.522  24.648  0.00  0.00    +0.000 A 
ATOM     25  C   UNL     1       5.591  11.008  25.523  0.00  0.00    +0.000 A 
ATOM     26  C   UNL     1       5.167  11.824  26.576  0.00  0.00    +0.000 A 
ATOM     27  N   UNL     1       4.249  11.601  27.575  0.00  0.00    +0.000 N 
ATOM     28  C   UNL     1       3.936  12.785  28.185  0.00  0.00    +0.000 A 
ATOM     29  C   UNL     1       4.944  13.679  27.879  0.00  0.00    +0.000 A 
ATOM     30  C   UNL     1       5.167  14.998  28.522  0.00  0.00    +0.000 C 
ATOM     31  C   UNL     1       5.687  13.095  26.802  0.00  0.00    +0.000 A 
ATOM     32  C   UNL     1       6.745  13.527  25.976  0.00  0.00    +0.000 A 
ATOM     33  H   UNL     1       3.840  10.705  27.799  0.00  0.00    +0.000 HD
ENDBRANCH  11  23
BRANCH   1  35
ATOM     34  C   UNL     1      10.472  18.630  17.375  0.00  0.00    +0.000 C 
ATOM     35  O   UNL     1      11.355  17.563  17.073  0.00  0.00    +0.000 OA
ENDBRANCH   1  35
TORSDOF 2
ENDMDL
MODEL 8
REMARK VINA RESULT:      -8.1      3.108      5.009
REMARK  Name = 
REMARK  5 active torsions:
REMARK  status: ('A' for Active; 'I' for Inactive)
REMARK    1  A    between atoms: C_1  and  O_2
REMARK    2  A    between atoms: O_2  and  C_3
REMARK    3  A    between atoms: C_13  and  C_14
REMARK    4  A    between atoms: C_20  and  C_21
REMARK    5  A    between atoms: C_28  and  C_29
REMARK                            x       y       z     vdW  Elec       q    Type
REMARK                         _______ _______ _______ _____ _____    ______ ____
ROOT
ATOM      1  C   UNL     1      -4.044  15.662  22.942  0.00  0.00    +0.000 C 
ATOM      2  C   UNL     1      -2.952  15.511  23.991  0.00  0.00    +0.000 C 
ATOM      3  C   UNL     1      -1.615  15.391  23.287  0.00  0.00    +0.000 C 
ATOM      4  C   UNL     1      -1.495  14.167  22.311  0.00  0.00    +0.000 C 
ATOM      5  C   UNL     1      -2.708  14.160  21.344  0.00  0.00    +0.000 C 
ATOM      6  C   UNL     1      -4.065  14.419  22.043  0.00  0.00    +0.000 C 
ATOM      7  C   UNL     1      -1.541  12.938  23.285  0.00  0.00    +0.000 C 
ATOM      8  C   UNL     1      -0.782  11.905  22.564  0.00  0.00    +0.000 A 
ATOM      9  C   UNL     1      -0.953  10.550  22.753  0.00  0.00    +0.000 A 
ATOM     10  C   UNL     1      -0.270   9.690  21.917  0.00  0.00    +0.000 A 
ATOM     11  C   UNL     1       0.630  10.161  20.933  0.00  0.00    +0.000 A 
ATOM     12  C   UNL     1       0.817  11.568  20.823  0.00  0.00    +0.000 A 
ATOM     13  C   UNL     1       0.139  12.460  21.670  0.00  0.00    +0.000 A 
ATOM     14  C   UNL     1      -0.037  13.988  21.577  0.00  0.00    +0.000 C 
ATOM     15  N   UNL     1       0.840  14.919  22.409  0.00  0.00    +0.000 NA
ATOM     16  C   UNL     1       0.950  15.861  21.515  0.00  0.00    +0.000 C 
ATOM     17  C   UNL     1       0.211  17.180  21.413  0.00  0.00    +0.000 C 
ATOM     18  C   UNL     1       1.140  15.236  20.196  0.00  0.00    +0.000 C 
ATOM     19  N   UNL     1       2.114  15.736  19.380  0.00  0.00    +0.000 N 
ATOM     20  N   UNL     1       0.201  14.354  20.113  0.00  0.00    +0.000 NA
ATOM     21  H   UNL     1       3.007  15.675  19.870  0.00  0.00    +0.000 HD
ATOM     22  H   UNL     1       2.040  16.744  19.271  0.00  0.00    +0.000 HD
ENDROOT
BRANCH  11  23
ATOM     23  C   UNL     1       1.295   9.152  20.057  0.00  0.00    +0.000 A 
ATOM     24  C   UNL     1       1.565   9.387  18.700  0.00  0.00    +0.000 A 
ATOM     25  C   UNL     1       2.155   8.414  17.872  0.00  0.00    +0.000 A 
ATOM     26  C   UNL     1       2.385   7.148  18.418  0.00  0.00    +0.000 A 
ATOM     27  N   UNL     1       2.940   6.016  17.868  0.00  0.00    +0.000 N 
ATOM     28  C   UNL     1       2.674   4.938  18.668  0.00  0.00    +0.000 A 
ATOM     29  C   UNL     1       2.333   5.429  19.913  0.00  0.00    +0.000 A 
ATOM     30  C   UNL     1       2.217   4.638  21.163  0.00  0.00    +0.000 C 
ATOM     31  C   UNL     1       2.079   6.829  19.738  0.00  0.00    +0.000 A 
ATOM     32  C   UNL     1       1.599   7.863  20.569  0.00  0.00    +0.000 A 
ATOM     33  H   UNL     1       3.434   5.981  16.988  0.00  0.00    +0.000 HD
ENDBRANCH  11  23
BRANCH   1  35
ATOM     34  C   UNL     1      -5.282  17.092  24.380  0.00  0.00    +0.000 C 
ATOM     35  O   UNL     1      -5.257  15.871  23.659  0.00  0.00    +0.000 OA
ENDBRANCH   1  35
TORSDOF 2
ENDMDL
MODEL 9
REMARK VINA RESULT:      -8.1      2.347      4.221
REMARK  Name = 
REMARK  5 active torsions:
REMARK  status: ('A' for Active; 'I' for Inactive)
REMARK    1  A    between atoms: C_1  and  O_2
REMARK    2  A    between atoms: O_2  and  C_3
REMARK    3  A    between atoms: C_13  and  C_14
REMARK    4  A    between atoms: C_20  and  C_21
REMARK    5  A    between atoms: C_28  and  C_29
REMARK                            x       y       z     vdW  Elec       q    Type
REMARK                         _______ _______ _______ _____ _____    ______ ____
ROOT
ATOM      1  C   UNL     1      -2.657  15.253  21.131  0.00  0.00    +0.000 C 
ATOM      2  C   UNL     1      -1.603  15.227  22.228  0.00  0.00    +0.000 C 
ATOM      3  C   UNL     1      -0.306  14.703  21.643  0.00  0.00    +0.000 C 
ATOM      4  C   UNL     1      -0.393  13.255  21.045  0.00  0.00    +0.000 C 
ATOM      5  C   UNL     1      -1.592  13.174  20.065  0.00  0.00    +0.000 C 
ATOM      6  C   UNL     1      -2.886  13.830  20.607  0.00  0.00    +0.000 C 
ATOM      7  C   UNL     1      -0.640  12.367  22.316  0.00  0.00    +0.000 C 
ATOM      8  C   UNL     1      -0.065  11.067  21.939  0.00  0.00    +0.000 A 
ATOM      9  C   UNL     1      -0.458   9.863  22.484  0.00  0.00    +0.000 A 
ATOM     10  C   UNL     1       0.072   8.708  21.946  0.00  0.00    +0.000 A 
ATOM     11  C   UNL     1       1.035   8.737  20.912  0.00  0.00    +0.000 A 
ATOM     12  C   UNL     1       1.453  10.010  20.429  0.00  0.00    +0.000 A 
ATOM     13  C   UNL     1       0.934  11.198  20.969  0.00  0.00    +0.000 A 
ATOM     14  C   UNL     1       1.014  12.647  20.453  0.00  0.00    +0.000 C 
ATOM     15  N   UNL     1       2.035  13.621  21.037  0.00  0.00    +0.000 NA
ATOM     16  C   UNL     1       2.298  14.247  19.925  0.00  0.00    +0.000 C 
ATOM     17  C   UNL     1       1.788  15.587  19.434  0.00  0.00    +0.000 C 
ATOM     18  C   UNL     1       2.379  13.259  18.837  0.00  0.00    +0.000 C 
ATOM     19  N   UNL     1       3.420  13.351  17.959  0.00  0.00    +0.000 N 
ATOM     20  N   UNL     1       1.306  12.551  18.957  0.00  0.00    +0.000 NA
ATOM     21  H   UNL     1       4.292  13.286  18.485  0.00  0.00    +0.000 HD
ATOM     22  H   UNL     1       3.515  14.288  17.575  0.00  0.00    +0.000 HD
ENDROOT
BRANCH  11  23
ATOM     23  C   UNL     1       1.521   7.432  20.375  0.00  0.00    +0.000 A 
ATOM     24  C   UNL     1       1.305   6.213  21.034  0.00  0.00    +0.000 A 
ATOM     25  C   UNL     1       1.803   4.993  20.540  0.00  0.00    +0.000 A 
ATOM     26  C   UNL     1       2.615   5.034  19.403  0.00  0.00    +0.000 A 
ATOM     27  N   UNL     1       3.233   4.027  18.700  0.00  0.00    +0.000 N 
ATOM     28  C   UNL     1       4.169   4.562  17.857  0.00  0.00    +0.000 A 
ATOM     29  C   UNL     1       3.863   5.900  17.705  0.00  0.00    +0.000 A 
ATOM     30  C   UNL     1       4.438   6.818  16.691  0.00  0.00    +0.000 C 
ATOM     31  C   UNL     1       2.922   6.218  18.739  0.00  0.00    +0.000 A 
ATOM     32  C   UNL     1       2.310   7.404  19.194  0.00  0.00    +0.000 A 
ATOM     33  H   UNL     1       3.050   3.041  18.816  0.00  0.00    +0.000 HD
ENDBRANCH  11  23
BRANCH   1  35
ATOM     34  C   UNL     1      -4.147  17.104  21.147  0.00  0.00    +0.000 C 
ATOM     35  O   UNL     1      -3.817  15.845  21.709  0.00  0.00    +0.000 OA
ENDBRANCH   1  35
TORSDOF 2
ENDMDL
