MODEL 1
REMARK VINA RESULT:      -8.4      0.000      0.000
REMARK  Name = 
REMARK  5 active torsions:
REMARK  status: ('A' for Active; 'I' for Inactive)
REMARK    1  A    between atoms: C_1  and  C_2
REMARK    2  A    between atoms: C_2  and  N_3
REMARK    3  A    between atoms: C_5  and  C_6
REMARK    4  A    between atoms: C_10  and  C_12
REMARK    5  A    between atoms: C_26  and  C_27
REMARK                            x       y       z     vdW  Elec       q    Type
REMARK                         _______ _______ _______ _____ _____    ______ ____
ROOT
ATOM      1  C   UNL     1       0.758   9.430  19.406  0.00  0.00    +0.000 A 
ATOM      2  N   UNL     1       0.234   9.852  20.536  0.00  0.00    +0.000 NA
ATOM      3  C   UNL     1      -0.466  10.962  20.181  0.00  0.00    +0.000 A 
ATOM      4  N   UNL     1      -1.123  11.763  21.065  0.00  0.00    +0.000 N 
ATOM      5  C   UNL     1      -0.982  11.688  22.428  0.00  0.00    +0.000 C 
ATOM      6  O   UNL     1      -0.242  10.948  23.063  0.00  0.00    +0.000 OA
ATOM      7  N   UNL     1      -0.474  11.227  18.873  0.00  0.00    +0.000 NA
ATOM      8  N   UNL     1       0.341  10.265  18.404  0.00  0.00    +0.000 N 
ATOM      9  H   UNL     1      -1.612  12.524  20.622  0.00  0.00    +0.000 HD
ATOM     10  H   UNL     1       0.593  10.230  17.417  0.00  0.00    +0.000 HD
ENDROOT
BRANCH   1  13
ATOM     11  N   UNL     1       2.556   6.226  19.812  0.00  0.00    +0.000 N 
ATOM     12  C   UNL     1       1.706   7.310  19.957  0.00  0.00    +0.000 A 
ATOM     13  C   UNL     1       1.636   8.362  19.129  0.00  0.00    +0.000 A 
ATOM     14  C   UNL     1       2.534   8.348  17.946  0.00  0.00    +0.000 A 
ATOM     15  O   UNL     1       2.444   9.204  17.068  0.00  0.00    +0.000 OA
ATOM     16  C   UNL     1       3.549   7.281  17.868  0.00  0.00    +0.000 A 
ATOM     17  C   UNL     1       4.536   7.336  16.883  0.00  0.00    +0.000 A 
ATOM     18  C   UNL     1       5.485   6.327  16.827  0.00  0.00    +0.000 A 
ATOM     19  C   UNL     1       5.402   5.288  17.745  0.00  0.00    +0.000 A 
ATOM     20  C   UNL     1       6.384   4.155  17.696  0.00  0.00    +0.000 C 
ATOM     21  N   UNL     1       4.439   5.220  18.701  0.00  0.00    +0.000 NA
ATOM     22  C   UNL     1       3.526   6.220  18.784  0.00  0.00    +0.000 A 
BRANCH  11  24
ATOM     23  C   UNL     1       1.169   4.312  20.470  0.00  0.00    +0.000 C 
ATOM     24  C   UNL     1       2.484   5.050  20.684  0.00  0.00    +0.000 C 
ENDBRANCH  11  24
ENDBRANCH   1  13
BRANCH   5  25
ATOM     25  C   UNL     1      -1.790  12.683  23.180  0.00  0.00    +0.000 A 
ATOM     26  C   UNL     1      -3.108  12.407  23.573  0.00  0.00    +0.000 A 
ATOM     27  C   UNL     1      -3.839  13.372  24.267  0.00  0.00    +0.000 A 
ATOM     28  C   UNL     1      -3.249  14.596  24.571  0.00  0.00    +0.000 A 
ATOM     29  F   UNL     1      -3.955  15.519  25.235  0.00  0.00    +0.000 F 
ATOM     30  C   UNL     1      -1.937  14.874  24.202  0.00  0.00    +0.000 A 
ATOM     31  C   UNL     1      -1.202  13.914  23.508  0.00  0.00    +0.000 A 
ENDBRANCH   5  25
TORSDOF 3
ENDMDL
MODEL 2
REMARK VINA RESULT:      -8.2      1.868      2.198
REMARK  Name = 
REMARK  5 active torsions:
REMARK  status: ('A' for Active; 'I' for Inactive)
REMARK    1  A    between atoms: C_1  and  C_2
REMARK    2  A    between atoms: C_2  and  N_3
REMARK    3  A    between atoms: C_5  and  C_6
REMARK    4  A    between atoms: C_10  and  C_12
REMARK    5  A    between atoms: C_26  and  C_27
REMARK                            x       y       z     vdW  Elec       q    Type
REMARK                         _______ _______ _______ _____ _____    ______ ____
ROOT
ATOM      1  C   UNL     1       1.627   8.201  20.368  0.00  0.00    +0.000 A 
ATOM      2  N   UNL     1       0.847   9.227  20.108  0.00  0.00    +0.000 NA
ATOM      3  C   UNL     1       0.505   9.701  21.336  0.00  0.00    +0.000 A 
ATOM      4  N   UNL     1      -0.357  10.735  21.540  0.00  0.00    +0.000 N 
ATOM      5  C   UNL     1      -1.155  11.280  20.565  0.00  0.00    +0.000 C 
ATOM      6  O   UNL     1      -1.260  10.922  19.399  0.00  0.00    +0.000 OA
ATOM      7  N   UNL     1       1.085   9.074  22.361  0.00  0.00    +0.000 NA
ATOM      8  N   UNL     1       1.763   8.101  21.727  0.00  0.00    +0.000 N 
ATOM      9  H   UNL     1      -0.470  10.971  22.512  0.00  0.00    +0.000 HD
ATOM     10  H   UNL     1       2.277   7.396  22.253  0.00  0.00    +0.000 HD
ENDROOT
BRANCH   1  13
ATOM     11  N   UNL     1       2.858   4.955  19.098  0.00  0.00    +0.000 N 
ATOM     12  C   UNL     1       2.249   5.959  19.832  0.00  0.00    +0.000 A 
ATOM     13  C   UNL     1       2.245   7.263  19.516  0.00  0.00    +0.000 A 
ATOM     14  C   UNL     1       2.936   7.653  18.260  0.00  0.00    +0.000 A 
ATOM     15  O   UNL     1       2.869   8.802  17.828  0.00  0.00    +0.000 OA
ATOM     16  C   UNL     1       3.718   6.618  17.558  0.00  0.00    +0.000 A 
ATOM     17  C   UNL     1       4.538   6.979  16.488  0.00  0.00    +0.000 A 
ATOM     18  C   UNL     1       5.269   5.994  15.841  0.00  0.00    +0.000 A 
ATOM     19  C   UNL     1       5.141   4.681  16.275  0.00  0.00    +0.000 A 
ATOM     20  C   UNL     1       5.883   3.579  15.581  0.00  0.00    +0.000 C 
ATOM     21  N   UNL     1       4.338   4.319  17.310  0.00  0.00    +0.000 NA
ATOM     22  C   UNL     1       3.644   5.280  17.968  0.00  0.00    +0.000 A 
BRANCH  11  24
ATOM     23  C   UNL     1       1.351   3.284  20.077  0.00  0.00    +0.000 C 
ATOM     24  C   UNL     1       2.709   3.536  19.434  0.00  0.00    +0.000 C 
ENDBRANCH  11  24
ENDBRANCH   1  13
BRANCH   5  25
ATOM     25  C   UNL     1      -2.025  12.388  21.039  0.00  0.00    +0.000 A 
ATOM     26  C   UNL     1      -3.183  12.758  20.339  0.00  0.00    +0.000 A 
ATOM     27  C   UNL     1      -3.967  13.813  20.809  0.00  0.00    +0.000 A 
ATOM     28  C   UNL     1      -3.596  14.481  21.973  0.00  0.00    +0.000 A 
ATOM     29  F   UNL     1      -4.351  15.492  22.418  0.00  0.00    +0.000 F 
ATOM     30  C   UNL     1      -2.461  14.111  22.685  0.00  0.00    +0.000 A 
ATOM     31  C   UNL     1      -1.673  13.058  22.220  0.00  0.00    +0.000 A 
ENDBRANCH   5  25
TORSDOF 3
ENDMDL
MODEL 3
REMARK VINA RESULT:      -8.2      4.227      9.493
REMARK  Name = 
REMARK  5 active torsions:
REMARK  status: ('A' for Active; 'I' for Inactive)
REMARK    1  A    between atoms: C_1  and  C_2
REMARK    2  A    between atoms: C_2  and  N_3
REMARK    3  A    between atoms: C_5  and  C_6
REMARK    4  A    between atoms: C_10  and  C_12
REMARK    5  A    between atoms: C_26  and  C_27
REMARK                            x       y       z     vdW  Elec       q    Type
REMARK                         _______ _______ _______ _____ _____    ______ ____
ROOT
ATOM      1  C   UNL     1       1.432   9.954  19.021  0.00  0.00    +0.000 A 
ATOM      2  N   UNL     1       1.731   8.750  19.455  0.00  0.00    +0.000 NA
ATOM      3  C   UNL     1       2.136   8.088  18.339  0.00  0.00    +0.000 A 
ATOM      4  N   UNL     1       2.481   6.770  18.319  0.00  0.00    +0.000 N 
ATOM      5  C   UNL     1       2.254   5.895  19.351  0.00  0.00    +0.000 C 
ATOM      6  O   UNL     1       1.687   6.123  20.412  0.00  0.00    +0.000 OA
ATOM      7  N   UNL     1       2.181   8.829  17.231  0.00  0.00    +0.000 NA
ATOM      8  N   UNL     1       1.694  10.001  17.677  0.00  0.00    +0.000 N 
ATOM      9  H   UNL     1       2.785   6.454  17.412  0.00  0.00    +0.000 HD
ATOM     10  H   UNL     1       1.542  10.780  17.039  0.00  0.00    +0.000 HD
ENDROOT
BRANCH   1  13
ATOM     11  N   UNL     1      -0.491  11.938  21.476  0.00  0.00    +0.000 N 
ATOM     12  C   UNL     1       0.123  10.918  20.768  0.00  0.00    +0.000 A 
ATOM     13  C   UNL     1       0.897  11.077  19.685  0.00  0.00    +0.000 A 
ATOM     14  C   UNL     1       1.129  12.469  19.223  0.00  0.00    +0.000 A 
ATOM     15  O   UNL     1       1.928  12.715  18.321  0.00  0.00    +0.000 OA
ATOM     16  C   UNL     1       0.356  13.545  19.871  0.00  0.00    +0.000 A 
ATOM     17  C   UNL     1       0.394  14.837  19.345  0.00  0.00    +0.000 A 
ATOM     18  C   UNL     1      -0.342  15.835  19.965  0.00  0.00    +0.000 A 
ATOM     19  C   UNL     1      -1.074  15.511  21.100  0.00  0.00    +0.000 A 
ATOM     20  C   UNL     1      -1.853  16.568  21.825  0.00  0.00    +0.000 C 
ATOM     21  N   UNL     1      -1.109  14.258  21.625  0.00  0.00    +0.000 NA
ATOM     22  C   UNL     1      -0.418  13.269  21.007  0.00  0.00    +0.000 A 
BRANCH  11  24
ATOM     23  C   UNL     1      -0.934  10.293  23.243  0.00  0.00    +0.000 C 
ATOM     24  C   UNL     1      -1.215  11.699  22.729  0.00  0.00    +0.000 C 
ENDBRANCH  11  24
ENDBRANCH   1  13
BRANCH   5  25
ATOM     25  C   UNL     1       2.703   4.504  19.082  0.00  0.00    +0.000 A 
ATOM     26  C   UNL     1       3.610   3.852  19.930  0.00  0.00    +0.000 A 
ATOM     27  C   UNL     1       4.018   2.551  19.637  0.00  0.00    +0.000 A 
ATOM     28  C   UNL     1       3.512   1.908  18.510  0.00  0.00    +0.000 A 
ATOM     29  F   UNL     1       3.908   0.660  18.233  0.00  0.00    +0.000 F 
ATOM     30  C   UNL     1       2.598   2.538  17.672  0.00  0.00    +0.000 A 
ATOM     31  C   UNL     1       2.187   3.839  17.960  0.00  0.00    +0.000 A 
ENDBRANCH   5  25
TORSDOF 3
ENDMDL
MODEL 4
REMARK VINA RESULT:      -8.1      4.143      9.393
REMARK  Name = 
REMARK  5 active torsions:
REMARK  status: ('A' for Active; 'I' for Inactive)
REMARK    1  A    between atoms: C_1  and  C_2
REMARK    2  A    between atoms: C_2  and  N_3
REMARK    3  A    between atoms: C_5  and  C_6
REMARK    4  A    between atoms: C_10  and  C_12
REMARK    5  A    between atoms: C_26  and  C_27
REMARK                            x       y       z     vdW  Elec       q    Type
REMARK                         _______ _______ _______ _____ _____    ______ ____
ROOT
ATOM      1  C   UNL     1       1.090  10.481  19.001  0.00  0.00    +0.000 A 
ATOM      2  N   UNL     1       1.462   9.387  19.629  0.00  0.00    +0.000 NA
ATOM      3  C   UNL     1       1.980   8.602  18.647  0.00  0.00    +0.000 A 
ATOM      4  N   UNL     1       2.432   7.333  18.846  0.00  0.00    +0.000 N 
ATOM      5  C   UNL     1       2.221   6.608  19.992  0.00  0.00    +0.000 C 
ATOM      6  O   UNL     1       1.582   6.943  20.981  0.00  0.00    +0.000 OA
ATOM      7  N   UNL     1       2.023   9.167  17.440  0.00  0.00    +0.000 NA
ATOM      8  N   UNL     1       1.419  10.346  17.678  0.00  0.00    +0.000 N 
ATOM      9  H   UNL     1       2.809   6.912  18.013  0.00  0.00    +0.000 HD
ATOM     10  H   UNL     1       1.239  11.002  16.920  0.00  0.00    +0.000 HD
ENDROOT
BRANCH   1  13
ATOM     11  N   UNL     1      -1.320  12.599  20.836  0.00  0.00    +0.000 N 
ATOM     12  C   UNL     1      -0.572  11.541  20.346  0.00  0.00    +0.000 A 
ATOM     13  C   UNL     1       0.429  11.639  19.459  0.00  0.00    +0.000 A 
ATOM     14  C   UNL     1       0.774  13.002  18.982  0.00  0.00    +0.000 A 
ATOM     15  O   UNL     1       1.760  13.197  18.272  0.00  0.00    +0.000 OA
ATOM     16  C   UNL     1      -0.114  14.112  19.375  0.00  0.00    +0.000 A 
ATOM     17  C   UNL     1       0.055  15.370  18.797  0.00  0.00    +0.000 A 
ATOM     18  C   UNL     1      -0.791  16.402  19.174  0.00  0.00    +0.000 A 
ATOM     19  C   UNL     1      -1.764  16.143  20.130  0.00  0.00    +0.000 A 
ATOM     20  C   UNL     1      -2.677  17.238  20.597  0.00  0.00    +0.000 C 
ATOM     21  N   UNL     1      -1.931  14.923  20.706  0.00  0.00    +0.000 NA
ATOM     22  C   UNL     1      -1.128  13.901  20.319  0.00  0.00    +0.000 A 
BRANCH  11  24
ATOM     23  C   UNL     1      -1.752  11.550  23.012  0.00  0.00    +0.000 C 
ATOM     24  C   UNL     1      -2.311  12.433  21.903  0.00  0.00    +0.000 C 
ENDBRANCH  11  24
ENDBRANCH   1  13
BRANCH   5  25
ATOM     25  C   UNL     1       2.797   5.238  19.962  0.00  0.00    +0.000 A 
ATOM     26  C   UNL     1       2.231   4.191  20.704  0.00  0.00    +0.000 A 
ATOM     27  C   UNL     1       2.809   2.922  20.659  0.00  0.00    +0.000 A 
ATOM     28  C   UNL     1       3.935   2.705  19.870  0.00  0.00    +0.000 A 
ATOM     29  F   UNL     1       4.485   1.485  19.832  0.00  0.00    +0.000 F 
ATOM     30  C   UNL     1       4.493   3.731  19.115  0.00  0.00    +0.000 A 
ATOM     31  C   UNL     1       3.920   5.002  19.156  0.00  0.00    +0.000 A 
ENDBRANCH   5  25
TORSDOF 3
ENDMDL
MODEL 5
REMARK VINA RESULT:      -8.1      4.169      9.729
REMARK  Name = 
REMARK  5 active torsions:
REMARK  status: ('A' for Active; 'I' for Inactive)
REMARK    1  A    between atoms: C_1  and  C_2
REMARK    2  A    between atoms: C_2  and  N_3
REMARK    3  A    between atoms: C_5  and  C_6
REMARK    4  A    between atoms: C_10  and  C_12
REMARK    5  A    between atoms: C_26  and  C_27
REMARK                            x       y       z     vdW  Elec       q    Type
REMARK                         _______ _______ _______ _____ _____    ______ ____
ROOT
ATOM      1  C   UNL     1       1.451   9.939  19.186  0.00  0.00    +0.000 A 
ATOM      2  N   UNL     1       1.757   8.720  19.571  0.00  0.00    +0.000 NA
ATOM      3  C   UNL     1       2.105   8.088  18.419  0.00  0.00    +0.000 A 
ATOM      4  N   UNL     1       2.436   6.769  18.344  0.00  0.00    +0.000 N 
ATOM      5  C   UNL     1       2.246   5.866  19.359  0.00  0.00    +0.000 C 
ATOM      6  O   UNL     1       1.730   6.066  20.451  0.00  0.00    +0.000 OA
ATOM      7  N   UNL     1       2.108   8.861  17.332  0.00  0.00    +0.000 NA
ATOM      8  N   UNL     1       1.653  10.024  17.834  0.00  0.00    +0.000 N 
ATOM      9  H   UNL     1       2.696   6.478  17.415  0.00  0.00    +0.000 HD
ATOM     10  H   UNL     1       1.480  10.823  17.226  0.00  0.00    +0.000 HD
ENDROOT
BRANCH   1  13
ATOM     11  N   UNL     1       1.132  13.408  20.423  0.00  0.00    +0.000 N 
ATOM     12  C   UNL     1       1.503  12.260  19.743  0.00  0.00    +0.000 A 
ATOM     13  C   UNL     1       0.957  11.046  19.907  0.00  0.00    +0.000 A 
ATOM     14  C   UNL     1      -0.154  10.935  20.886  0.00  0.00    +0.000 A 
ATOM     15  O   UNL     1      -0.797   9.893  21.003  0.00  0.00    +0.000 OA
ATOM     16  C   UNL     1      -0.450  12.111  21.725  0.00  0.00    +0.000 A 
ATOM     17  C   UNL     1      -1.348  11.995  22.786  0.00  0.00    +0.000 A 
ATOM     18  C   UNL     1      -1.611  13.110  23.567  0.00  0.00    +0.000 A 
ATOM     19  C   UNL     1      -0.982  14.306  23.248  0.00  0.00    +0.000 A 
ATOM     20  C   UNL     1      -1.266  15.546  24.042  0.00  0.00    +0.000 C 
ATOM     21  N   UNL     1      -0.113  14.431  22.210  0.00  0.00    +0.000 NA
ATOM     22  C   UNL     1       0.175  13.338  21.461  0.00  0.00    +0.000 A 
BRANCH  11  24
ATOM     23  C   UNL     1       1.018  15.284  18.845  0.00  0.00    +0.000 C 
ATOM     24  C   UNL     1       1.683  14.727  20.097  0.00  0.00    +0.000 C 
ENDBRANCH  11  24
ENDBRANCH   1  13
BRANCH   5  25
ATOM     25  C   UNL     1       2.669   4.479  19.029  0.00  0.00    +0.000 A 
ATOM     26  C   UNL     1       1.982   3.712  18.077  0.00  0.00    +0.000 A 
ATOM     27  C   UNL     1       2.403   2.410  17.805  0.00  0.00    +0.000 A 
ATOM     28  C   UNL     1       3.507   1.889  18.474  0.00  0.00    +0.000 A 
ATOM     29  F   UNL     1       3.905   0.639  18.209  0.00  0.00    +0.000 F 
ATOM     30  C   UNL     1       4.207   2.647  19.406  0.00  0.00    +0.000 A 
ATOM     31  C   UNL     1       3.792   3.949  19.682  0.00  0.00    +0.000 A 
ENDBRANCH   5  25
TORSDOF 3
ENDMDL
MODEL 6
REMARK VINA RESULT:      -8.1      4.075      9.642
REMARK  Name = 
REMARK  5 active torsions:
REMARK  status: ('A' for Active; 'I' for Inactive)
REMARK    1  A    between atoms: C_1  and  C_2
REMARK    2  A    between atoms: C_2  and  N_3
REMARK    3  A    between atoms: C_5  and  C_6
REMARK    4  A    between atoms: C_10  and  C_12
REMARK    5  A    between atoms: C_26  and  C_27
REMARK                            x       y       z     vdW  Elec       q    Type
REMARK                         _______ _______ _______ _____ _____    ______ ____
ROOT
ATOM      1  C   UNL     1       0.861  10.163  19.084  0.00  0.00    +0.000 A 
ATOM      2  N   UNL     1       1.277   9.070  19.685  0.00  0.00    +0.000 NA
ATOM      3  C   UNL     1       1.975   8.410  18.724  0.00  0.00    +0.000 A 
ATOM      4  N   UNL     1       2.534   7.180  18.898  0.00  0.00    +0.000 N 
ATOM      5  C   UNL     1       2.280   6.360  19.968  0.00  0.00    +0.000 C 
ATOM      6  O   UNL     1       1.508   6.561  20.897  0.00  0.00    +0.000 OA
ATOM      7  N   UNL     1       2.088   9.059  17.564  0.00  0.00    +0.000 NA
ATOM      8  N   UNL     1       1.341  10.153  17.801  0.00  0.00    +0.000 N 
ATOM      9  H   UNL     1       3.040   6.856  18.089  0.00  0.00    +0.000 HD
ATOM     10  H   UNL     1       1.175  10.840  17.068  0.00  0.00    +0.000 HD
ENDROOT
BRANCH   1  13
ATOM     11  N   UNL     1      -0.191  13.213  20.888  0.00  0.00    +0.000 N 
ATOM     12  C   UNL     1       0.528  12.159  20.351  0.00  0.00    +0.000 A 
ATOM     13  C   UNL     1       0.038  11.216  19.532  0.00  0.00    +0.000 A 
ATOM     14  C   UNL     1      -1.394  11.331  19.156  0.00  0.00    +0.000 A 
ATOM     15  O   UNL     1      -1.891  10.590  18.310  0.00  0.00    +0.000 OA
ATOM     16  C   UNL     1      -2.204  12.354  19.844  0.00  0.00    +0.000 A 
ATOM     17  C   UNL     1      -3.588  12.372  19.669  0.00  0.00    +0.000 A 
ATOM     18  C   UNL     1      -4.335  13.338  20.327  0.00  0.00    +0.000 A 
ATOM     19  C   UNL     1      -3.669  14.263  21.120  0.00  0.00    +0.000 A 
ATOM     20  C   UNL     1      -4.432  15.349  21.819  0.00  0.00    +0.000 C 
ATOM     21  N   UNL     1      -2.321  14.259  21.289  0.00  0.00    +0.000 NA
ATOM     22  C   UNL     1      -1.586  13.298  20.675  0.00  0.00    +0.000 A 
BRANCH  11  24
ATOM     23  C   UNL     1       1.917  14.399  21.303  0.00  0.00    +0.000 C 
ATOM     24  C   UNL     1       0.442  14.280  21.669  0.00  0.00    +0.000 C 
ENDBRANCH  11  24
ENDBRANCH   1  13
BRANCH   5  25
ATOM     25  C   UNL     1       2.996   5.058  19.923  0.00  0.00    +0.000 A 
ATOM     26  C   UNL     1       4.196   4.908  19.214  0.00  0.00    +0.000 A 
ATOM     27  C   UNL     1       4.831   3.666  19.185  0.00  0.00    +0.000 A 
ATOM     28  C   UNL     1       4.272   2.590  19.869  0.00  0.00    +0.000 A 
ATOM     29  F   UNL     1       4.885   1.401  19.837  0.00  0.00    +0.000 F 
ATOM     30  C   UNL     1       3.092   2.732  20.591  0.00  0.00    +0.000 A 
ATOM     31  C   UNL     1       2.453   3.971  20.624  0.00  0.00    +0.000 A 
ENDBRANCH   5  25
TORSDOF 3
ENDMDL
MODEL 7
REMARK VINA RESULT:      -8.1      2.535      4.559
REMARK  Name = 
REMARK  5 active torsions:
REMARK  status: ('A' for Active; 'I' for Inactive)
REMARK    1  A    between atoms: C_1  and  C_2
REMARK    2  A    between atoms: C_2  and  N_3
REMARK    3  A    between atoms: C_5  and  C_6
REMARK    4  A    between atoms: C_10  and  C_12
REMARK    5  A    between atoms: C_26  and  C_27
REMARK                            x       y       z     vdW  Elec       q    Type
REMARK                         _______ _______ _______ _____ _____    ______ ____
ROOT
ATOM      1  C   UNL     1       3.351   6.385  19.014  0.00  0.00    +0.000 A 
ATOM      2  N   UNL     1       2.828   7.537  19.372  0.00  0.00    +0.000 NA
ATOM      3  C   UNL     1       1.892   7.201  20.299  0.00  0.00    +0.000 A 
ATOM      4  N   UNL     1       1.054   8.094  20.894  0.00  0.00    +0.000 N 
ATOM      5  C   UNL     1       0.890   9.393  20.482  0.00  0.00    +0.000 C 
ATOM      6  O   UNL     1       1.414   9.944  19.523  0.00  0.00    +0.000 OA
ATOM      7  N   UNL     1       1.843   5.903  20.602  0.00  0.00    +0.000 NA
ATOM      8  N   UNL     1       2.751   5.397  19.748  0.00  0.00    +0.000 N 
ATOM      9  H   UNL     1       0.446   7.673  21.578  0.00  0.00    +0.000 HD
ATOM     10  H   UNL     1       2.909   4.393  19.689  0.00  0.00    +0.000 HD
ENDROOT
BRANCH   1  13
ATOM     11  N   UNL     1       6.497   6.536  17.079  0.00  0.00    +0.000 N 
ATOM     12  C   UNL     1       5.488   6.731  18.007  0.00  0.00    +0.000 A 
ATOM     13  C   UNL     1       4.324   6.066  18.044  0.00  0.00    +0.000 A 
ATOM     14  C   UNL     1       4.114   5.019  17.012  0.00  0.00    +0.000 A 
ATOM     15  O   UNL     1       3.137   4.274  17.051  0.00  0.00    +0.000 OA
ATOM     16  C   UNL     1       5.110   4.912  15.930  0.00  0.00    +0.000 A 
ATOM     17  C   UNL     1       4.859   4.080  14.838  0.00  0.00    +0.000 A 
ATOM     18  C   UNL     1       5.805   3.995  13.828  0.00  0.00    +0.000 A 
ATOM     19  C   UNL     1       6.976   4.731  13.954  0.00  0.00    +0.000 A 
ATOM     20  C   UNL     1       8.044   4.639  12.904  0.00  0.00    +0.000 C 
ATOM     21  N   UNL     1       7.234   5.536  15.018  0.00  0.00    +0.000 NA
ATOM     22  C   UNL     1       6.301   5.649  15.995  0.00  0.00    +0.000 A 
BRANCH  11  24
ATOM     23  C   UNL     1       7.622   8.622  17.716  0.00  0.00    +0.000 C 
ATOM     24  C   UNL     1       7.797   7.206  17.180  0.00  0.00    +0.000 C 
ENDBRANCH  11  24
ENDBRANCH   1  13
BRANCH   5  25
ATOM     25  C   UNL     1      -0.096  10.166  21.282  0.00  0.00    +0.000 A 
ATOM     26  C   UNL     1      -0.790  11.254  20.732  0.00  0.00    +0.000 A 
ATOM     27  C   UNL     1      -1.699  11.963  21.519  0.00  0.00    +0.000 A 
ATOM     28  C   UNL     1      -1.914  11.577  22.839  0.00  0.00    +0.000 A 
ATOM     29  F   UNL     1      -2.786  12.261  23.589  0.00  0.00    +0.000 F 
ATOM     30  C   UNL     1      -1.246  10.488  23.389  0.00  0.00    +0.000 A 
ATOM     31  C   UNL     1      -0.336   9.776  22.608  0.00  0.00    +0.000 A 
ENDBRANCH   5  25
TORSDOF 3
ENDMDL
MODEL 8
REMARK VINA RESULT:      -8.0      4.684      9.942
REMARK  Name = 
REMARK  5 active torsions:
REMARK  status: ('A' for Active; 'I' for Inactive)
REMARK    1  A    between atoms: C_1  and  C_2
REMARK    2  A    between atoms: C_2  and  N_3
REMARK    3  A    between atoms: C_5  and  C_6
REMARK    4  A    between atoms: C_10  and  C_12
REMARK    5  A    between atoms: C_26  and  C_27
REMARK                            x       y       z     vdW  Elec       q    Type
REMARK                         _______ _______ _______ _____ _____    ______ ____
ROOT
ATOM      1  C   UNL     1       0.077  10.395  18.124  0.00  0.00    +0.000 A 
ATOM      2  N   UNL     1       0.698   9.237  18.189  0.00  0.00    +0.000 NA
ATOM      3  C   UNL     1       2.016   9.567  18.136  0.00  0.00    +0.000 A 
ATOM      4  N   UNL     1       3.028   8.656  18.109  0.00  0.00    +0.000 N 
ATOM      5  C   UNL     1       2.852   7.311  17.905  0.00  0.00    +0.000 C 
ATOM      6  O   UNL     1       1.803   6.720  17.681  0.00  0.00    +0.000 OA
ATOM      7  N   UNL     1       2.268  10.877  18.116  0.00  0.00    +0.000 NA
ATOM      8  N   UNL     1       1.022  11.384  18.071  0.00  0.00    +0.000 N 
ATOM      9  H   UNL     1       3.942   9.079  18.101  0.00  0.00    +0.000 HD
ATOM     10  H   UNL     1       0.871  12.388  17.985  0.00  0.00    +0.000 HD
ENDROOT
BRANCH   1  13
ATOM     11  N   UNL     1      -3.342  10.778  16.773  0.00  0.00    +0.000 N 
ATOM     12  C   UNL     1      -2.004  10.472  16.958  0.00  0.00    +0.000 A 
ATOM     13  C   UNL     1      -1.296  10.712  18.071  0.00  0.00    +0.000 A 
ATOM     14  C   UNL     1      -2.019  11.341  19.205  0.00  0.00    +0.000 A 
ATOM     15  O   UNL     1      -1.484  11.476  20.304  0.00  0.00    +0.000 OA
ATOM     16  C   UNL     1      -3.396  11.812  18.965  0.00  0.00    +0.000 A 
ATOM     17  C   UNL     1      -4.043  12.578  19.934  0.00  0.00    +0.000 A 
ATOM     18  C   UNL     1      -5.336  13.016  19.690  0.00  0.00    +0.000 A 
ATOM     19  C   UNL     1      -5.942  12.657  18.494  0.00  0.00    +0.000 A 
ATOM     20  C   UNL     1      -7.353  13.075  18.204  0.00  0.00    +0.000 C 
ATOM     21  N   UNL     1      -5.323  11.902  17.548  0.00  0.00    +0.000 NA
ATOM     22  C   UNL     1      -4.047  11.497  17.765  0.00  0.00    +0.000 A 
BRANCH  11  24
ATOM     23  C   UNL     1      -3.124  10.089  14.427  0.00  0.00    +0.000 C 
ATOM     24  C   UNL     1      -4.084  10.365  15.577  0.00  0.00    +0.000 C 
ENDBRANCH  11  24
ENDBRANCH   1  13
BRANCH   5  25
ATOM     25  C   UNL     1       4.113   6.524  17.899  0.00  0.00    +0.000 A 
ATOM     26  C   UNL     1       5.134   6.786  16.973  0.00  0.00    +0.000 A 
ATOM     27  C   UNL     1       6.298   6.017  16.992  0.00  0.00    +0.000 A 
ATOM     28  C   UNL     1       6.439   5.004  17.936  0.00  0.00    +0.000 A 
ATOM     29  F   UNL     1       7.557   4.268  17.948  0.00  0.00    +0.000 F 
ATOM     30  C   UNL     1       5.442   4.748  18.872  0.00  0.00    +0.000 A 
ATOM     31  C   UNL     1       4.276   5.513  18.858  0.00  0.00    +0.000 A 
ENDBRANCH   5  25
TORSDOF 3
ENDMDL
MODEL 9
REMARK VINA RESULT:      -8.0      3.918      9.917
REMARK  Name = 
REMARK  5 active torsions:
REMARK  status: ('A' for Active; 'I' for Inactive)
REMARK    1  A    between atoms: C_1  and  C_2
REMARK    2  A    between atoms: C_2  and  N_3
REMARK    3  A    between atoms: C_5  and  C_6
REMARK    4  A    between atoms: C_10  and  C_12
REMARK    5  A    between atoms: C_26  and  C_27
REMARK                            x       y       z     vdW  Elec       q    Type
REMARK                         _______ _______ _______ _____ _____    ______ ____
ROOT
ATOM      1  C   UNL     1       0.696  10.628  19.042  0.00  0.00    +0.000 A 
ATOM      2  N   UNL     1       1.232   9.427  19.045  0.00  0.00    +0.000 NA
ATOM      3  C   UNL     1       2.203   9.497  18.097  0.00  0.00    +0.000 A 
ATOM      4  N   UNL     1       2.977   8.442  17.719  0.00  0.00    +0.000 N 
ATOM      5  C   UNL     1       2.732   7.139  18.073  0.00  0.00    +0.000 C 
ATOM      6  O   UNL     1       1.793   6.706  18.729  0.00  0.00    +0.000 OA
ATOM      7  N   UNL     1       2.362  10.700  17.543  0.00  0.00    +0.000 NA
ATOM      8  N   UNL     1       1.370  11.394  18.130  0.00  0.00    +0.000 N 
ATOM      9  H   UNL     1       3.665   8.683  17.025  0.00  0.00    +0.000 HD
ATOM     10  H   UNL     1       1.183  12.360  17.867  0.00  0.00    +0.000 HD
ENDROOT
BRANCH   1  13
ATOM     11  N   UNL     1      -2.683  11.965  19.721  0.00  0.00    +0.000 N 
ATOM     12  C   UNL     1      -1.559  11.406  19.136  0.00  0.00    +0.000 A 
ATOM     13  C   UNL     1      -0.396  11.161  19.758  0.00  0.00    +0.000 A 
ATOM     14  C   UNL     1      -0.321  11.499  21.201  0.00  0.00    +0.000 A 
ATOM     15  O   UNL     1       0.657  11.188  21.878  0.00  0.00    +0.000 OA
ATOM     16  C   UNL     1      -1.454  12.236  21.793  0.00  0.00    +0.000 A 
ATOM     17  C   UNL     1      -1.347  12.744  23.088  0.00  0.00    +0.000 A 
ATOM     18  C   UNL     1      -2.420  13.438  23.627  0.00  0.00    +0.000 A 
ATOM     19  C   UNL     1      -3.568  13.583  22.860  0.00  0.00    +0.000 A 
ATOM     20  C   UNL     1      -4.766  14.292  23.417  0.00  0.00    +0.000 C 
ATOM     21  N   UNL     1      -3.685  13.083  21.601  0.00  0.00    +0.000 NA
ATOM     22  C   UNL     1      -2.629  12.431  21.055  0.00  0.00    +0.000 A 
BRANCH  11  24
ATOM     23  C   UNL     1      -4.078  10.998  17.948  0.00  0.00    +0.000 C 
ATOM     24  C   UNL     1      -3.961  12.081  19.013  0.00  0.00    +0.000 C 
ENDBRANCH  11  24
ENDBRANCH   1  13
BRANCH   5  25
ATOM     25  C   UNL     1       3.708   6.163  17.521  0.00  0.00    +0.000 A 
ATOM     26  C   UNL     1       3.560   4.784  17.729  0.00  0.00    +0.000 A 
ATOM     27  C   UNL     1       4.505   3.901  17.204  0.00  0.00    +0.000 A 
ATOM     28  C   UNL     1       5.579   4.397  16.471  0.00  0.00    +0.000 A 
ATOM     29  F   UNL     1       6.483   3.546  15.971  0.00  0.00    +0.000 F 
ATOM     30  C   UNL     1       5.726   5.761  16.242  0.00  0.00    +0.000 A 
ATOM     31  C   UNL     1       4.785   6.649  16.764  0.00  0.00    +0.000 A 
ENDBRANCH   5  25
TORSDOF 3
ENDMDL
