MODEL 1
REMARK VINA RESULT:      -8.6      0.000      0.000
REMARK  Name = 
REMARK  2 active torsions:
REMARK  status: ('A' for Active; 'I' for Inactive)
REMARK    1  A    between atoms: C_2  and  C_5
REMARK    2  A    between atoms: C_8  and  C_9
REMARK                            x       y       z     vdW  Elec       q    Type
REMARK                         _______ _______ _______ _____ _____    ______ ____
ROOT
ATOM      1  C   UNL     1       2.572   7.396  18.737  0.00  0.00    +0.000 A 
ATOM      2  N   UNL     1       1.893   8.443  18.309  0.00  0.00    +0.000 NA
ATOM      3  C   UNL     1       1.245   8.948  19.398  0.00  0.00    +0.000 A 
ATOM      4  C   UNL     1       0.493  10.115  19.484  0.00  0.00    +0.000 A 
ATOM      5  C   UNL     1      -0.038  10.471  20.728  0.00  0.00    +0.000 A 
ATOM      6  C   UNL     1      -0.683  11.699  20.874  0.00  0.00    +0.000 A 
ATOM      7  C   UNL     1      -1.243  12.038  22.095  0.00  0.00    +0.000 A 
ATOM      8  C   UNL     1      -1.162  11.110  23.116  0.00  0.00    +0.000 A 
ATOM      9  N   UNL     1      -0.502   9.930  23.024  0.00  0.00    +0.000 NA
ATOM     10  C   UNL     1       0.083   9.621  21.854  0.00  0.00    +0.000 A 
ATOM     11  C   UNL     1       0.850   8.457  21.748  0.00  0.00    +0.000 A 
ATOM     12  C   UNL     1       1.446   8.160  20.512  0.00  0.00    +0.000 A 
ATOM     13  N   UNL     1       2.301   7.177  20.076  0.00  0.00    +0.000 N 
ATOM     14  H   UNL     1       2.712   6.454  20.647  0.00  0.00    +0.000 HD
ENDROOT
BRANCH   1  18
ATOM     15  C   UNL     1       5.124   5.069  16.188  0.00  0.00    +0.000 A 
ATOM     16  C   UNL     1       4.186   4.463  17.028  0.00  0.00    +0.000 A 
ATOM     17  C   UNL     1       3.393   5.247  17.866  0.00  0.00    +0.000 A 
ATOM     18  C   UNL     1       3.508   6.649  17.892  0.00  0.00    +0.000 A 
ATOM     19  C   UNL     1       4.463   7.252  17.069  0.00  0.00    +0.000 A 
ATOM     20  C   UNL     1       5.262   6.466  16.225  0.00  0.00    +0.000 A 
BRANCH  15  22
ATOM     21  F   UNL     1       5.964   2.913  15.527  0.00  0.00    +0.000 F 
ATOM     22  C   UNL     1       5.962   4.246  15.241  0.00  0.00    +0.000 C 
ATOM     23  F   UNL     1       7.268   4.628  15.236  0.00  0.00    +0.000 F 
ATOM     24  F   UNL     1       5.537   4.348  13.951  0.00  0.00    +0.000 F 
ENDBRANCH  15  22
ENDBRANCH   1  18
TORSDOF 2
ENDMDL
MODEL 2
REMARK VINA RESULT:      -8.6      0.446      1.112
REMARK  Name = 
REMARK  2 active torsions:
REMARK  status: ('A' for Active; 'I' for Inactive)
REMARK    1  A    between atoms: C_2  and  C_5
REMARK    2  A    between atoms: C_8  and  C_9
REMARK                            x       y       z     vdW  Elec       q    Type
REMARK                         _______ _______ _______ _____ _____    ______ ____
ROOT
ATOM      1  C   UNL     1       2.528   7.343  18.784  0.00  0.00    +0.000 A 
ATOM      2  N   UNL     1       1.914   8.425  18.343  0.00  0.00    +0.000 NA
ATOM      3  C   UNL     1       1.267   8.961  19.417  0.00  0.00    +0.000 A 
ATOM      4  C   UNL     1       0.574  10.165  19.489  0.00  0.00    +0.000 A 
ATOM      5  C   UNL     1       0.031  10.544  20.721  0.00  0.00    +0.000 A 
ATOM      6  C   UNL     1      -0.553  11.804  20.856  0.00  0.00    +0.000 A 
ATOM      7  C   UNL     1      -1.124  12.168  22.064  0.00  0.00    +0.000 A 
ATOM      8  C   UNL     1      -1.117  11.235  23.083  0.00  0.00    +0.000 A 
ATOM      9  N   UNL     1      -0.517  10.023  23.002  0.00  0.00    +0.000 NA
ATOM     10  C   UNL     1       0.080   9.686  21.846  0.00  0.00    +0.000 A 
ATOM     11  C   UNL     1       0.788   8.485  21.755  0.00  0.00    +0.000 A 
ATOM     12  C   UNL     1       1.398   8.160  20.533  0.00  0.00    +0.000 A 
ATOM     13  N   UNL     1       2.212   7.135  20.114  0.00  0.00    +0.000 N 
ATOM     14  H   UNL     1       2.570   6.390  20.693  0.00  0.00    +0.000 HD
ENDROOT
BRANCH   1  18
ATOM     15  C   UNL     1       5.394   5.172  16.438  0.00  0.00    +0.000 A 
ATOM     16  C   UNL     1       5.342   6.568  16.416  0.00  0.00    +0.000 A 
ATOM     17  C   UNL     1       4.379   7.242  17.167  0.00  0.00    +0.000 A 
ATOM     18  C   UNL     1       3.444   6.551  17.959  0.00  0.00    +0.000 A 
ATOM     19  C   UNL     1       3.481   5.154  17.962  0.00  0.00    +0.000 A 
ATOM     20  C   UNL     1       4.448   4.473  17.207  0.00  0.00    +0.000 A 
BRANCH  15  22
ATOM     21  F   UNL     1       6.059   3.185  15.256  0.00  0.00    +0.000 F 
ATOM     22  C   UNL     1       6.453   4.423  15.669  0.00  0.00    +0.000 C 
ATOM     23  F   UNL     1       7.587   4.230  16.396  0.00  0.00    +0.000 F 
ATOM     24  F   UNL     1       6.838   5.084  14.542  0.00  0.00    +0.000 F 
ENDBRANCH  15  22
ENDBRANCH   1  18
TORSDOF 2
ENDMDL
MODEL 3
REMARK VINA RESULT:      -8.5      0.696      2.005
REMARK  Name = 
REMARK  2 active torsions:
REMARK  status: ('A' for Active; 'I' for Inactive)
REMARK    1  A    between atoms: C_2  and  C_5
REMARK    2  A    between atoms: C_8  and  C_9
REMARK                            x       y       z     vdW  Elec       q    Type
REMARK                         _______ _______ _______ _____ _____    ______ ____
ROOT
ATOM      1  C   UNL     1       2.731   7.455  18.511  0.00  0.00    +0.000 A 
ATOM      2  N   UNL     1       2.536   7.231  19.797  0.00  0.00    +0.000 NA
ATOM      3  C   UNL     1       1.712   8.225  20.236  0.00  0.00    +0.000 A 
ATOM      4  C   UNL     1       1.127   8.364  21.491  0.00  0.00    +0.000 A 
ATOM      5  C   UNL     1       0.265   9.445  21.704  0.00  0.00    +0.000 A 
ATOM      6  C   UNL     1      -0.439   9.536  22.905  0.00  0.00    +0.000 A 
ATOM      7  C   UNL     1      -1.265  10.624  23.134  0.00  0.00    +0.000 A 
ATOM      8  C   UNL     1      -1.325  11.599  22.157  0.00  0.00    +0.000 A 
ATOM      9  N   UNL     1      -0.694  11.519  20.960  0.00  0.00    +0.000 NA
ATOM     10  C   UNL     1       0.070  10.441  20.717  0.00  0.00    +0.000 A 
ATOM     11  C   UNL     1       0.661  10.278  19.460  0.00  0.00    +0.000 A 
ATOM     12  C   UNL     1       1.456   9.143  19.238  0.00  0.00    +0.000 A 
ATOM     13  N   UNL     1       2.108   8.633  18.141  0.00  0.00    +0.000 N 
ATOM     14  H   UNL     1       2.085   9.017  17.208  0.00  0.00    +0.000 HD
ENDROOT
BRANCH   1  18
ATOM     15  C   UNL     1       5.071   4.873  16.004  0.00  0.00    +0.000 A 
ATOM     16  C   UNL     1       5.189   6.263  15.930  0.00  0.00    +0.000 A 
ATOM     17  C   UNL     1       4.393   7.075  16.738  0.00  0.00    +0.000 A 
ATOM     18  C   UNL     1       3.460   6.530  17.640  0.00  0.00    +0.000 A 
ATOM     19  C   UNL     1       3.325   5.140  17.696  0.00  0.00    +0.000 A 
ATOM     20  C   UNL     1       4.125   4.321  16.884  0.00  0.00    +0.000 A 
BRANCH  15  22
ATOM     21  F   UNL     1       5.630   3.964  13.848  0.00  0.00    +0.000 F 
ATOM     22  C   UNL     1       5.951   3.974  15.172  0.00  0.00    +0.000 C 
ATOM     23  F   UNL     1       5.901   2.676  15.578  0.00  0.00    +0.000 F 
ATOM     24  F   UNL     1       7.264   4.335  15.233  0.00  0.00    +0.000 F 
ENDBRANCH  15  22
ENDBRANCH   1  18
TORSDOF 2
ENDMDL
MODEL 4
REMARK VINA RESULT:      -8.2      1.036      2.128
REMARK  Name = 
REMARK  2 active torsions:
REMARK  status: ('A' for Active; 'I' for Inactive)
REMARK    1  A    between atoms: C_2  and  C_5
REMARK    2  A    between atoms: C_8  and  C_9
REMARK                            x       y       z     vdW  Elec       q    Type
REMARK                         _______ _______ _______ _____ _____    ______ ____
ROOT
ATOM      1  C   UNL     1       2.160   7.939  18.968  0.00  0.00    +0.000 A 
ATOM      2  N   UNL     1       1.954   7.847  20.268  0.00  0.00    +0.000 NA
ATOM      3  C   UNL     1       1.123   8.878  20.596  0.00  0.00    +0.000 A 
ATOM      4  C   UNL     1       0.527   9.142  21.825  0.00  0.00    +0.000 A 
ATOM      5  C   UNL     1      -0.341  10.235  21.918  0.00  0.00    +0.000 A 
ATOM      6  C   UNL     1      -1.055  10.446  23.098  0.00  0.00    +0.000 A 
ATOM      7  C   UNL     1      -1.887  11.548  23.207  0.00  0.00    +0.000 A 
ATOM      8  C   UNL     1      -1.943  12.418  22.134  0.00  0.00    +0.000 A 
ATOM      9  N   UNL     1      -1.302  12.218  20.957  0.00  0.00    +0.000 NA
ATOM     10  C   UNL     1      -0.531  11.124  20.832  0.00  0.00    +0.000 A 
ATOM     11  C   UNL     1       0.071  10.835  19.604  0.00  0.00    +0.000 A 
ATOM     12  C   UNL     1       0.872   9.687  19.507  0.00  0.00    +0.000 A 
ATOM     13  N   UNL     1       1.535   9.070  18.473  0.00  0.00    +0.000 N 
ATOM     14  H   UNL     1       1.519   9.356  17.506  0.00  0.00    +0.000 HD
ENDROOT
BRANCH   1  18
ATOM     15  C   UNL     1       4.535   5.109  16.783  0.00  0.00    +0.000 A 
ATOM     16  C   UNL     1       4.747   6.484  16.662  0.00  0.00    +0.000 A 
ATOM     17  C   UNL     1       3.938   7.378  17.363  0.00  0.00    +0.000 A 
ATOM     18  C   UNL     1       2.899   6.933  18.202  0.00  0.00    +0.000 A 
ATOM     19  C   UNL     1       2.673   5.558  18.303  0.00  0.00    +0.000 A 
ATOM     20  C   UNL     1       3.485   4.655  17.599  0.00  0.00    +0.000 A 
BRANCH  15  22
ATOM     21  F   UNL     1       6.742   4.231  16.398  0.00  0.00    +0.000 F 
ATOM     22  C   UNL     1       5.424   4.121  16.068  0.00  0.00    +0.000 C 
ATOM     23  F   UNL     1       5.365   4.252  14.715  0.00  0.00    +0.000 F 
ATOM     24  F   UNL     1       5.081   2.830  16.335  0.00  0.00    +0.000 F 
ENDBRANCH  15  22
ENDBRANCH   1  18
TORSDOF 2
ENDMDL
MODEL 5
REMARK VINA RESULT:      -8.1      0.742      1.431
REMARK  Name = 
REMARK  2 active torsions:
REMARK  status: ('A' for Active; 'I' for Inactive)
REMARK    1  A    between atoms: C_2  and  C_5
REMARK    2  A    between atoms: C_8  and  C_9
REMARK                            x       y       z     vdW  Elec       q    Type
REMARK                         _______ _______ _______ _____ _____    ______ ____
ROOT
ATOM      1  C   UNL     1       2.161   7.809  18.869  0.00  0.00    +0.000 A 
ATOM      2  N   UNL     1       1.510   8.835  18.353  0.00  0.00    +0.000 NA
ATOM      3  C   UNL     1       0.949   9.497  19.405  0.00  0.00    +0.000 A 
ATOM      4  C   UNL     1       0.259  10.706  19.388  0.00  0.00    +0.000 A 
ATOM      5  C   UNL     1      -0.186  11.231  20.606  0.00  0.00    +0.000 A 
ATOM      6  C   UNL     1      -0.761  12.501  20.637  0.00  0.00    +0.000 A 
ATOM      7  C   UNL     1      -1.236  13.009  21.835  0.00  0.00    +0.000 A 
ATOM      8  C   UNL     1      -1.145  12.203  22.953  0.00  0.00    +0.000 A 
ATOM      9  N   UNL     1      -0.549  10.985  22.969  0.00  0.00    +0.000 NA
ATOM     10  C   UNL     1      -0.045  10.511  21.817  0.00  0.00    +0.000 A 
ATOM     11  C   UNL     1       0.658   9.303  21.813  0.00  0.00    +0.000 A 
ATOM     12  C   UNL     1       1.171   8.833  20.593  0.00  0.00    +0.000 A 
ATOM     13  N   UNL     1       1.952   7.761  20.235  0.00  0.00    +0.000 N 
ATOM     14  H   UNL     1       2.358   7.088  20.868  0.00  0.00    +0.000 HD
ENDROOT
BRANCH   1  18
ATOM     15  C   UNL     1       4.847   5.337  16.610  0.00  0.00    +0.000 A 
ATOM     16  C   UNL     1       4.928   6.731  16.565  0.00  0.00    +0.000 A 
ATOM     17  C   UNL     1       4.020   7.506  17.288  0.00  0.00    +0.000 A 
ATOM     18  C   UNL     1       3.011   6.920  18.074  0.00  0.00    +0.000 A 
ATOM     19  C   UNL     1       2.916   5.526  18.099  0.00  0.00    +0.000 A 
ATOM     20  C   UNL     1       3.827   4.743  17.373  0.00  0.00    +0.000 A 
BRANCH  15  22
ATOM     21  F   UNL     1       7.121   4.605  16.327  0.00  0.00    +0.000 F 
ATOM     22  C   UNL     1       5.843   4.478  15.872  0.00  0.00    +0.000 C 
ATOM     23  F   UNL     1       5.890   4.762  14.542  0.00  0.00    +0.000 F 
ATOM     24  F   UNL     1       5.548   3.151  15.962  0.00  0.00    +0.000 F 
ENDBRANCH  15  22
ENDBRANCH   1  18
TORSDOF 2
ENDMDL
MODEL 6
REMARK VINA RESULT:      -7.9      5.564      9.023
REMARK  Name = 
REMARK  2 active torsions:
REMARK  status: ('A' for Active; 'I' for Inactive)
REMARK    1  A    between atoms: C_2  and  C_5
REMARK    2  A    between atoms: C_8  and  C_9
REMARK                            x       y       z     vdW  Elec       q    Type
REMARK                         _______ _______ _______ _____ _____    ______ ____
ROOT
ATOM      1  C   UNL     1       1.215   8.241  20.843  0.00  0.00    +0.000 A 
ATOM      2  N   UNL     1       1.914   8.400  19.735  0.00  0.00    +0.000 NA
ATOM      3  C   UNL     1       2.405   7.169  19.413  0.00  0.00    +0.000 A 
ATOM      4  C   UNL     1       3.108   6.797  18.272  0.00  0.00    +0.000 A 
ATOM      5  C   UNL     1       3.468   5.453  18.125  0.00  0.00    +0.000 A 
ATOM      6  C   UNL     1       4.055   5.025  16.934  0.00  0.00    +0.000 A 
ATOM      7  C   UNL     1       4.446   3.703  16.799  0.00  0.00    +0.000 A 
ATOM      8  C   UNL     1       4.263   2.868  17.884  0.00  0.00    +0.000 A 
ATOM      9  N   UNL     1       3.653   3.237  19.037  0.00  0.00    +0.000 NA
ATOM     10  C   UNL     1       3.230   4.507  19.151  0.00  0.00    +0.000 A 
ATOM     11  C   UNL     1       2.514   4.900  20.286  0.00  0.00    +0.000 A 
ATOM     12  C   UNL     1       2.088   6.235  20.377  0.00  0.00    +0.000 A 
ATOM     13  N   UNL     1       1.322   6.933  21.280  0.00  0.00    +0.000 N 
ATOM     14  H   UNL     1       0.863   6.546  22.090  0.00  0.00    +0.000 HD
ENDROOT
BRANCH   1  18
ATOM     15  C   UNL     1      -1.283  11.357  22.416  0.00  0.00    +0.000 A 
ATOM     16  C   UNL     1      -0.905  11.336  21.071  0.00  0.00    +0.000 A 
ATOM     17  C   UNL     1      -0.067  10.325  20.598  0.00  0.00    +0.000 A 
ATOM     18  C   UNL     1       0.415   9.310  21.445  0.00  0.00    +0.000 A 
ATOM     19  C   UNL     1       0.055   9.346  22.794  0.00  0.00    +0.000 A 
ATOM     20  C   UNL     1      -0.787  10.361  23.273  0.00  0.00    +0.000 A 
BRANCH  15  22
ATOM     21  F   UNL     1      -3.244  11.916  23.694  0.00  0.00    +0.000 F 
ATOM     22  C   UNL     1      -2.222  12.414  22.941  0.00  0.00    +0.000 C 
ATOM     23  F   UNL     1      -2.809  13.131  21.943  0.00  0.00    +0.000 F 
ATOM     24  F   UNL     1      -1.587  13.324  23.732  0.00  0.00    +0.000 F 
ENDBRANCH  15  22
ENDBRANCH   1  18
TORSDOF 2
ENDMDL
MODEL 7
REMARK VINA RESULT:      -7.9      5.585      8.995
REMARK  Name = 
REMARK  2 active torsions:
REMARK  status: ('A' for Active; 'I' for Inactive)
REMARK    1  A    between atoms: C_2  and  C_5
REMARK    2  A    between atoms: C_8  and  C_9
REMARK                            x       y       z     vdW  Elec       q    Type
REMARK                         _______ _______ _______ _____ _____    ______ ____
ROOT
ATOM      1  C   UNL     1       1.115   8.393  20.666  0.00  0.00    +0.000 A 
ATOM      2  N   UNL     1       1.794   8.503  19.540  0.00  0.00    +0.000 NA
ATOM      3  C   UNL     1       2.343   7.276  19.305  0.00  0.00    +0.000 A 
ATOM      4  C   UNL     1       3.053   6.854  18.186  0.00  0.00    +0.000 A 
ATOM      5  C   UNL     1       3.479   5.522  18.136  0.00  0.00    +0.000 A 
ATOM      6  C   UNL     1       4.075   5.035  16.972  0.00  0.00    +0.000 A 
ATOM      7  C   UNL     1       4.532   3.728  16.933  0.00  0.00    +0.000 A 
ATOM      8  C   UNL     1       4.403   2.969  18.080  0.00  0.00    +0.000 A 
ATOM      9  N   UNL     1       3.786   3.394  19.210  0.00  0.00    +0.000 NA
ATOM     10  C   UNL     1       3.299   4.647  19.234  0.00  0.00    +0.000 A 
ATOM     11  C   UNL     1       2.577   5.089  20.345  0.00  0.00    +0.000 A 
ATOM     12  C   UNL     1       2.084   6.403  20.342  0.00  0.00    +0.000 A 
ATOM     13  N   UNL     1       1.293   7.129  21.199  0.00  0.00    +0.000 N 
ATOM     14  H   UNL     1       0.862   6.783  22.043  0.00  0.00    +0.000 HD
ENDROOT
BRANCH   1  18
ATOM     15  C   UNL     1      -1.226  11.533  22.422  0.00  0.00    +0.000 A 
ATOM     16  C   UNL     1      -0.848  10.408  23.158  0.00  0.00    +0.000 A 
ATOM     17  C   UNL     1      -0.113   9.391  22.549  0.00  0.00    +0.000 A 
ATOM     18  C   UNL     1       0.268   9.464  21.197  0.00  0.00    +0.000 A 
ATOM     19  C   UNL     1      -0.131  10.579  20.455  0.00  0.00    +0.000 A 
ATOM     20  C   UNL     1      -0.872  11.604  21.064  0.00  0.00    +0.000 A 
BRANCH  15  22
ATOM     21  F   UNL     1      -2.561  13.521  22.178  0.00  0.00    +0.000 F 
ATOM     22  C   UNL     1      -1.985  12.665  23.070  0.00  0.00    +0.000 C 
ATOM     23  F   UNL     1      -1.193  13.434  23.866  0.00  0.00    +0.000 F 
ATOM     24  F   UNL     1      -2.997  12.221  23.865  0.00  0.00    +0.000 F 
ENDBRANCH  15  22
ENDBRANCH   1  18
TORSDOF 2
ENDMDL
MODEL 8
REMARK VINA RESULT:      -7.8      1.972      2.970
REMARK  Name = 
REMARK  2 active torsions:
REMARK  status: ('A' for Active; 'I' for Inactive)
REMARK    1  A    between atoms: C_2  and  C_5
REMARK    2  A    between atoms: C_8  and  C_9
REMARK                            x       y       z     vdW  Elec       q    Type
REMARK                         _______ _______ _______ _____ _____    ______ ____
ROOT
ATOM      1  C   UNL     1       1.647   7.784  20.061  0.00  0.00    +0.000 A 
ATOM      2  N   UNL     1       1.150   7.880  21.279  0.00  0.00    +0.000 NA
ATOM      3  C   UNL     1       0.591   9.121  21.366  0.00  0.00    +0.000 A 
ATOM      4  C   UNL     1      -0.157   9.654  22.411  0.00  0.00    +0.000 A 
ATOM      5  C   UNL     1      -0.683  10.941  22.259  0.00  0.00    +0.000 A 
ATOM      6  C   UNL     1      -1.545  11.450  23.231  0.00  0.00    +0.000 A 
ATOM      7  C   UNL     1      -2.039  12.738  23.102  0.00  0.00    +0.000 A 
ATOM      8  C   UNL     1      -1.617  13.479  22.015  0.00  0.00    +0.000 A 
ATOM      9  N   UNL     1      -0.821  13.001  21.028  0.00  0.00    +0.000 NA
ATOM     10  C   UNL     1      -0.379  11.735  21.127  0.00  0.00    +0.000 A 
ATOM     11  C   UNL     1       0.366  11.177  20.085  0.00  0.00    +0.000 A 
ATOM     12  C   UNL     1       0.816   9.854  20.220  0.00  0.00    +0.000 A 
ATOM     13  N   UNL     1       1.485   8.984  19.393  0.00  0.00    +0.000 N 
ATOM     14  H   UNL     1       1.758   9.166  18.439  0.00  0.00    +0.000 HD
ENDROOT
BRANCH   1  18
ATOM     15  C   UNL     1       3.122   4.044  18.556  0.00  0.00    +0.000 A 
ATOM     16  C   UNL     1       2.485   4.130  19.796  0.00  0.00    +0.000 A 
ATOM     17  C   UNL     1       2.044   5.366  20.270  0.00  0.00    +0.000 A 
ATOM     18  C   UNL     1       2.222   6.547  19.526  0.00  0.00    +0.000 A 
ATOM     19  C   UNL     1       2.881   6.464  18.297  0.00  0.00    +0.000 A 
ATOM     20  C   UNL     1       3.326   5.222  17.818  0.00  0.00    +0.000 A 
BRANCH  15  22
ATOM     21  F   UNL     1       2.562   1.986  17.443  0.00  0.00    +0.000 F 
ATOM     22  C   UNL     1       3.569   2.713  18.004  0.00  0.00    +0.000 C 
ATOM     23  F   UNL     1       4.122   1.914  18.956  0.00  0.00    +0.000 F 
ATOM     24  F   UNL     1       4.515   2.848  17.032  0.00  0.00    +0.000 F 
ENDBRANCH  15  22
ENDBRANCH   1  18
TORSDOF 2
ENDMDL
MODEL 9
REMARK VINA RESULT:      -7.7      1.377      2.235
REMARK  Name = 
REMARK  2 active torsions:
REMARK  status: ('A' for Active; 'I' for Inactive)
REMARK    1  A    between atoms: C_2  and  C_5
REMARK    2  A    between atoms: C_8  and  C_9
REMARK                            x       y       z     vdW  Elec       q    Type
REMARK                         _______ _______ _______ _____ _____    ______ ____
ROOT
ATOM      1  C   UNL     1       1.909   8.272  19.275  0.00  0.00    +0.000 A 
ATOM      2  N   UNL     1       1.741   8.340  20.583  0.00  0.00    +0.000 NA
ATOM      3  C   UNL     1       0.822   9.325  20.798  0.00  0.00    +0.000 A 
ATOM      4  C   UNL     1       0.230   9.698  22.000  0.00  0.00    +0.000 A 
ATOM      5  C   UNL     1      -0.737  10.709  21.976  0.00  0.00    +0.000 A 
ATOM      6  C   UNL     1      -1.443  11.012  23.141  0.00  0.00    +0.000 A 
ATOM      7  C   UNL     1      -2.374  12.037  23.130  0.00  0.00    +0.000 A 
ATOM      8  C   UNL     1      -2.536  12.743  21.953  0.00  0.00    +0.000 A 
ATOM      9  N   UNL     1      -1.904  12.445  20.792  0.00  0.00    +0.000 NA
ATOM     10  C   UNL     1      -1.035  11.419  20.789  0.00  0.00    +0.000 A 
ATOM     11  C   UNL     1      -0.434  11.023  19.590  0.00  0.00    +0.000 A 
ATOM     12  C   UNL     1       0.471   9.951  19.620  0.00  0.00    +0.000 A 
ATOM     13  N   UNL     1       1.168   9.262  18.656  0.00  0.00    +0.000 N 
ATOM     14  H   UNL     1       1.104   9.411  17.660  0.00  0.00    +0.000 HD
ENDROOT
BRANCH   1  18
ATOM     15  C   UNL     1       4.097   5.121  17.350  0.00  0.00    +0.000 A 
ATOM     16  C   UNL     1       3.180   4.853  18.369  0.00  0.00    +0.000 A 
ATOM     17  C   UNL     1       2.507   5.903  18.995  0.00  0.00    +0.000 A 
ATOM     18  C   UNL     1       2.725   7.243  18.626  0.00  0.00    +0.000 A 
ATOM     19  C   UNL     1       3.660   7.511  17.623  0.00  0.00    +0.000 A 
ATOM     20  C   UNL     1       4.339   6.458  16.991  0.00  0.00    +0.000 A 
BRANCH  15  22
ATOM     21  F   UNL     1       6.149   3.968  16.850  0.00  0.00    +0.000 F 
ATOM     22  C   UNL     1       4.804   4.000  16.629  0.00  0.00    +0.000 C 
ATOM     23  F   UNL     1       4.650   4.070  15.278  0.00  0.00    +0.000 F 
ATOM     24  F   UNL     1       4.338   2.774  16.996  0.00  0.00    +0.000 F 
ENDBRANCH  15  22
ENDBRANCH   1  18
TORSDOF 2
ENDMDL
