MODEL 1
REMARK VINA RESULT:      -8.2      0.000      0.000
REMARK  Name = 
REMARK  1 active torsions:
REMARK  status: ('A' for Active; 'I' for Inactive)
REMARK    1  A    between atoms: C_5  and  C_6
REMARK                            x       y       z     vdW  Elec       q    Type
REMARK                         _______ _______ _______ _____ _____    ______ ____
ROOT
ATOM      1  O   UNL     1       6.551   5.140  19.751  0.00  0.00    +0.000 OA
ATOM      2  C   UNL     1       5.892   5.026  18.730  0.00  0.00    +0.000 C 
ATOM      3  C   UNL     1       5.344   6.189  17.919  0.00  0.00    +0.000 C 
ATOM      4  C   UNL     1       4.367   5.515  16.942  0.00  0.00    +0.000 C 
ATOM      5  C   UNL     1       4.989   4.108  16.764  0.00  0.00    +0.000 C 
ATOM      6  N   UNL     1       4.005   3.028  16.469  0.00  0.00    +0.000 N 
ATOM      7  C   UNL     1       3.479   2.773  17.765  0.00  0.00    +0.000 A 
ATOM      8  C   UNL     1       2.208   2.298  18.010  0.00  0.00    +0.000 A 
ATOM      9  C   UNL     1       1.708   2.465  19.299  0.00  0.00    +0.000 A 
ATOM     10  C   UNL     1       2.516   3.026  20.306  0.00  0.00    +0.000 A 
ATOM     11 CL   UNL     1       1.794   3.408  21.824  0.00  0.00    +0.000 Cl
ATOM     12  C   UNL     1       3.852   3.378  20.066  0.00  0.00    +0.000 A 
ATOM     13  C   UNL     1       4.323   3.234  18.773  0.00  0.00    +0.000 A 
ATOM     14  N   UNL     1       5.448   3.850  18.136  0.00  0.00    +0.000 N 
ATOM     15  H   UNL     1       4.553   2.198  16.228  0.00  0.00    +0.000 HD
ENDROOT
BRANCH   5  16
ATOM     16  C   UNL     1       5.948   4.225  15.575  0.00  0.00    +0.000 A 
ATOM     17  C   UNL     1       7.017   5.124  15.482  0.00  0.00    +0.000 A 
ATOM     18  C   UNL     1       7.609   5.383  14.236  0.00  0.00    +0.000 A 
ATOM     19  C   UNL     1       7.160   4.730  13.089  0.00  0.00    +0.000 A 
ATOM     20  F   UNL     1       7.678   5.045  11.896  0.00  0.00    +0.000 F 
ATOM     21  C   UNL     1       6.156   3.783  13.163  0.00  0.00    +0.000 A 
ATOM     22  C   UNL     1       5.565   3.529  14.396  0.00  0.00    +0.000 A 
ENDBRANCH   5  16
TORSDOF 1
ENDMDL
MODEL 2
REMARK VINA RESULT:      -7.6      2.470      3.182
REMARK  Name = 
REMARK  1 active torsions:
REMARK  status: ('A' for Active; 'I' for Inactive)
REMARK    1  A    between atoms: C_5  and  C_6
REMARK                            x       y       z     vdW  Elec       q    Type
REMARK                         _______ _______ _______ _____ _____    ______ ____
ROOT
ATOM      1  O   UNL     1       3.998   3.577  19.749  0.00  0.00    +0.000 OA
ATOM      2  C   UNL     1       4.476   4.441  19.032  0.00  0.00    +0.000 C 
ATOM      3  C   UNL     1       5.885   4.995  19.166  0.00  0.00    +0.000 C 
ATOM      4  C   UNL     1       5.872   6.229  18.249  0.00  0.00    +0.000 C 
ATOM      5  C   UNL     1       4.828   5.837  17.175  0.00  0.00    +0.000 C 
ATOM      6  N   UNL     1       4.093   6.988  16.575  0.00  0.00    +0.000 N 
ATOM      7  C   UNL     1       3.137   7.262  17.592  0.00  0.00    +0.000 A 
ATOM      8  C   UNL     1       2.587   8.505  17.827  0.00  0.00    +0.000 A 
ATOM      9  C   UNL     1       1.982   8.703  19.065  0.00  0.00    +0.000 A 
ATOM     10  C   UNL     1       1.881   7.641  19.984  0.00  0.00    +0.000 A 
ATOM     11 CL   UNL     1       1.318   7.980  21.577  0.00  0.00    +0.000 Cl
ATOM     12  C   UNL     1       2.328   6.350  19.668  0.00  0.00    +0.000 A 
ATOM     13  C   UNL     1       2.955   6.177  18.446  0.00  0.00    +0.000 A 
ATOM     14  N   UNL     1       3.841   5.141  18.011  0.00  0.00    +0.000 N 
ATOM     15  H   UNL     1       3.557   6.609  15.790  0.00  0.00    +0.000 HD
ENDROOT
BRANCH   5  16
ATOM     16  C   UNL     1       5.617   5.138  16.063  0.00  0.00    +0.000 A 
ATOM     17  C   UNL     1       6.943   5.419  15.711  0.00  0.00    +0.000 A 
ATOM     18  C   UNL     1       7.451   4.975  14.480  0.00  0.00    +0.000 A 
ATOM     19  C   UNL     1       6.654   4.228  13.613  0.00  0.00    +0.000 A 
ATOM     20  F   UNL     1       7.123   3.880  12.409  0.00  0.00    +0.000 F 
ATOM     21  C   UNL     1       5.366   3.873  13.968  0.00  0.00    +0.000 A 
ATOM     22  C   UNL     1       4.860   4.317  15.184  0.00  0.00    +0.000 A 
ENDBRANCH   5  16
TORSDOF 1
ENDMDL
MODEL 3
REMARK VINA RESULT:      -7.6      4.119      6.103
REMARK  Name = 
REMARK  1 active torsions:
REMARK  status: ('A' for Active; 'I' for Inactive)
REMARK    1  A    between atoms: C_5  and  C_6
REMARK                            x       y       z     vdW  Elec       q    Type
REMARK                         _______ _______ _______ _____ _____    ______ ____
ROOT
ATOM      1  O   UNL     1       4.028   7.275  15.955  0.00  0.00    +0.000 OA
ATOM      2  C   UNL     1       4.127   6.688  17.021  0.00  0.00    +0.000 C 
ATOM      3  C   UNL     1       3.252   6.949  18.237  0.00  0.00    +0.000 C 
ATOM      4  C   UNL     1       3.971   6.187  19.363  0.00  0.00    +0.000 C 
ATOM      5  C   UNL     1       4.659   5.030  18.599  0.00  0.00    +0.000 C 
ATOM      6  N   UNL     1       5.924   4.543  19.220  0.00  0.00    +0.000 N 
ATOM      7  C   UNL     1       6.842   5.542  18.794  0.00  0.00    +0.000 A 
ATOM      8  C   UNL     1       7.977   5.902  19.489  0.00  0.00    +0.000 A 
ATOM      9  C   UNL     1       8.553   7.128  19.165  0.00  0.00    +0.000 A 
ATOM     10  C   UNL     1       8.024   7.907  18.119  0.00  0.00    +0.000 A 
ATOM     11 CL   UNL     1       8.632   9.503  17.892  0.00  0.00    +0.000 Cl
ATOM     12  C   UNL     1       6.950   7.457  17.338  0.00  0.00    +0.000 A 
ATOM     13  C   UNL     1       6.370   6.251  17.692  0.00  0.00    +0.000 A 
ATOM     14  N   UNL     1       5.073   5.733  17.377  0.00  0.00    +0.000 N 
ATOM     15  H   UNL     1       6.186   3.695  18.710  0.00  0.00    +0.000 HD
ENDROOT
BRANCH   5  16
ATOM     16  C   UNL     1       3.650   3.877  18.593  0.00  0.00    +0.000 A 
ATOM     17  C   UNL     1       3.298   3.115  17.472  0.00  0.00    +0.000 A 
ATOM     18  C   UNL     1       2.136   2.327  17.496  0.00  0.00    +0.000 A 
ATOM     19  C   UNL     1       1.341   2.274  18.640  0.00  0.00    +0.000 A 
ATOM     20  F   UNL     1       0.193   1.585  18.623  0.00  0.00    +0.000 F 
ATOM     21  C   UNL     1       1.703   2.959  19.785  0.00  0.00    +0.000 A 
ATOM     22  C   UNL     1       2.851   3.743  19.761  0.00  0.00    +0.000 A 
ENDBRANCH   5  16
TORSDOF 1
ENDMDL
MODEL 4
REMARK VINA RESULT:      -7.3      0.620      1.189
REMARK  Name = 
REMARK  1 active torsions:
REMARK  status: ('A' for Active; 'I' for Inactive)
REMARK    1  A    between atoms: C_5  and  C_6
REMARK                            x       y       z     vdW  Elec       q    Type
REMARK                         _______ _______ _______ _____ _____    ______ ____
ROOT
ATOM      1  O   UNL     1       6.282   4.930  19.883  0.00  0.00    +0.000 OA
ATOM      2  C   UNL     1       5.522   4.950  18.928  0.00  0.00    +0.000 C 
ATOM      3  C   UNL     1       4.874   6.204  18.362  0.00  0.00    +0.000 C 
ATOM      4  C   UNL     1       3.811   5.652  17.398  0.00  0.00    +0.000 C 
ATOM      5  C   UNL     1       4.433   4.308  16.947  0.00  0.00    +0.000 C 
ATOM      6  N   UNL     1       3.440   3.254  16.592  0.00  0.00    +0.000 N 
ATOM      7  C   UNL     1       3.056   2.793  17.881  0.00  0.00    +0.000 A 
ATOM      8  C   UNL     1       1.825   2.247  18.178  0.00  0.00    +0.000 A 
ATOM      9  C   UNL     1       1.460   2.204  19.521  0.00  0.00    +0.000 A 
ATOM     10  C   UNL     1       2.360   2.633  20.515  0.00  0.00    +0.000 A 
ATOM     11 CL   UNL     1       1.796   2.761  22.138  0.00  0.00    +0.000 Cl
ATOM     12  C   UNL     1       3.659   3.058  20.198  0.00  0.00    +0.000 A 
ATOM     13  C   UNL     1       3.994   3.124  18.857  0.00  0.00    +0.000 A 
ATOM     14  N   UNL     1       5.036   3.862  18.210  0.00  0.00    +0.000 N 
ATOM     15  H   UNL     1       3.972   2.487  16.174  0.00  0.00    +0.000 HD
ENDROOT
BRANCH   5  16
ATOM     16  C   UNL     1       5.260   4.631  15.698  0.00  0.00    +0.000 A 
ATOM     17  C   UNL     1       4.916   4.281  14.387  0.00  0.00    +0.000 A 
ATOM     18  C   UNL     1       5.887   4.317  13.374  0.00  0.00    +0.000 A 
ATOM     19  C   UNL     1       7.189   4.728  13.656  0.00  0.00    +0.000 A 
ATOM     20  F   UNL     1       8.125   4.681  12.700  0.00  0.00    +0.000 F 
ATOM     21  C   UNL     1       7.537   5.149  14.926  0.00  0.00    +0.000 A 
ATOM     22  C   UNL     1       6.578   5.109  15.931  0.00  0.00    +0.000 A 
ENDBRANCH   5  16
TORSDOF 1
ENDMDL
MODEL 5
REMARK VINA RESULT:      -7.3      3.051      3.747
REMARK  Name = 
REMARK  1 active torsions:
REMARK  status: ('A' for Active; 'I' for Inactive)
REMARK    1  A    between atoms: C_5  and  C_6
REMARK                            x       y       z     vdW  Elec       q    Type
REMARK                         _______ _______ _______ _____ _____    ______ ____
ROOT
ATOM      1  O   UNL     1       2.549   6.974  19.660  0.00  0.00    +0.000 OA
ATOM      2  C   UNL     1       3.360   6.431  18.927  0.00  0.00    +0.000 C 
ATOM      3  C   UNL     1       3.558   6.764  17.458  0.00  0.00    +0.000 C 
ATOM      4  C   UNL     1       4.451   5.620  16.950  0.00  0.00    +0.000 C 
ATOM      5  C   UNL     1       5.252   5.233  18.216  0.00  0.00    +0.000 C 
ATOM      6  N   UNL     1       5.669   3.802  18.274  0.00  0.00    +0.000 N 
ATOM      7  C   UNL     1       4.460   3.181  18.691  0.00  0.00    +0.000 A 
ATOM      8  C   UNL     1       4.107   1.883  18.387  0.00  0.00    +0.000 A 
ATOM      9  C   UNL     1       2.763   1.545  18.523  0.00  0.00    +0.000 A 
ATOM     10  C   UNL     1       1.843   2.485  19.025  0.00  0.00    +0.000 A 
ATOM     11 CL   UNL     1       0.164   2.100  18.979  0.00  0.00    +0.000 Cl
ATOM     12  C   UNL     1       2.250   3.756  19.455  0.00  0.00    +0.000 A 
ATOM     13  C   UNL     1       3.583   4.087  19.284  0.00  0.00    +0.000 A 
ATOM     14  N   UNL     1       4.208   5.374  19.240  0.00  0.00    +0.000 N 
ATOM     15  H   UNL     1       6.308   3.721  19.069  0.00  0.00    +0.000 HD
ENDROOT
BRANCH   5  16
ATOM     16  C   UNL     1       6.514   6.102  18.191  0.00  0.00    +0.000 A 
ATOM     17  C   UNL     1       7.563   6.033  19.117  0.00  0.00    +0.000 A 
ATOM     18  C   UNL     1       8.490   7.083  19.206  0.00  0.00    +0.000 A 
ATOM     19  C   UNL     1       8.394   8.186  18.357  0.00  0.00    +0.000 A 
ATOM     20  F   UNL     1       9.234   9.217  18.506  0.00  0.00    +0.000 F 
ATOM     21  C   UNL     1       7.414   8.245  17.385  0.00  0.00    +0.000 A 
ATOM     22  C   UNL     1       6.491   7.208  17.299  0.00  0.00    +0.000 A 
ENDBRANCH   5  16
TORSDOF 1
ENDMDL
MODEL 6
REMARK VINA RESULT:      -7.1      4.219      6.097
REMARK  Name = 
REMARK  1 active torsions:
REMARK  status: ('A' for Active; 'I' for Inactive)
REMARK    1  A    between atoms: C_5  and  C_6
REMARK                            x       y       z     vdW  Elec       q    Type
REMARK                         _______ _______ _______ _____ _____    ______ ____
ROOT
ATOM      1  O   UNL     1       3.692   7.811  16.043  0.00  0.00    +0.000 OA
ATOM      2  C   UNL     1       3.732   7.158  17.074  0.00  0.00    +0.000 C 
ATOM      3  C   UNL     1       2.956   7.489  18.338  0.00  0.00    +0.000 C 
ATOM      4  C   UNL     1       3.580   6.560  19.393  0.00  0.00    +0.000 C 
ATOM      5  C   UNL     1       4.041   5.351  18.544  0.00  0.00    +0.000 C 
ATOM      6  N   UNL     1       5.230   4.631  19.084  0.00  0.00    +0.000 N 
ATOM      7  C   UNL     1       6.283   5.491  18.667  0.00  0.00    +0.000 A 
ATOM      8  C   UNL     1       7.487   5.623  19.328  0.00  0.00    +0.000 A 
ATOM      9  C   UNL     1       8.244   6.755  19.039  0.00  0.00    +0.000 A 
ATOM     10  C   UNL     1       7.813   7.666  18.056  0.00  0.00    +0.000 A 
ATOM     11 CL   UNL     1       8.666   9.154  17.881  0.00  0.00    +0.000 Cl
ATOM     12  C   UNL     1       6.653   7.440  17.302  0.00  0.00    +0.000 A 
ATOM     13  C   UNL     1       5.895   6.327  17.622  0.00  0.00    +0.000 A 
ATOM     14  N   UNL     1       4.521   6.044  17.340  0.00  0.00    +0.000 N 
ATOM     15  H   UNL     1       5.331   3.782  18.522  0.00  0.00    +0.000 HD
ENDROOT
BRANCH   5  16
ATOM     16  C   UNL     1       2.856   4.379  18.526  0.00  0.00    +0.000 A 
ATOM     17  C   UNL     1       1.799   4.375  19.445  0.00  0.00    +0.000 A 
ATOM     18  C   UNL     1       0.963   3.251  19.546  0.00  0.00    +0.000 A 
ATOM     19  C   UNL     1       1.158   2.147  18.718  0.00  0.00    +0.000 A 
ATOM     20  F   UNL     1       0.407   1.051  18.879  0.00  0.00    +0.000 F 
ATOM     21  C   UNL     1       2.147   2.154  17.752  0.00  0.00    +0.000 A 
ATOM     22  C   UNL     1       2.980   3.264  17.654  0.00  0.00    +0.000 A 
ENDBRANCH   5  16
TORSDOF 1
ENDMDL
MODEL 7
REMARK VINA RESULT:      -7.0      4.846      6.920
REMARK  Name = 
REMARK  1 active torsions:
REMARK  status: ('A' for Active; 'I' for Inactive)
REMARK    1  A    between atoms: C_5  and  C_6
REMARK                            x       y       z     vdW  Elec       q    Type
REMARK                         _______ _______ _______ _____ _____    ______ ____
ROOT
ATOM      1  O   UNL     1       3.776   3.791  20.038  0.00  0.00    +0.000 OA
ATOM      2  C   UNL     1       3.258   4.702  19.411  0.00  0.00    +0.000 C 
ATOM      3  C   UNL     1       1.825   4.700  18.907  0.00  0.00    +0.000 C 
ATOM      4  C   UNL     1       1.781   5.905  17.952  0.00  0.00    +0.000 C 
ATOM      5  C   UNL     1       2.843   6.852  18.560  0.00  0.00    +0.000 C 
ATOM      6  N   UNL     1       3.524   7.737  17.571  0.00  0.00    +0.000 N 
ATOM      7  C   UNL     1       4.465   6.836  17.000  0.00  0.00    +0.000 A 
ATOM      8  C   UNL     1       4.956   6.935  15.715  0.00  0.00    +0.000 A 
ATOM      9  C   UNL     1       5.550   5.797  15.176  0.00  0.00    +0.000 A 
ATOM     10  C   UNL     1       5.699   4.637  15.959  0.00  0.00    +0.000 A 
ATOM     11 CL   UNL     1       6.244   3.191  15.194  0.00  0.00    +0.000 Cl
ATOM     12  C   UNL     1       5.314   4.604  17.307  0.00  0.00    +0.000 A 
ATOM     13  C   UNL     1       4.697   5.732  17.818  0.00  0.00    +0.000 A 
ATOM     14  N   UNL     1       3.861   5.875  18.971  0.00  0.00    +0.000 N 
ATOM     15  H   UNL     1       4.078   8.403  18.115  0.00  0.00    +0.000 HD
ENDROOT
BRANCH   5  16
ATOM     16  C   UNL     1       2.090   7.737  19.559  0.00  0.00    +0.000 A 
ATOM     17  C   UNL     1       1.690   7.348  20.843  0.00  0.00    +0.000 A 
ATOM     18  C   UNL     1       0.724   8.098  21.534  0.00  0.00    +0.000 A 
ATOM     19  C   UNL     1       0.178   9.246  20.962  0.00  0.00    +0.000 A 
ATOM     20  F   UNL     1      -0.799   9.906  21.595  0.00  0.00    +0.000 F 
ATOM     21  C   UNL     1       0.609   9.694  19.727  0.00  0.00    +0.000 A 
ATOM     22  C   UNL     1       1.561   8.950  19.040  0.00  0.00    +0.000 A 
ENDBRANCH   5  16
TORSDOF 1
ENDMDL
MODEL 8
REMARK VINA RESULT:      -6.9      3.867      6.238
REMARK  Name = 
REMARK  1 active torsions:
REMARK  status: ('A' for Active; 'I' for Inactive)
REMARK    1  A    between atoms: C_5  and  C_6
REMARK                            x       y       z     vdW  Elec       q    Type
REMARK                         _______ _______ _______ _____ _____    ______ ____
ROOT
ATOM      1  O   UNL     1       6.736   7.810  17.319  0.00  0.00    +0.000 OA
ATOM      2  C   UNL     1       6.452   6.632  17.470  0.00  0.00    +0.000 C 
ATOM      3  C   UNL     1       7.180   5.679  18.403  0.00  0.00    +0.000 C 
ATOM      4  C   UNL     1       6.638   4.298  17.997  0.00  0.00    +0.000 C 
ATOM      5  C   UNL     1       5.216   4.634  17.486  0.00  0.00    +0.000 C 
ATOM      6  N   UNL     1       4.702   3.712  16.433  0.00  0.00    +0.000 N 
ATOM      7  C   UNL     1       5.374   4.208  15.282  0.00  0.00    +0.000 A 
ATOM      8  C   UNL     1       5.705   3.443  14.183  0.00  0.00    +0.000 A 
ATOM      9  C   UNL     1       6.677   3.953  13.328  0.00  0.00    +0.000 A 
ATOM     10  C   UNL     1       7.223   5.230  13.556  0.00  0.00    +0.000 A 
ATOM     11 CL   UNL     1       8.568   5.734  12.602  0.00  0.00    +0.000 Cl
ATOM     12  C   UNL     1       6.773   6.047  14.603  0.00  0.00    +0.000 A 
ATOM     13  C   UNL     1       5.829   5.512  15.462  0.00  0.00    +0.000 A 
ATOM     14  N   UNL     1       5.479   5.903  16.794  0.00  0.00    +0.000 N 
ATOM     15  H   UNL     1       3.716   3.950  16.298  0.00  0.00    +0.000 HD
ENDROOT
BRANCH   5  16
ATOM     16  C   UNL     1       4.299   4.527  18.709  0.00  0.00    +0.000 A 
ATOM     17  C   UNL     1       4.216   3.422  19.565  0.00  0.00    +0.000 A 
ATOM     18  C   UNL     1       3.121   3.288  20.433  0.00  0.00    +0.000 A 
ATOM     19  C   UNL     1       2.125   4.263  20.472  0.00  0.00    +0.000 A 
ATOM     20  F   UNL     1       1.046   4.085  21.243  0.00  0.00    +0.000 F 
ATOM     21  C   UNL     1       2.219   5.401  19.691  0.00  0.00    +0.000 A 
ATOM     22  C   UNL     1       3.301   5.532  18.827  0.00  0.00    +0.000 A 
ENDBRANCH   5  16
TORSDOF 1
ENDMDL
MODEL 9
REMARK VINA RESULT:      -6.8     10.835     12.420
REMARK  Name = 
REMARK  1 active torsions:
REMARK  status: ('A' for Active; 'I' for Inactive)
REMARK    1  A    between atoms: C_5  and  C_6
REMARK                            x       y       z     vdW  Elec       q    Type
REMARK                         _______ _______ _______ _____ _____    ______ ____
ROOT
ATOM      1  O   UNL     1       6.927  14.929  19.806  0.00  0.00    +0.000 OA
ATOM      2  C   UNL     1       7.711  14.515  20.646  0.00  0.00    +0.000 C 
ATOM      3  C   UNL     1       8.395  15.380  21.691  0.00  0.00    +0.000 C 
ATOM      4  C   UNL     1       9.471  14.450  22.275  0.00  0.00    +0.000 C 
ATOM      5  C   UNL     1       8.835  13.050  22.098  0.00  0.00    +0.000 C 
ATOM      6  N   UNL     1       9.816  11.942  21.915  0.00  0.00    +0.000 N 
ATOM      7  C   UNL     1      10.159  12.102  20.545  0.00  0.00    +0.000 A 
ATOM      8  C   UNL     1      11.372  11.739  19.999  0.00  0.00    +0.000 A 
ATOM      9  C   UNL     1      11.703  12.297  18.767  0.00  0.00    +0.000 A 
ATOM     10  C   UNL     1      10.787  13.130  18.097  0.00  0.00    +0.000 A 
ATOM     11 CL   UNL     1      11.315  13.967  16.685  0.00  0.00    +0.000 Cl
ATOM     12  C   UNL     1       9.505  13.378  18.610  0.00  0.00    +0.000 A 
ATOM     13  C   UNL     1       9.204  12.840  19.849  0.00  0.00    +0.000 A 
ATOM     14  N   UNL     1       8.192  13.218  20.788  0.00  0.00    +0.000 N 
ATOM     15  H   UNL     1       9.279  11.072  21.963  0.00  0.00    +0.000 HD
ENDROOT
BRANCH   5  16
ATOM     16  C   UNL     1       8.045  12.786  23.384  0.00  0.00    +0.000 A 
ATOM     17  C   UNL     1       8.495  13.059  24.682  0.00  0.00    +0.000 A 
ATOM     18  C   UNL     1       7.853  12.475  25.785  0.00  0.00    +0.000 A 
ATOM     19  C   UNL     1       6.747  11.645  25.602  0.00  0.00    +0.000 A 
ATOM     20  F   UNL     1       6.194  11.029  26.654  0.00  0.00    +0.000 F 
ATOM     21  C   UNL     1       6.236  11.417  24.338  0.00  0.00    +0.000 A 
ATOM     22  C   UNL     1       6.875  11.991  23.244  0.00  0.00    +0.000 A 
ENDBRANCH   5  16
TORSDOF 1
ENDMDL
