MODEL 1
REMARK VINA RESULT:      -8.0      0.000      0.000
REMARK  Name = 
REMARK  6 active torsions:
REMARK  status: ('A' for Active; 'I' for Inactive)
REMARK    1  A    between atoms: C_1  and  C_2
REMARK    2  A    between atoms: C_7  and  N_8
REMARK    3  A    between atoms: C_10  and  C_11
REMARK    4  A    between atoms: N_13  and  C_14
REMARK    5  A    between atoms: C_14  and  C_15
REMARK    6  A    between atoms: N_23  and  C_24
REMARK                            x       y       z     vdW  Elec       q    Type
REMARK                         _______ _______ _______ _____ _____    ______ ____
ROOT
ATOM      1  N   UNL     1       2.269   5.876  19.945  0.00  0.00    +0.000 N 
ATOM      2  C   UNL     1       3.652   5.456  19.871  0.00  0.00    +0.000 C 
ATOM      3  C   UNL     1       3.485   4.038  19.307  0.00  0.00    +0.000 C 
ATOM      4  N   UNL     1       2.253   3.618  19.999  0.00  0.00    +0.000 N 
ATOM      5  C   UNL     1       1.580   2.342  19.931  0.00  0.00    +0.000 C 
ATOM      6  C   UNL     1       1.442   4.755  20.169  0.00  0.00    +0.000 C 
ATOM      7  O   UNL     1       0.264   4.746  20.452  0.00  0.00    +0.000 OA
ENDROOT
BRANCH   1  14
ATOM      8  C   UNL     1       2.523   7.774  17.680  0.00  0.00    +0.000 C 
ATOM      9  C   UNL     1       1.890   8.110  19.000  0.00  0.00    +0.000 A 
ATOM     10  N   UNL     1       1.477   9.399  19.127  0.00  0.00    +0.000 NA
ATOM     11  C   UNL     1       0.955   9.777  20.312  0.00  0.00    +0.000 A 
ATOM     12  C   UNL     1       0.839   8.938  21.405  0.00  0.00    +0.000 A 
ATOM     13  C   UNL     1       1.304   7.632  21.287  0.00  0.00    +0.000 A 
ATOM     14  C   UNL     1       1.827   7.197  20.068  0.00  0.00    +0.000 A 
ENDBRANCH   1  14
BRANCH   3  15
ATOM     15  C   UNL     1       4.762   3.197  19.417  0.00  0.00    +0.000 C 
ATOM     16  O   UNL     1       4.916   2.344  20.291  0.00  0.00    +0.000 OA
ATOM     17  N   UNL     1       5.781   3.445  18.539  0.00  0.00    +0.000 N 
ATOM     18  H   UNL     1       6.581   2.825  18.633  0.00  0.00    +0.000 HD
BRANCH  17  19
ATOM     19  C   UNL     1       5.759   4.350  17.414  0.00  0.00    +0.000 C 
BRANCH  19  20
ATOM     20  C   UNL     1       6.589   5.578  17.572  0.00  0.00    +0.000 A 
ATOM     21  C   UNL     1       7.553   5.600  18.601  0.00  0.00    +0.000 A 
ATOM     22  C   UNL     1       8.259   6.762  18.880  0.00  0.00    +0.000 A 
ATOM     23  C   UNL     1       8.017   7.899  18.122  0.00  0.00    +0.000 A 
ATOM     24  F   UNL     1       8.684   9.027  18.397  0.00  0.00    +0.000 F 
ATOM     25  C   UNL     1       7.077   7.892  17.092  0.00  0.00    +0.000 A 
ATOM     26  C   UNL     1       6.362   6.737  16.823  0.00  0.00    +0.000 A 
ATOM     27 CL   UNL     1       5.162   6.787  15.580  0.00  0.00    +0.000 Cl
ENDBRANCH  19  20
ENDBRANCH  17  19
ENDBRANCH   3  15
TORSDOF 4
ENDMDL
MODEL 2
REMARK VINA RESULT:      -7.8      2.830      6.521
REMARK  Name = 
REMARK  6 active torsions:
REMARK  status: ('A' for Active; 'I' for Inactive)
REMARK    1  A    between atoms: C_1  and  C_2
REMARK    2  A    between atoms: C_7  and  N_8
REMARK    3  A    between atoms: C_10  and  C_11
REMARK    4  A    between atoms: N_13  and  C_14
REMARK    5  A    between atoms: C_14  and  C_15
REMARK    6  A    between atoms: N_23  and  C_24
REMARK                            x       y       z     vdW  Elec       q    Type
REMARK                         _______ _______ _______ _____ _____    ______ ____
ROOT
ATOM      1  N   UNL     1       4.369   4.177  18.510  0.00  0.00    +0.000 N 
ATOM      2  C   UNL     1       3.093   4.855  18.586  0.00  0.00    +0.000 C 
ATOM      3  C   UNL     1       2.737   4.620  20.060  0.00  0.00    +0.000 C 
ATOM      4  N   UNL     1       3.259   3.254  20.247  0.00  0.00    +0.000 N 
ATOM      5  C   UNL     1       3.193   2.427  21.429  0.00  0.00    +0.000 C 
ATOM      6  C   UNL     1       4.397   3.110  19.433  0.00  0.00    +0.000 C 
ATOM      7  O   UNL     1       5.225   2.230  19.527  0.00  0.00    +0.000 OA
ENDROOT
BRANCH   1  14
ATOM      8  C   UNL     1       6.941   5.545  19.071  0.00  0.00    +0.000 C 
ATOM      9  C   UNL     1       6.569   4.951  17.743  0.00  0.00    +0.000 A 
ATOM     10  N   UNL     1       7.486   5.133  16.756  0.00  0.00    +0.000 NA
ATOM     11  C   UNL     1       7.182   4.674  15.524  0.00  0.00    +0.000 A 
ATOM     12  C   UNL     1       5.988   4.052  15.206  0.00  0.00    +0.000 A 
ATOM     13  C   UNL     1       5.033   3.908  16.208  0.00  0.00    +0.000 A 
ATOM     14  C   UNL     1       5.321   4.348  17.501  0.00  0.00    +0.000 A 
ENDBRANCH   1  14
BRANCH   3  15
ATOM     15  C   UNL     1       1.271   4.942  20.380  0.00  0.00    +0.000 C 
ATOM     16  O   UNL     1       0.394   4.079  20.385  0.00  0.00    +0.000 OA
ATOM     17  N   UNL     1       0.929   6.244  20.617  0.00  0.00    +0.000 N 
ATOM     18  H   UNL     1      -0.046   6.387  20.866  0.00  0.00    +0.000 HD
BRANCH  17  19
ATOM     19  C   UNL     1       1.823   7.375  20.719  0.00  0.00    +0.000 C 
BRANCH  19  20
ATOM     20  C   UNL     1       1.156   8.698  20.879  0.00  0.00    +0.000 A 
ATOM     21  C   UNL     1       0.669   9.046  22.155  0.00  0.00    +0.000 A 
ATOM     22  C   UNL     1      -0.077  10.204  22.332  0.00  0.00    +0.000 A 
ATOM     23  C   UNL     1      -0.325  11.022  21.240  0.00  0.00    +0.000 A 
ATOM     24  F   UNL     1      -1.057  12.131  21.402  0.00  0.00    +0.000 F 
ATOM     25  C   UNL     1       0.160  10.701  19.973  0.00  0.00    +0.000 A 
ATOM     26  C   UNL     1       0.893   9.539  19.793  0.00  0.00    +0.000 A 
ATOM     27 CL   UNL     1       1.423   9.143  18.195  0.00  0.00    +0.000 Cl
ENDBRANCH  19  20
ENDBRANCH  17  19
ENDBRANCH   3  15
TORSDOF 4
ENDMDL
MODEL 3
REMARK VINA RESULT:      -7.7      2.877      6.307
REMARK  Name = 
REMARK  6 active torsions:
REMARK  status: ('A' for Active; 'I' for Inactive)
REMARK    1  A    between atoms: C_1  and  C_2
REMARK    2  A    between atoms: C_7  and  N_8
REMARK    3  A    between atoms: C_10  and  C_11
REMARK    4  A    between atoms: N_13  and  C_14
REMARK    5  A    between atoms: C_14  and  C_15
REMARK    6  A    between atoms: N_23  and  C_24
REMARK                            x       y       z     vdW  Elec       q    Type
REMARK                         _______ _______ _______ _____ _____    ______ ____
ROOT
ATOM      1  N   UNL     1       4.383   4.140  18.535  0.00  0.00    +0.000 N 
ATOM      2  C   UNL     1       3.115   4.833  18.617  0.00  0.00    +0.000 C 
ATOM      3  C   UNL     1       2.755   4.585  20.089  0.00  0.00    +0.000 C 
ATOM      4  N   UNL     1       3.259   3.211  20.260  0.00  0.00    +0.000 N 
ATOM      5  C   UNL     1       3.183   2.371  21.432  0.00  0.00    +0.000 C 
ATOM      6  C   UNL     1       4.396   3.062  19.445  0.00  0.00    +0.000 C 
ATOM      7  O   UNL     1       5.214   2.171  19.529  0.00  0.00    +0.000 OA
ENDROOT
BRANCH   1  14
ATOM      8  C   UNL     1       6.946   5.522  19.099  0.00  0.00    +0.000 C 
ATOM      9  C   UNL     1       6.582   4.920  17.772  0.00  0.00    +0.000 A 
ATOM     10  N   UNL     1       7.502   5.102  16.787  0.00  0.00    +0.000 NA
ATOM     11  C   UNL     1       7.204   4.636  15.557  0.00  0.00    +0.000 A 
ATOM     12  C   UNL     1       6.014   4.008  15.237  0.00  0.00    +0.000 A 
ATOM     13  C   UNL     1       5.056   3.864  16.236  0.00  0.00    +0.000 A 
ATOM     14  C   UNL     1       5.337   4.311  17.529  0.00  0.00    +0.000 A 
ENDBRANCH   1  14
BRANCH   3  15
ATOM     15  C   UNL     1       1.293   4.922  20.411  0.00  0.00    +0.000 C 
ATOM     16  O   UNL     1       0.404   4.071  20.400  0.00  0.00    +0.000 OA
ATOM     17  N   UNL     1       0.969   6.225  20.669  0.00  0.00    +0.000 N 
ATOM     18  H   UNL     1      -0.005   6.377  20.920  0.00  0.00    +0.000 HD
BRANCH  17  19
ATOM     19  C   UNL     1       1.878   7.341  20.793  0.00  0.00    +0.000 C 
BRANCH  19  20
ATOM     20  C   UNL     1       1.408   8.612  20.172  0.00  0.00    +0.000 A 
ATOM     21  C   UNL     1       1.707   8.838  18.813  0.00  0.00    +0.000 A 
ATOM     22  C   UNL     1       1.412  10.058  18.221  0.00  0.00    +0.000 A 
ATOM     23  C   UNL     1       0.806  11.049  18.979  0.00  0.00    +0.000 A 
ATOM     24  F   UNL     1       0.534  12.233  18.417  0.00  0.00    +0.000 F 
ATOM     25  C   UNL     1       0.491  10.839  20.321  0.00  0.00    +0.000 A 
ATOM     26  C   UNL     1       0.797   9.626  20.916  0.00  0.00    +0.000 A 
ATOM     27 CL   UNL     1       0.448   9.428  22.598  0.00  0.00    +0.000 Cl
ENDBRANCH  19  20
ENDBRANCH  17  19
ENDBRANCH   3  15
TORSDOF 4
ENDMDL
MODEL 4
REMARK VINA RESULT:      -7.5      3.045      5.990
REMARK  Name = 
REMARK  6 active torsions:
REMARK  status: ('A' for Active; 'I' for Inactive)
REMARK    1  A    between atoms: C_1  and  C_2
REMARK    2  A    between atoms: C_7  and  N_8
REMARK    3  A    between atoms: C_10  and  C_11
REMARK    4  A    between atoms: N_13  and  C_14
REMARK    5  A    between atoms: C_14  and  C_15
REMARK    6  A    between atoms: N_23  and  C_24
REMARK                            x       y       z     vdW  Elec       q    Type
REMARK                         _______ _______ _______ _____ _____    ______ ____
ROOT
ATOM      1  N   UNL     1       3.859   4.310  17.712  0.00  0.00    +0.000 N 
ATOM      2  C   UNL     1       3.823   4.911  19.028  0.00  0.00    +0.000 C 
ATOM      3  C   UNL     1       2.891   3.933  19.758  0.00  0.00    +0.000 C 
ATOM      4  N   UNL     1       1.940   3.613  18.678  0.00  0.00    +0.000 N 
ATOM      5  C   UNL     1       0.773   2.765  18.738  0.00  0.00    +0.000 C 
ATOM      6  C   UNL     1       2.641   3.643  17.459  0.00  0.00    +0.000 C 
ATOM      7  O   UNL     1       2.253   3.178  16.410  0.00  0.00    +0.000 OA
ENDROOT
BRANCH   1  14
ATOM      8  C   UNL     1       4.454   7.097  16.891  0.00  0.00    +0.000 C 
ATOM      9  C   UNL     1       5.151   5.885  16.344  0.00  0.00    +0.000 A 
ATOM     10  N   UNL     1       6.065   6.140  15.369  0.00  0.00    +0.000 NA
ATOM     11  C   UNL     1       6.682   5.087  14.796  0.00  0.00    +0.000 A 
ATOM     12  C   UNL     1       6.422   3.769  15.125  0.00  0.00    +0.000 A 
ATOM     13  C   UNL     1       5.454   3.509  16.090  0.00  0.00    +0.000 A 
ATOM     14  C   UNL     1       4.812   4.574  16.725  0.00  0.00    +0.000 A 
ENDBRANCH   1  14
BRANCH   3  15
ATOM     15  C   UNL     1       2.388   4.477  21.101  0.00  0.00    +0.000 C 
ATOM     16  O   UNL     1       2.315   3.776  22.109  0.00  0.00    +0.000 OA
ATOM     17  N   UNL     1       1.960   5.775  21.156  0.00  0.00    +0.000 N 
ATOM     18  H   UNL     1       1.681   6.089  22.082  0.00  0.00    +0.000 HD
BRANCH  17  19
ATOM     19  C   UNL     1       2.032   6.761  20.103  0.00  0.00    +0.000 C 
BRANCH  19  20
ATOM     20  C   UNL     1       1.524   8.114  20.467  0.00  0.00    +0.000 A 
ATOM     21  C   UNL     1       1.194   8.360  21.815  0.00  0.00    +0.000 A 
ATOM     22  C   UNL     1       0.593   9.554  22.187  0.00  0.00    +0.000 A 
ATOM     23  C   UNL     1       0.334  10.511  21.217  0.00  0.00    +0.000 A 
ATOM     24  F   UNL     1      -0.261  11.659  21.567  0.00  0.00    +0.000 F 
ATOM     25  C   UNL     1       0.665  10.292  19.880  0.00  0.00    +0.000 A 
ATOM     26  C   UNL     1       1.253   9.094  19.507  0.00  0.00    +0.000 A 
ATOM     27 CL   UNL     1       1.590   8.835  17.831  0.00  0.00    +0.000 Cl
ENDBRANCH  19  20
ENDBRANCH  17  19
ENDBRANCH   3  15
TORSDOF 4
ENDMDL
MODEL 5
REMARK VINA RESULT:      -7.4      4.099      6.829
REMARK  Name = 
REMARK  6 active torsions:
REMARK  status: ('A' for Active; 'I' for Inactive)
REMARK    1  A    between atoms: C_1  and  C_2
REMARK    2  A    between atoms: C_7  and  N_8
REMARK    3  A    between atoms: C_10  and  C_11
REMARK    4  A    between atoms: N_13  and  C_14
REMARK    5  A    between atoms: C_14  and  C_15
REMARK    6  A    between atoms: N_23  and  C_24
REMARK                            x       y       z     vdW  Elec       q    Type
REMARK                         _______ _______ _______ _____ _____    ______ ____
ROOT
ATOM      1  N   UNL     1      -1.066  10.839  19.171  0.00  0.00    +0.000 N 
ATOM      2  C   UNL     1      -0.762   9.756  20.081  0.00  0.00    +0.000 C 
ATOM      3  C   UNL     1       0.049  10.506  21.149  0.00  0.00    +0.000 C 
ATOM      4  N   UNL     1       0.787  11.460  20.303  0.00  0.00    +0.000 N 
ATOM      5  C   UNL     1       1.772  12.436  20.707  0.00  0.00    +0.000 C 
ATOM      6  C   UNL     1      -0.035  11.802  19.214  0.00  0.00    +0.000 C 
ATOM      7  O   UNL     1       0.131  12.746  18.472  0.00  0.00    +0.000 OA
ENDROOT
BRANCH   1  14
ATOM      8  C   UNL     1      -3.589  12.354  19.546  0.00  0.00    +0.000 C 
ATOM      9  C   UNL     1      -3.250  11.563  18.316  0.00  0.00    +0.000 A 
ATOM     10  N   UNL     1      -4.226  11.528  17.369  0.00  0.00    +0.000 NA
ATOM     11  C   UNL     1      -4.005  10.783  16.266  0.00  0.00    +0.000 A 
ATOM     12  C   UNL     1      -2.858  10.040  16.056  0.00  0.00    +0.000 A 
ATOM     13  C   UNL     1      -1.881  10.041  17.046  0.00  0.00    +0.000 A 
ATOM     14  C   UNL     1      -2.062  10.820  18.191  0.00  0.00    +0.000 A 
ENDBRANCH   1  14
BRANCH   3  15
ATOM     15  C   UNL     1       0.801   9.565  22.097  0.00  0.00    +0.000 C 
ATOM     16  O   UNL     1       0.765   9.696  23.320  0.00  0.00    +0.000 OA
ATOM     17  N   UNL     1       1.577   8.579  21.554  0.00  0.00    +0.000 N 
ATOM     18  H   UNL     1       2.014   7.961  22.233  0.00  0.00    +0.000 HD
BRANCH  17  19
ATOM     19  C   UNL     1       1.690   8.231  20.156  0.00  0.00    +0.000 C 
BRANCH  19  20
ATOM     20  C   UNL     1       2.086   6.820  19.885  0.00  0.00    +0.000 A 
ATOM     21  C   UNL     1       1.719   5.834  20.824  0.00  0.00    +0.000 A 
ATOM     22  C   UNL     1       2.175   4.530  20.690  0.00  0.00    +0.000 A 
ATOM     23  C   UNL     1       2.985   4.204  19.612  0.00  0.00    +0.000 A 
ATOM     24  F   UNL     1       3.441   2.951  19.488  0.00  0.00    +0.000 F 
ATOM     25  C   UNL     1       3.347   5.161  18.666  0.00  0.00    +0.000 A 
ATOM     26  C   UNL     1       2.904   6.466  18.807  0.00  0.00    +0.000 A 
ATOM     27 CL   UNL     1       3.426   7.638  17.648  0.00  0.00    +0.000 Cl
ENDBRANCH  19  20
ENDBRANCH  17  19
ENDBRANCH   3  15
TORSDOF 4
ENDMDL
MODEL 6
REMARK VINA RESULT:      -7.2      2.671      3.201
REMARK  Name = 
REMARK  6 active torsions:
REMARK  status: ('A' for Active; 'I' for Inactive)
REMARK    1  A    between atoms: C_1  and  C_2
REMARK    2  A    between atoms: C_7  and  N_8
REMARK    3  A    between atoms: C_10  and  C_11
REMARK    4  A    between atoms: N_13  and  C_14
REMARK    5  A    between atoms: C_14  and  C_15
REMARK    6  A    between atoms: N_23  and  C_24
REMARK                            x       y       z     vdW  Elec       q    Type
REMARK                         _______ _______ _______ _____ _____    ______ ____
ROOT
ATOM      1  N   UNL     1       2.445   6.389  19.764  0.00  0.00    +0.000 N 
ATOM      2  C   UNL     1       3.821   6.167  19.379  0.00  0.00    +0.000 C 
ATOM      3  C   UNL     1       3.718   4.765  18.762  0.00  0.00    +0.000 C 
ATOM      4  N   UNL     1       2.724   4.151  19.661  0.00  0.00    +0.000 N 
ATOM      5  C   UNL     1       2.218   2.798  19.641  0.00  0.00    +0.000 C 
ATOM      6  C   UNL     1       1.831   5.156  20.073  0.00  0.00    +0.000 C 
ATOM      7  O   UNL     1       0.751   4.973  20.590  0.00  0.00    +0.000 OA
ENDROOT
BRANCH   1  14
ATOM      8  C   UNL     1       2.053   8.434  17.651  0.00  0.00    +0.000 C 
ATOM      9  C   UNL     1       1.635   8.604  19.083  0.00  0.00    +0.000 A 
ATOM     10  N   UNL     1       1.100   9.818  19.384  0.00  0.00    +0.000 NA
ATOM     11  C   UNL     1       0.759  10.053  20.668  0.00  0.00    +0.000 A 
ATOM     12  C   UNL     1       0.945   9.143  21.693  0.00  0.00    +0.000 A 
ATOM     13  C   UNL     1       1.535   7.920  21.391  0.00  0.00    +0.000 A 
ATOM     14  C   UNL     1       1.877   7.630  20.068  0.00  0.00    +0.000 A 
ENDBRANCH   1  14
BRANCH   3  15
ATOM     15  C   UNL     1       5.085   4.104  18.547  0.00  0.00    +0.000 C 
ATOM     16  O   UNL     1       5.843   3.843  19.480  0.00  0.00    +0.000 OA
ATOM     17  N   UNL     1       5.486   3.843  17.266  0.00  0.00    +0.000 N 
ATOM     18  H   UNL     1       6.380   3.364  17.192  0.00  0.00    +0.000 HD
BRANCH  17  19
ATOM     19  C   UNL     1       4.711   4.014  16.059  0.00  0.00    +0.000 C 
BRANCH  19  20
ATOM     20  C   UNL     1       5.510   4.223  14.818  0.00  0.00    +0.000 A 
ATOM     21  C   UNL     1       5.132   3.516  13.658  0.00  0.00    +0.000 A 
ATOM     22  C   UNL     1       5.917   3.569  12.514  0.00  0.00    +0.000 A 
ATOM     23  C   UNL     1       7.071   4.339  12.522  0.00  0.00    +0.000 A 
ATOM     24  F   UNL     1       7.840   4.380  11.426  0.00  0.00    +0.000 F 
ATOM     25  C   UNL     1       7.454   5.055  13.654  0.00  0.00    +0.000 A 
ATOM     26  C   UNL     1       6.678   4.992  14.801  0.00  0.00    +0.000 A 
ATOM     27 CL   UNL     1       7.219   5.844  16.204  0.00  0.00    +0.000 Cl
ENDBRANCH  19  20
ENDBRANCH  17  19
ENDBRANCH   3  15
TORSDOF 4
ENDMDL
MODEL 7
REMARK VINA RESULT:      -7.2      2.842      6.122
REMARK  Name = 
REMARK  6 active torsions:
REMARK  status: ('A' for Active; 'I' for Inactive)
REMARK    1  A    between atoms: C_1  and  C_2
REMARK    2  A    between atoms: C_7  and  N_8
REMARK    3  A    between atoms: C_10  and  C_11
REMARK    4  A    between atoms: N_13  and  C_14
REMARK    5  A    between atoms: C_14  and  C_15
REMARK    6  A    between atoms: N_23  and  C_24
REMARK                            x       y       z     vdW  Elec       q    Type
REMARK                         _______ _______ _______ _____ _____    ______ ____
ROOT
ATOM      1  N   UNL     1       4.151   4.092  17.820  0.00  0.00    +0.000 N 
ATOM      2  C   UNL     1       4.038   4.735  19.112  0.00  0.00    +0.000 C 
ATOM      3  C   UNL     1       3.044   3.793  19.807  0.00  0.00    +0.000 C 
ATOM      4  N   UNL     1       2.161   3.455  18.677  0.00  0.00    +0.000 N 
ATOM      5  C   UNL     1       0.978   2.626  18.684  0.00  0.00    +0.000 C 
ATOM      6  C   UNL     1       2.941   3.436  17.507  0.00  0.00    +0.000 C 
ATOM      7  O   UNL     1       2.616   2.945  16.448  0.00  0.00    +0.000 OA
ENDROOT
BRANCH   1  14
ATOM      8  C   UNL     1       6.844   4.965  18.706  0.00  0.00    +0.000 C 
ATOM      9  C   UNL     1       6.472   4.682  17.279  0.00  0.00    +0.000 A 
ATOM     10  N   UNL     1       7.458   4.914  16.372  0.00  0.00    +0.000 NA
ATOM     11  C   UNL     1       7.165   4.736  15.067  0.00  0.00    +0.000 A 
ATOM     12  C   UNL     1       5.919   4.355  14.602  0.00  0.00    +0.000 A 
ATOM     13  C   UNL     1       4.900   4.163  15.529  0.00  0.00    +0.000 A 
ATOM     14  C   UNL     1       5.171   4.312  16.890  0.00  0.00    +0.000 A 
ENDBRANCH   1  14
BRANCH   3  15
ATOM     15  C   UNL     1       2.462   4.386  21.097  0.00  0.00    +0.000 C 
ATOM     16  O   UNL     1       2.293   3.713  22.112  0.00  0.00    +0.000 OA
ATOM     17  N   UNL     1       2.076   5.698  21.092  0.00  0.00    +0.000 N 
ATOM     18  H   UNL     1       1.741   6.044  21.987  0.00  0.00    +0.000 HD
BRANCH  17  19
ATOM     19  C   UNL     1       2.258   6.655  20.025  0.00  0.00    +0.000 C 
BRANCH  19  20
ATOM     20  C   UNL     1       1.584   7.968  20.231  0.00  0.00    +0.000 A 
ATOM     21  C   UNL     1       0.933   8.196  21.460  0.00  0.00    +0.000 A 
ATOM     22  C   UNL     1       0.177   9.344  21.656  0.00  0.00    +0.000 A 
ATOM     23  C   UNL     1       0.082  10.273  20.630  0.00  0.00    +0.000 A 
ATOM     24  F   UNL     1      -0.659  11.374  20.808  0.00  0.00    +0.000 F 
ATOM     25  C   UNL     1       0.729  10.072  19.412  0.00  0.00    +0.000 A 
ATOM     26  C   UNL     1       1.472   8.920  19.212  0.00  0.00    +0.000 A 
ATOM     27 CL   UNL     1       2.208   8.677  17.666  0.00  0.00    +0.000 Cl
ENDBRANCH  19  20
ENDBRANCH  17  19
ENDBRANCH   3  15
TORSDOF 4
ENDMDL
MODEL 8
REMARK VINA RESULT:      -7.1      3.329      3.984
REMARK  Name = 
REMARK  6 active torsions:
REMARK  status: ('A' for Active; 'I' for Inactive)
REMARK    1  A    between atoms: C_1  and  C_2
REMARK    2  A    between atoms: C_7  and  N_8
REMARK    3  A    between atoms: C_10  and  C_11
REMARK    4  A    between atoms: N_13  and  C_14
REMARK    5  A    between atoms: C_14  and  C_15
REMARK    6  A    between atoms: N_23  and  C_24
REMARK                            x       y       z     vdW  Elec       q    Type
REMARK                         _______ _______ _______ _____ _____    ______ ____
ROOT
ATOM      1  N   UNL     1       3.182   6.192  18.911  0.00  0.00    +0.000 N 
ATOM      2  C   UNL     1       4.627   6.245  18.861  0.00  0.00    +0.000 C 
ATOM      3  C   UNL     1       4.909   5.216  17.757  0.00  0.00    +0.000 C 
ATOM      4  N   UNL     1       3.864   4.219  18.048  0.00  0.00    +0.000 N 
ATOM      5  C   UNL     1       3.619   2.961  17.382  0.00  0.00    +0.000 C 
ATOM      6  C   UNL     1       2.741   4.900  18.550  0.00  0.00    +0.000 C 
ATOM      7  O   UNL     1       1.622   4.445  18.644  0.00  0.00    +0.000 OA
ENDROOT
BRANCH   1  14
ATOM      8  C   UNL     1       2.559   8.717  17.485  0.00  0.00    +0.000 C 
ATOM      9  C   UNL     1       2.000   8.342  18.827  0.00  0.00    +0.000 A 
ATOM     10  N   UNL     1       1.209   9.286  19.404  0.00  0.00    +0.000 NA
ATOM     11  C   UNL     1       0.726   9.032  20.637  0.00  0.00    +0.000 A 
ATOM     12  C   UNL     1       1.008   7.882  21.354  0.00  0.00    +0.000 A 
ATOM     13  C   UNL     1       1.854   6.939  20.780  0.00  0.00    +0.000 A 
ATOM     14  C   UNL     1       2.353   7.154  19.494  0.00  0.00    +0.000 A 
ENDBRANCH   1  14
BRANCH   3  15
ATOM     15  C   UNL     1       6.383   4.800  17.690  0.00  0.00    +0.000 C 
ATOM     16  O   UNL     1       6.931   4.169  18.593  0.00  0.00    +0.000 OA
ATOM     17  N   UNL     1       7.120   5.191  16.606  0.00  0.00    +0.000 N 
ATOM     18  H   UNL     1       8.076   4.846  16.598  0.00  0.00    +0.000 HD
BRANCH  17  19
ATOM     19  C   UNL     1       6.639   5.871  15.426  0.00  0.00    +0.000 C 
BRANCH  19  20
ATOM     20  C   UNL     1       6.407   4.997  14.241  0.00  0.00    +0.000 A 
ATOM     21  C   UNL     1       5.269   4.165  14.242  0.00  0.00    +0.000 A 
ATOM     22  C   UNL     1       5.075   3.235  13.229  0.00  0.00    +0.000 A 
ATOM     23  C   UNL     1       6.008   3.146  12.206  0.00  0.00    +0.000 A 
ATOM     24  F   UNL     1       5.834   2.241  11.235  0.00  0.00    +0.000 F 
ATOM     25  C   UNL     1       7.133   3.970  12.181  0.00  0.00    +0.000 A 
ATOM     26  C   UNL     1       7.334   4.888  13.199  0.00  0.00    +0.000 A 
ATOM     27 CL   UNL     1       8.772   5.846  13.166  0.00  0.00    +0.000 Cl
ENDBRANCH  19  20
ENDBRANCH  17  19
ENDBRANCH   3  15
TORSDOF 4
ENDMDL
MODEL 9
REMARK VINA RESULT:      -7.1      0.665      1.414
REMARK  Name = 
REMARK  6 active torsions:
REMARK  status: ('A' for Active; 'I' for Inactive)
REMARK    1  A    between atoms: C_1  and  C_2
REMARK    2  A    between atoms: C_7  and  N_8
REMARK    3  A    between atoms: C_10  and  C_11
REMARK    4  A    between atoms: N_13  and  C_14
REMARK    5  A    between atoms: C_14  and  C_15
REMARK    6  A    between atoms: N_23  and  C_24
REMARK                            x       y       z     vdW  Elec       q    Type
REMARK                         _______ _______ _______ _____ _____    ______ ____
ROOT
ATOM      1  N   UNL     1       2.354   6.165  19.503  0.00  0.00    +0.000 N 
ATOM      2  C   UNL     1       3.708   5.657  19.458  0.00  0.00    +0.000 C 
ATOM      3  C   UNL     1       3.439   4.150  19.339  0.00  0.00    +0.000 C 
ATOM      4  N   UNL     1       2.254   4.021  20.206  0.00  0.00    +0.000 N 
ATOM      5  C   UNL     1       1.528   2.822  20.554  0.00  0.00    +0.000 C 
ATOM      6  C   UNL     1       1.505   5.206  20.096  0.00  0.00    +0.000 C 
ATOM      7  O   UNL     1       0.355   5.351  20.449  0.00  0.00    +0.000 OA
ENDROOT
BRANCH   1  14
ATOM      8  C   UNL     1       1.416   7.885  21.730  0.00  0.00    +0.000 C 
ATOM      9  C   UNL     1       1.570   8.347  20.310  0.00  0.00    +0.000 A 
ATOM     10  N   UNL     1       1.184   9.630  20.079  0.00  0.00    +0.000 NA
ATOM     11  C   UNL     1       1.242  10.085  18.810  0.00  0.00    +0.000 A 
ATOM     12  C   UNL     1       1.648   9.316  17.734  0.00  0.00    +0.000 A 
ATOM     13  C   UNL     1       1.998   7.989  17.966  0.00  0.00    +0.000 A 
ATOM     14  C   UNL     1       1.976   7.490  19.270  0.00  0.00    +0.000 A 
ENDBRANCH   1  14
BRANCH   3  15
ATOM     15  C   UNL     1       4.688   3.298  19.599  0.00  0.00    +0.000 C 
ATOM     16  O   UNL     1       4.771   2.526  20.553  0.00  0.00    +0.000 OA
ATOM     17  N   UNL     1       5.760   3.446  18.763  0.00  0.00    +0.000 N 
ATOM     18  H   UNL     1       6.539   2.822  18.960  0.00  0.00    +0.000 HD
BRANCH  17  19
ATOM     19  C   UNL     1       5.824   4.245  17.562  0.00  0.00    +0.000 C 
BRANCH  19  20
ATOM     20  C   UNL     1       6.625   5.496  17.675  0.00  0.00    +0.000 A 
ATOM     21  C   UNL     1       7.628   5.556  18.664  0.00  0.00    +0.000 A 
ATOM     22  C   UNL     1       8.313   6.740  18.903  0.00  0.00    +0.000 A 
ATOM     23  C   UNL     1       8.008   7.861  18.146  0.00  0.00    +0.000 A 
ATOM     24  F   UNL     1       8.655   9.010  18.383  0.00  0.00    +0.000 F 
ATOM     25  C   UNL     1       7.030   7.818  17.154  0.00  0.00    +0.000 A 
ATOM     26  C   UNL     1       6.337   6.640  16.925  0.00  0.00    +0.000 A 
ATOM     27 CL   UNL     1       5.087   6.645  15.730  0.00  0.00    +0.000 Cl
ENDBRANCH  19  20
ENDBRANCH  17  19
ENDBRANCH   3  15
TORSDOF 4
ENDMDL
