MODEL 1
REMARK VINA RESULT:      -8.3      0.000      0.000
REMARK  Name = 
REMARK  5 active torsions:
REMARK  status: ('A' for Active; 'I' for Inactive)
REMARK    1  A    between atoms: C_2  and  C_20
REMARK    2  A    between atoms: N_3  and  C_4
REMARK    3  A    between atoms: C_8  and  C_9
REMARK    4  A    between atoms: C_13  and  C_14
REMARK    5  A    between atoms: C_24  and  C_25
REMARK                            x       y       z     vdW  Elec       q    Type
REMARK                         _______ _______ _______ _____ _____    ______ ____
ROOT
ATOM      1  O   UNL     1       1.393   7.158  17.462  0.00  0.00    +0.000 OA
ATOM      2  C   UNL     1       1.754   7.672  18.517  0.00  0.00    +0.000 C 
ATOM      3  N   UNL     1       2.237   6.986  19.613  0.00  0.00    +0.000 N 
ATOM      4  H   UNL     1       2.310   7.486  20.488  0.00  0.00    +0.000 HD
ENDROOT
BRANCH   3   5
ATOM      5  C   UNL     1       2.186   5.576  19.701  0.00  0.00    +0.000 A 
ATOM      6  C   UNL     1       1.077   5.030  20.371  0.00  0.00    +0.000 A 
ATOM      7  C   UNL     1       0.935   3.658  20.502  0.00  0.00    +0.000 A 
ATOM      8  C   UNL     1       1.911   2.831  19.968  0.00  0.00    +0.000 A 
ATOM      9  C   UNL     1       3.062   3.349  19.318  0.00  0.00    +0.000 A 
ATOM     10  C   UNL     1       3.229   4.761  19.167  0.00  0.00    +0.000 A 
BRANCH  10  11
ATOM     11  C   UNL     1       4.374   5.382  18.422  0.00  0.00    +0.000 A 
ATOM     12  C   UNL     1       4.299   5.720  17.058  0.00  0.00    +0.000 A 
ATOM     13  C   UNL     1       5.409   6.200  16.358  0.00  0.00    +0.000 A 
ATOM     14  C   UNL     1       6.577   6.418  17.058  0.00  0.00    +0.000 A 
ATOM     15  N   UNL     1       6.710   6.140  18.365  0.00  0.00    +0.000 NA
ATOM     16  C   UNL     1       5.630   5.605  18.996  0.00  0.00    +0.000 A 
ENDBRANCH  10  11
BRANCH   9  17
ATOM     17  C   UNL     1       4.049   2.313  18.812  0.00  0.00    +0.000 C 
ATOM     18  F   UNL     1       3.533   1.047  18.790  0.00  0.00    +0.000 F 
ATOM     19  F   UNL     1       4.450   2.541  17.531  0.00  0.00    +0.000 F 
ATOM     20  F   UNL     1       5.175   2.224  19.567  0.00  0.00    +0.000 F 
ENDBRANCH   9  17
ENDBRANCH   3   5
BRANCH   2  21
ATOM     21  C   UNL     1       1.642   9.136  18.698  0.00  0.00    +0.000 A 
ATOM     22  C   UNL     1       2.434  10.045  17.987  0.00  0.00    +0.000 A 
ATOM     23  C   UNL     1       2.268  11.410  18.215  0.00  0.00    +0.000 A 
ATOM     24  C   UNL     1       1.341  11.862  19.165  0.00  0.00    +0.000 A 
ATOM     25  C   UNL     1       0.576  10.965  19.935  0.00  0.00    +0.000 A 
ATOM     26  C   UNL     1       0.715   9.596  19.636  0.00  0.00    +0.000 A 
BRANCH  25  27
ATOM     27  C   UNL     1      -0.327  11.373  21.033  0.00  0.00    +0.000 A 
ATOM     28  N   UNL     1      -1.204  12.361  20.678  0.00  0.00    +0.000 NA
ATOM     29  C   UNL     1      -2.165  12.725  21.554  0.00  0.00    +0.000 A 
ATOM     30  C   UNL     1      -2.306  12.161  22.804  0.00  0.00    +0.000 A 
ATOM     31  C   UNL     1      -1.405  11.168  23.179  0.00  0.00    +0.000 A 
ATOM     32  C   UNL     1      -0.410  10.754  22.288  0.00  0.00    +0.000 A 
ATOM     33 CL   UNL     1       0.576   9.429  22.792  0.00  0.00    +0.000 Cl
ENDBRANCH  25  27
ENDBRANCH   2  21
TORSDOF 5
ENDMDL
MODEL 2
REMARK VINA RESULT:      -8.1      1.944      3.897
REMARK  Name = 
REMARK  5 active torsions:
REMARK  status: ('A' for Active; 'I' for Inactive)
REMARK    1  A    between atoms: C_2  and  C_20
REMARK    2  A    between atoms: N_3  and  C_4
REMARK    3  A    between atoms: C_8  and  C_9
REMARK    4  A    between atoms: C_13  and  C_14
REMARK    5  A    between atoms: C_24  and  C_25
REMARK                            x       y       z     vdW  Elec       q    Type
REMARK                         _______ _______ _______ _____ _____    ______ ____
ROOT
ATOM      1  O   UNL     1       1.706   9.066  18.036  0.00  0.00    +0.000 OA
ATOM      2  C   UNL     1       1.801   8.545  19.143  0.00  0.00    +0.000 C 
ATOM      3  N   UNL     1       2.618   7.477  19.453  0.00  0.00    +0.000 N 
ATOM      4  H   UNL     1       2.465   7.006  20.334  0.00  0.00    +0.000 HD
ENDROOT
BRANCH   3   5
ATOM      5  C   UNL     1       3.300   6.737  18.460  0.00  0.00    +0.000 A 
ATOM      6  C   UNL     1       4.022   7.481  17.510  0.00  0.00    +0.000 A 
ATOM      7  C   UNL     1       4.729   6.845  16.503  0.00  0.00    +0.000 A 
ATOM      8  C   UNL     1       4.707   5.460  16.442  0.00  0.00    +0.000 A 
ATOM      9  C   UNL     1       3.960   4.679  17.363  0.00  0.00    +0.000 A 
ATOM     10  C   UNL     1       3.225   5.313  18.413  0.00  0.00    +0.000 A 
BRANCH  10  11
ATOM     11  C   UNL     1       2.478   4.555  19.472  0.00  0.00    +0.000 A 
ATOM     12  C   UNL     1       2.999   4.339  20.761  0.00  0.00    +0.000 A 
ATOM     13  C   UNL     1       2.335   3.543  21.698  0.00  0.00    +0.000 A 
ATOM     14  C   UNL     1       1.100   3.030  21.360  0.00  0.00    +0.000 A 
ATOM     15  N   UNL     1       0.536   3.217  20.156  0.00  0.00    +0.000 NA
ATOM     16  C   UNL     1       1.245   3.936  19.245  0.00  0.00    +0.000 A 
ENDBRANCH  10  11
BRANCH   9  17
ATOM     17  C   UNL     1       4.018   3.179  17.145  0.00  0.00    +0.000 C 
ATOM     18  F   UNL     1       4.313   2.484  18.285  0.00  0.00    +0.000 F 
ATOM     19  F   UNL     1       2.833   2.657  16.722  0.00  0.00    +0.000 F 
ATOM     20  F   UNL     1       4.960   2.797  16.243  0.00  0.00    +0.000 F 
ENDBRANCH   9  17
ENDBRANCH   3   5
BRANCH   2  21
ATOM     21  C   UNL     1       0.963   9.034  20.260  0.00  0.00    +0.000 A 
ATOM     22  C   UNL     1       0.405   8.176  21.214  0.00  0.00    +0.000 A 
ATOM     23  C   UNL     1      -0.375   8.715  22.236  0.00  0.00    +0.000 A 
ATOM     24  C   UNL     1      -0.619  10.095  22.288  0.00  0.00    +0.000 A 
ATOM     25  C   UNL     1      -0.117  10.970  21.306  0.00  0.00    +0.000 A 
ATOM     26  C   UNL     1       0.721  10.408  20.326  0.00  0.00    +0.000 A 
BRANCH  25  27
ATOM     27  C   UNL     1      -0.437  12.413  21.237  0.00  0.00    +0.000 A 
ATOM     28  N   UNL     1       0.441  13.199  21.932  0.00  0.00    +0.000 NA
ATOM     29  C   UNL     1       0.331  14.541  21.835  0.00  0.00    +0.000 A 
ATOM     30  C   UNL     1      -0.636  15.171  21.081  0.00  0.00    +0.000 A 
ATOM     31  C   UNL     1      -1.545  14.378  20.388  0.00  0.00    +0.000 A 
ATOM     32  C   UNL     1      -1.446  12.984  20.450  0.00  0.00    +0.000 A 
ATOM     33 CL   UNL     1      -2.535  12.087  19.454  0.00  0.00    +0.000 Cl
ENDBRANCH  25  27
ENDBRANCH   2  21
TORSDOF 5
ENDMDL
MODEL 3
REMARK VINA RESULT:      -7.9      1.118      1.310
REMARK  Name = 
REMARK  5 active torsions:
REMARK  status: ('A' for Active; 'I' for Inactive)
REMARK    1  A    between atoms: C_2  and  C_20
REMARK    2  A    between atoms: N_3  and  C_4
REMARK    3  A    between atoms: C_8  and  C_9
REMARK    4  A    between atoms: C_13  and  C_14
REMARK    5  A    between atoms: C_24  and  C_25
REMARK                            x       y       z     vdW  Elec       q    Type
REMARK                         _______ _______ _______ _____ _____    ______ ____
ROOT
ATOM      1  O   UNL     1       1.415   7.148  17.424  0.00  0.00    +0.000 OA
ATOM      2  C   UNL     1       1.780   7.675  18.472  0.00  0.00    +0.000 C 
ATOM      3  N   UNL     1       2.259   7.002  19.576  0.00  0.00    +0.000 N 
ATOM      4  H   UNL     1       2.336   7.513  20.444  0.00  0.00    +0.000 HD
ENDROOT
BRANCH   3   5
ATOM      5  C   UNL     1       2.199   5.593  19.685  0.00  0.00    +0.000 A 
ATOM      6  C   UNL     1       1.088   5.064  20.366  0.00  0.00    +0.000 A 
ATOM      7  C   UNL     1       0.938   3.696  20.516  0.00  0.00    +0.000 A 
ATOM      8  C   UNL     1       1.907   2.854  19.992  0.00  0.00    +0.000 A 
ATOM      9  C   UNL     1       3.060   3.355  19.331  0.00  0.00    +0.000 A 
ATOM     10  C   UNL     1       3.235   4.764  19.160  0.00  0.00    +0.000 A 
BRANCH  10  11
ATOM     11  C   UNL     1       4.382   5.367  18.404  0.00  0.00    +0.000 A 
ATOM     12  C   UNL     1       4.312   5.670  17.031  0.00  0.00    +0.000 A 
ATOM     13  C   UNL     1       5.424   6.133  16.323  0.00  0.00    +0.000 A 
ATOM     14  C   UNL     1       6.590   6.370  17.021  0.00  0.00    +0.000 A 
ATOM     15  N   UNL     1       6.718   6.124  18.335  0.00  0.00    +0.000 NA
ATOM     16  C   UNL     1       5.636   5.605  18.975  0.00  0.00    +0.000 A 
ENDBRANCH  10  11
BRANCH   9  17
ATOM     17  C   UNL     1       4.039   2.306  18.839  0.00  0.00    +0.000 C 
ATOM     18  F   UNL     1       3.506   1.047  18.814  0.00  0.00    +0.000 F 
ATOM     19  F   UNL     1       4.456   2.526  17.561  0.00  0.00    +0.000 F 
ATOM     20  F   UNL     1       5.156   2.204  19.606  0.00  0.00    +0.000 F 
ENDBRANCH   9  17
ENDBRANCH   3   5
BRANCH   2  21
ATOM     21  C   UNL     1       1.677   9.142  18.631  0.00  0.00    +0.000 A 
ATOM     22  C   UNL     1       2.498  10.035  17.932  0.00  0.00    +0.000 A 
ATOM     23  C   UNL     1       2.339  11.404  18.138  0.00  0.00    +0.000 A 
ATOM     24  C   UNL     1       1.391  11.877  19.056  0.00  0.00    +0.000 A 
ATOM     25  C   UNL     1       0.596  10.997  19.816  0.00  0.00    +0.000 A 
ATOM     26  C   UNL     1       0.729   9.623  19.537  0.00  0.00    +0.000 A 
BRANCH  25  27
ATOM     27  C   UNL     1      -0.334  11.427  20.883  0.00  0.00    +0.000 A 
ATOM     28  N   UNL     1      -0.347  10.588  21.963  0.00  0.00    +0.000 NA
ATOM     29  C   UNL     1      -1.057  10.945  23.055  0.00  0.00    +0.000 A 
ATOM     30  C   UNL     1      -1.788  12.111  23.139  0.00  0.00    +0.000 A 
ATOM     31  C   UNL     1      -1.795  12.959  22.035  0.00  0.00    +0.000 A 
ATOM     32  C   UNL     1      -1.054  12.629  20.896  0.00  0.00    +0.000 A 
ATOM     33 CL   UNL     1      -1.019  13.804  19.630  0.00  0.00    +0.000 Cl
ENDBRANCH  25  27
ENDBRANCH   2  21
TORSDOF 5
ENDMDL
MODEL 4
REMARK VINA RESULT:      -7.9      2.596      4.264
REMARK  Name = 
REMARK  5 active torsions:
REMARK  status: ('A' for Active; 'I' for Inactive)
REMARK    1  A    between atoms: C_2  and  C_20
REMARK    2  A    between atoms: N_3  and  C_4
REMARK    3  A    between atoms: C_8  and  C_9
REMARK    4  A    between atoms: C_13  and  C_14
REMARK    5  A    between atoms: C_24  and  C_25
REMARK                            x       y       z     vdW  Elec       q    Type
REMARK                         _______ _______ _______ _____ _____    ______ ____
ROOT
ATOM      1  O   UNL     1       2.455   9.409  17.224  0.00  0.00    +0.000 OA
ATOM      2  C   UNL     1       2.070   8.835  18.238  0.00  0.00    +0.000 C 
ATOM      3  N   UNL     1       2.540   7.621  18.692  0.00  0.00    +0.000 N 
ATOM      4  H   UNL     1       2.014   7.151  19.416  0.00  0.00    +0.000 HD
ENDROOT
BRANCH   3   5
ATOM      5  C   UNL     1       3.398   6.807  17.918  0.00  0.00    +0.000 A 
ATOM      6  C   UNL     1       4.209   7.467  16.979  0.00  0.00    +0.000 A 
ATOM      7  C   UNL     1       5.088   6.756  16.179  0.00  0.00    +0.000 A 
ATOM      8  C   UNL     1       5.149   5.377  16.313  0.00  0.00    +0.000 A 
ATOM      9  C   UNL     1       4.319   4.674  17.226  0.00  0.00    +0.000 A 
ATOM     10  C   UNL     1       3.406   5.387  18.065  0.00  0.00    +0.000 A 
BRANCH  10  11
ATOM     11  C   UNL     1       2.556   4.726  19.109  0.00  0.00    +0.000 A 
ATOM     12  C   UNL     1       2.931   4.658  20.463  0.00  0.00    +0.000 A 
ATOM     13  C   UNL     1       2.176   3.947  21.400  0.00  0.00    +0.000 A 
ATOM     14  C   UNL     1       0.994   3.371  20.984  0.00  0.00    +0.000 A 
ATOM     15  N   UNL     1       0.566   3.418  19.712  0.00  0.00    +0.000 NA
ATOM     16  C   UNL     1       1.364   4.056  18.814  0.00  0.00    +0.000 A 
ENDBRANCH  10  11
BRANCH   9  17
ATOM     17  C   UNL     1       4.487   3.166  17.234  0.00  0.00    +0.000 C 
ATOM     18  F   UNL     1       5.450   2.731  16.366  0.00  0.00    +0.000 F 
ATOM     19  F   UNL     1       4.874   2.681  18.446  0.00  0.00    +0.000 F 
ATOM     20  F   UNL     1       3.361   2.493  16.882  0.00  0.00    +0.000 F 
ENDBRANCH   9  17
ENDBRANCH   3   5
BRANCH   2  21
ATOM     21  C   UNL     1       0.984   9.428  19.050  0.00  0.00    +0.000 A 
ATOM     22  C   UNL     1       1.009   9.435  20.449  0.00  0.00    +0.000 A 
ATOM     23  C   UNL     1      -0.054  10.012  21.143  0.00  0.00    +0.000 A 
ATOM     24  C   UNL     1      -1.145  10.551  20.446  0.00  0.00    +0.000 A 
ATOM     25  C   UNL     1      -1.220  10.501  19.041  0.00  0.00    +0.000 A 
ATOM     26  C   UNL     1      -0.103   9.974  18.365  0.00  0.00    +0.000 A 
BRANCH  25  27
ATOM     27  C   UNL     1      -2.394  10.942  18.255  0.00  0.00    +0.000 A 
ATOM     28  N   UNL     1      -2.472  10.359  17.020  0.00  0.00    +0.000 NA
ATOM     29  C   UNL     1      -3.568  10.581  16.263  0.00  0.00    +0.000 A 
ATOM     30  C   UNL     1      -4.617  11.381  16.662  0.00  0.00    +0.000 A 
ATOM     31  C   UNL     1      -4.535  11.994  17.909  0.00  0.00    +0.000 A 
ATOM     32  C   UNL     1      -3.422  11.769  18.727  0.00  0.00    +0.000 A 
ATOM     33 CL   UNL     1      -3.470  12.465  20.307  0.00  0.00    +0.000 Cl
ENDBRANCH  25  27
ENDBRANCH   2  21
TORSDOF 5
ENDMDL
MODEL 5
REMARK VINA RESULT:      -7.8      5.305      9.119
REMARK  Name = 
REMARK  5 active torsions:
REMARK  status: ('A' for Active; 'I' for Inactive)
REMARK    1  A    between atoms: C_2  and  C_20
REMARK    2  A    between atoms: N_3  and  C_4
REMARK    3  A    between atoms: C_8  and  C_9
REMARK    4  A    between atoms: C_13  and  C_14
REMARK    5  A    between atoms: C_24  and  C_25
REMARK                            x       y       z     vdW  Elec       q    Type
REMARK                         _______ _______ _______ _____ _____    ______ ____
ROOT
ATOM      1  O   UNL     1       1.398   9.662  22.275  0.00  0.00    +0.000 OA
ATOM      2  C   UNL     1       1.138   9.903  21.099  0.00  0.00    +0.000 C 
ATOM      3  N   UNL     1       0.444  11.007  20.648  0.00  0.00    +0.000 N 
ATOM      4  H   UNL     1       0.114  10.999  19.693  0.00  0.00    +0.000 HD
ENDROOT
BRANCH   3   5
ATOM      5  C   UNL     1      -0.216  11.894  21.529  0.00  0.00    +0.000 A 
ATOM      6  C   UNL     1      -1.223  11.340  22.339  0.00  0.00    +0.000 A 
ATOM      7  C   UNL     1      -1.920  12.128  23.240  0.00  0.00    +0.000 A 
ATOM      8  C   UNL     1      -1.615  13.478  23.323  0.00  0.00    +0.000 A 
ATOM      9  C   UNL     1      -0.630  14.078  22.495  0.00  0.00    +0.000 A 
ATOM     10  C   UNL     1       0.105  13.284  21.561  0.00  0.00    +0.000 A 
BRANCH  10  11
ATOM     11  C   UNL     1       1.216  13.828  20.710  0.00  0.00    +0.000 A 
ATOM     12  C   UNL     1       1.000  14.340  19.417  0.00  0.00    +0.000 A 
ATOM     13  C   UNL     1       2.060  14.744  18.601  0.00  0.00    +0.000 A 
ATOM     14  C   UNL     1       3.336  14.708  19.123  0.00  0.00    +0.000 A 
ATOM     15  N   UNL     1       3.609  14.253  20.356  0.00  0.00    +0.000 NA
ATOM     16  C   UNL     1       2.560  13.799  21.094  0.00  0.00    +0.000 A 
ENDBRANCH  10  11
BRANCH   9  17
ATOM     17  C   UNL     1      -0.433  15.570  22.690  0.00  0.00    +0.000 C 
ATOM     18  F   UNL     1       0.847  15.900  23.039  0.00  0.00    +0.000 F 
ATOM     19  F   UNL     1      -0.677  16.291  21.561  0.00  0.00    +0.000 F 
ATOM     20  F   UNL     1      -1.215  16.097  23.669  0.00  0.00    +0.000 F 
ENDBRANCH   9  17
ENDBRANCH   3   5
BRANCH   2  21
ATOM     21  C   UNL     1       1.539   8.945  20.046  0.00  0.00    +0.000 A 
ATOM     22  C   UNL     1       1.612   9.299  18.694  0.00  0.00    +0.000 A 
ATOM     23  C   UNL     1       1.997   8.337  17.762  0.00  0.00    +0.000 A 
ATOM     24  C   UNL     1       2.278   7.026  18.172  0.00  0.00    +0.000 A 
ATOM     25  C   UNL     1       2.154   6.631  19.518  0.00  0.00    +0.000 A 
ATOM     26  C   UNL     1       1.829   7.638  20.446  0.00  0.00    +0.000 A 
BRANCH  25  27
ATOM     27  C   UNL     1       2.319   5.241  19.995  0.00  0.00    +0.000 A 
ATOM     28  N   UNL     1       1.160   4.685  20.464  0.00  0.00    +0.000 NA
ATOM     29  C   UNL     1       1.156   3.378  20.804  0.00  0.00    +0.000 A 
ATOM     30  C   UNL     1       2.267   2.567  20.718  0.00  0.00    +0.000 A 
ATOM     31  C   UNL     1       3.454   3.131  20.260  0.00  0.00    +0.000 A 
ATOM     32  C   UNL     1       3.488   4.477  19.881  0.00  0.00    +0.000 A 
ATOM     33 CL   UNL     1       4.969   5.052  19.203  0.00  0.00    +0.000 Cl
ENDBRANCH  25  27
ENDBRANCH   2  21
TORSDOF 5
ENDMDL
MODEL 6
REMARK VINA RESULT:      -7.8      1.892      3.761
REMARK  Name = 
REMARK  5 active torsions:
REMARK  status: ('A' for Active; 'I' for Inactive)
REMARK    1  A    between atoms: C_2  and  C_20
REMARK    2  A    between atoms: N_3  and  C_4
REMARK    3  A    between atoms: C_8  and  C_9
REMARK    4  A    between atoms: C_13  and  C_14
REMARK    5  A    between atoms: C_24  and  C_25
REMARK                            x       y       z     vdW  Elec       q    Type
REMARK                         _______ _______ _______ _____ _____    ______ ____
ROOT
ATOM      1  O   UNL     1       1.680   9.054  18.390  0.00  0.00    +0.000 OA
ATOM      2  C   UNL     1       1.771   8.462  19.462  0.00  0.00    +0.000 C 
ATOM      3  N   UNL     1       2.581   7.372  19.702  0.00  0.00    +0.000 N 
ATOM      4  H   UNL     1       2.424   6.846  20.551  0.00  0.00    +0.000 HD
ENDROOT
BRANCH   3   5
ATOM      5  C   UNL     1       3.261   6.694  18.665  0.00  0.00    +0.000 A 
ATOM      6  C   UNL     1       3.942   7.497  17.733  0.00  0.00    +0.000 A 
ATOM      7  C   UNL     1       4.644   6.924  16.686  0.00  0.00    +0.000 A 
ATOM      8  C   UNL     1       4.657   5.543  16.565  0.00  0.00    +0.000 A 
ATOM      9  C   UNL     1       3.951   4.703  17.467  0.00  0.00    +0.000 A 
ATOM     10  C   UNL     1       3.223   5.271  18.558  0.00  0.00    +0.000 A 
BRANCH  10  11
ATOM     11  C   UNL     1       2.520   4.449  19.598  0.00  0.00    +0.000 A 
ATOM     12  C   UNL     1       1.245   3.890  19.390  0.00  0.00    +0.000 A 
ATOM     13  C   UNL     1       0.563   3.217  20.407  0.00  0.00    +0.000 A 
ATOM     14  C   UNL     1       1.205   3.036  21.614  0.00  0.00    +0.000 A 
ATOM     15  N   UNL     1       2.430   3.522  21.871  0.00  0.00    +0.000 NA
ATOM     16  C   UNL     1       3.032   4.235  20.881  0.00  0.00    +0.000 A 
ENDBRANCH  10  11
BRANCH   9  17
ATOM     17  C   UNL     1       4.044   3.216  17.183  0.00  0.00    +0.000 C 
ATOM     18  F   UNL     1       2.869   2.683  16.732  0.00  0.00    +0.000 F 
ATOM     19  F   UNL     1       4.951   2.914  16.214  0.00  0.00    +0.000 F 
ATOM     20  F   UNL     1       4.373   2.475  18.274  0.00  0.00    +0.000 F 
ENDBRANCH   9  17
ENDBRANCH   3   5
BRANCH   2  21
ATOM     21  C   UNL     1       0.934   8.883  20.607  0.00  0.00    +0.000 A 
ATOM     22  C   UNL     1       0.247   7.968  21.413  0.00  0.00    +0.000 A 
ATOM     23  C   UNL     1      -0.522   8.445  22.474  0.00  0.00    +0.000 A 
ATOM     24  C   UNL     1      -0.629   9.823  22.707  0.00  0.00    +0.000 A 
ATOM     25  C   UNL     1       0.003  10.765  21.873  0.00  0.00    +0.000 A 
ATOM     26  C   UNL     1       0.828  10.254  20.853  0.00  0.00    +0.000 A 
BRANCH  25  27
ATOM     27  C   UNL     1      -0.167  12.229  21.994  0.00  0.00    +0.000 A 
ATOM     28  N   UNL     1       0.878  12.943  21.475  0.00  0.00    +0.000 NA
ATOM     29  C   UNL     1       0.778  14.288  21.408  0.00  0.00    +0.000 A 
ATOM     30  C   UNL     1      -0.322  14.991  21.850  0.00  0.00    +0.000 A 
ATOM     31  C   UNL     1      -1.381  14.272  22.397  0.00  0.00    +0.000 A 
ATOM     32  C   UNL     1      -1.318  12.877  22.463  0.00  0.00    +0.000 A 
ATOM     33 CL   UNL     1      -2.731  12.065  23.037  0.00  0.00    +0.000 Cl
ENDBRANCH  25  27
ENDBRANCH   2  21
TORSDOF 5
ENDMDL
MODEL 7
REMARK VINA RESULT:      -7.8      5.306      9.191
REMARK  Name = 
REMARK  5 active torsions:
REMARK  status: ('A' for Active; 'I' for Inactive)
REMARK    1  A    between atoms: C_2  and  C_20
REMARK    2  A    between atoms: N_3  and  C_4
REMARK    3  A    between atoms: C_8  and  C_9
REMARK    4  A    between atoms: C_13  and  C_14
REMARK    5  A    between atoms: C_24  and  C_25
REMARK                            x       y       z     vdW  Elec       q    Type
REMARK                         _______ _______ _______ _____ _____    ______ ____
ROOT
ATOM      1  O   UNL     1       1.384   9.623  22.300  0.00  0.00    +0.000 OA
ATOM      2  C   UNL     1       1.128   9.865  21.124  0.00  0.00    +0.000 C 
ATOM      3  N   UNL     1       0.435  10.968  20.671  0.00  0.00    +0.000 N 
ATOM      4  H   UNL     1       0.109  10.960  19.714  0.00  0.00    +0.000 HD
ENDROOT
BRANCH   3   5
ATOM      5  C   UNL     1      -0.230  11.854  21.549  0.00  0.00    +0.000 A 
ATOM      6  C   UNL     1      -1.222  11.294  22.372  0.00  0.00    +0.000 A 
ATOM      7  C   UNL     1      -1.922  12.081  23.271  0.00  0.00    +0.000 A 
ATOM      8  C   UNL     1      -1.635  13.435  23.340  0.00  0.00    +0.000 A 
ATOM      9  C   UNL     1      -0.665  14.041  22.499  0.00  0.00    +0.000 A 
ATOM     10  C   UNL     1       0.074  13.249  21.566  0.00  0.00    +0.000 A 
BRANCH  10  11
ATOM     11  C   UNL     1       1.170  13.799  20.701  0.00  0.00    +0.000 A 
ATOM     12  C   UNL     1       2.509  13.872  21.127  0.00  0.00    +0.000 A 
ATOM     13  C   UNL     1       3.495  14.484  20.348  0.00  0.00    +0.000 A 
ATOM     14  C   UNL     1       3.144  14.949  19.098  0.00  0.00    +0.000 A 
ATOM     15  N   UNL     1       1.890  14.889  18.621  0.00  0.00    +0.000 NA
ATOM     16  C   UNL     1       0.943  14.354  19.437  0.00  0.00    +0.000 A 
ENDBRANCH  10  11
BRANCH   9  17
ATOM     17  C   UNL     1      -0.486  15.537  22.679  0.00  0.00    +0.000 C 
ATOM     18  F   UNL     1      -1.312  16.064  23.633  0.00  0.00    +0.000 F 
ATOM     19  F   UNL     1       0.768  15.878  23.085  0.00  0.00    +0.000 F 
ATOM     20  F   UNL     1      -0.744  16.254  21.553  0.00  0.00    +0.000 F 
ENDBRANCH   9  17
ENDBRANCH   3   5
BRANCH   2  21
ATOM     21  C   UNL     1       1.535   8.907  20.072  0.00  0.00    +0.000 A 
ATOM     22  C   UNL     1       1.605   9.260  18.720  0.00  0.00    +0.000 A 
ATOM     23  C   UNL     1       1.996   8.298  17.789  0.00  0.00    +0.000 A 
ATOM     24  C   UNL     1       2.285   6.990  18.201  0.00  0.00    +0.000 A 
ATOM     25  C   UNL     1       2.162   6.596  19.547  0.00  0.00    +0.000 A 
ATOM     26  C   UNL     1       1.832   7.603  20.474  0.00  0.00    +0.000 A 
BRANCH  25  27
ATOM     27  C   UNL     1       2.335   5.207  20.026  0.00  0.00    +0.000 A 
ATOM     28  N   UNL     1       1.185   4.654  20.520  0.00  0.00    +0.000 NA
ATOM     29  C   UNL     1       1.186   3.349  20.865  0.00  0.00    +0.000 A 
ATOM     30  C   UNL     1       2.295   2.537  20.760  0.00  0.00    +0.000 A 
ATOM     31  C   UNL     1       3.474   3.098  20.278  0.00  0.00    +0.000 A 
ATOM     32  C   UNL     1       3.502   4.442  19.893  0.00  0.00    +0.000 A 
ATOM     33 CL   UNL     1       4.970   5.013  19.185  0.00  0.00    +0.000 Cl
ENDBRANCH  25  27
ENDBRANCH   2  21
TORSDOF 5
ENDMDL
MODEL 8
REMARK VINA RESULT:      -7.8      1.804      3.756
REMARK  Name = 
REMARK  5 active torsions:
REMARK  status: ('A' for Active; 'I' for Inactive)
REMARK    1  A    between atoms: C_2  and  C_20
REMARK    2  A    between atoms: N_3  and  C_4
REMARK    3  A    between atoms: C_8  and  C_9
REMARK    4  A    between atoms: C_13  and  C_14
REMARK    5  A    between atoms: C_24  and  C_25
REMARK                            x       y       z     vdW  Elec       q    Type
REMARK                         _______ _______ _______ _____ _____    ______ ____
ROOT
ATOM      1  O   UNL     1       1.620   8.857  17.847  0.00  0.00    +0.000 OA
ATOM      2  C   UNL     1       1.812   8.442  18.987  0.00  0.00    +0.000 C 
ATOM      3  N   UNL     1       2.714   7.457  19.333  0.00  0.00    +0.000 N 
ATOM      4  H   UNL     1       2.643   7.056  20.258  0.00  0.00    +0.000 HD
ENDROOT
BRANCH   3   5
ATOM      5  C   UNL     1       3.387   6.677  18.366  0.00  0.00    +0.000 A 
ATOM      6  C   UNL     1       4.125   7.380  17.397  0.00  0.00    +0.000 A 
ATOM      7  C   UNL     1       4.826   6.703  16.413  0.00  0.00    +0.000 A 
ATOM      8  C   UNL     1       4.779   5.317  16.392  0.00  0.00    +0.000 A 
ATOM      9  C   UNL     1       4.015   4.577  17.332  0.00  0.00    +0.000 A 
ATOM     10  C   UNL     1       3.287   5.253  18.360  0.00  0.00    +0.000 A 
BRANCH  10  11
ATOM     11  C   UNL     1       2.524   4.540  19.437  0.00  0.00    +0.000 A 
ATOM     12  C   UNL     1       3.046   4.331  20.727  0.00  0.00    +0.000 A 
ATOM     13  C   UNL     1       2.363   3.574  21.682  0.00  0.00    +0.000 A 
ATOM     14  C   UNL     1       1.109   3.096  21.361  0.00  0.00    +0.000 A 
ATOM     15  N   UNL     1       0.543   3.279  20.158  0.00  0.00    +0.000 NA
ATOM     16  C   UNL     1       1.269   3.958  19.229  0.00  0.00    +0.000 A 
ENDBRANCH  10  11
BRANCH   9  17
ATOM     17  C   UNL     1       4.048   3.070  17.158  0.00  0.00    +0.000 C 
ATOM     18  F   UNL     1       2.851   2.553  16.746  0.00  0.00    +0.000 F 
ATOM     19  F   UNL     1       4.941   2.662  16.215  0.00  0.00    +0.000 F 
ATOM     20  F   UNL     1       4.349   2.399  18.301  0.00  0.00    +0.000 F 
ENDBRANCH   9  17
ENDBRANCH   3   5
BRANCH   2  21
ATOM     21  C   UNL     1       1.007   8.974  20.108  0.00  0.00    +0.000 A 
ATOM     22  C   UNL     1       0.631   8.189  21.204  0.00  0.00    +0.000 A 
ATOM     23  C   UNL     1      -0.129   8.765  22.221  0.00  0.00    +0.000 A 
ATOM     24  C   UNL     1      -0.534  10.104  22.130  0.00  0.00    +0.000 A 
ATOM     25  C   UNL     1      -0.219  10.897  21.010  0.00  0.00    +0.000 A 
ATOM     26  C   UNL     1       0.606  10.310  20.031  0.00  0.00    +0.000 A 
BRANCH  25  27
ATOM     27  C   UNL     1      -0.716  12.274  20.799  0.00  0.00    +0.000 A 
ATOM     28  N   UNL     1      -2.080  12.367  20.804  0.00  0.00    +0.000 NA
ATOM     29  C   UNL     1      -2.650  13.591  20.753  0.00  0.00    +0.000 A 
ATOM     30  C   UNL     1      -1.927  14.762  20.680  0.00  0.00    +0.000 A 
ATOM     31  C   UNL     1      -0.539  14.673  20.654  0.00  0.00    +0.000 A 
ATOM     32  C   UNL     1       0.084  13.423  20.726  0.00  0.00    +0.000 A 
ATOM     33 CL   UNL     1       1.808  13.422  20.820  0.00  0.00    +0.000 Cl
ENDBRANCH  25  27
ENDBRANCH   2  21
TORSDOF 5
ENDMDL
MODEL 9
REMARK VINA RESULT:      -7.8      5.094      8.773
REMARK  Name = 
REMARK  5 active torsions:
REMARK  status: ('A' for Active; 'I' for Inactive)
REMARK    1  A    between atoms: C_2  and  C_20
REMARK    2  A    between atoms: N_3  and  C_4
REMARK    3  A    between atoms: C_8  and  C_9
REMARK    4  A    between atoms: C_13  and  C_14
REMARK    5  A    between atoms: C_24  and  C_25
REMARK                            x       y       z     vdW  Elec       q    Type
REMARK                         _______ _______ _______ _____ _____    ______ ____
ROOT
ATOM      1  O   UNL     1      -0.781   9.814  19.436  0.00  0.00    +0.000 OA
ATOM      2  C   UNL     1       0.343   9.709  19.918  0.00  0.00    +0.000 C 
ATOM      3  N   UNL     1       0.776  10.332  21.071  0.00  0.00    +0.000 N 
ATOM      4  H   UNL     1       1.769  10.337  21.259  0.00  0.00    +0.000 HD
ENDROOT
BRANCH   3   5
ATOM      5  C   UNL     1       0.011  11.324  21.725  0.00  0.00    +0.000 A 
ATOM      6  C   UNL     1      -0.917  10.872  22.679  0.00  0.00    +0.000 A 
ATOM      7  C   UNL     1      -1.707  11.770  23.377  0.00  0.00    +0.000 A 
ATOM      8  C   UNL     1      -1.573  13.125  23.113  0.00  0.00    +0.000 A 
ATOM      9  C   UNL     1      -0.672  13.614  22.131  0.00  0.00    +0.000 A 
ATOM     10  C   UNL     1       0.157  12.706  21.400  0.00  0.00    +0.000 A 
BRANCH  10  11
ATOM     11  C   UNL     1       1.189  13.150  20.405  0.00  0.00    +0.000 A 
ATOM     12  C   UNL     1       0.977  13.098  19.015  0.00  0.00    +0.000 A 
ATOM     13  C   UNL     1       1.988  13.416  18.105  0.00  0.00    +0.000 A 
ATOM     14  C   UNL     1       3.193  13.868  18.600  0.00  0.00    +0.000 A 
ATOM     15  N   UNL     1       3.454  13.964  19.914  0.00  0.00    +0.000 NA
ATOM     16  C   UNL     1       2.470  13.575  20.770  0.00  0.00    +0.000 A 
ENDBRANCH  10  11
BRANCH   9  17
ATOM     17  C   UNL     1      -0.663  15.119  21.943  0.00  0.00    +0.000 C 
ATOM     18  F   UNL     1      -1.675  15.748  22.614  0.00  0.00    +0.000 F 
ATOM     19  F   UNL     1       0.474  15.707  22.408  0.00  0.00    +0.000 F 
ATOM     20  F   UNL     1      -0.804  15.505  20.647  0.00  0.00    +0.000 F 
ENDBRANCH   9  17
ENDBRANCH   3   5
BRANCH   2  21
ATOM     21  C   UNL     1       1.368   8.899  19.223  0.00  0.00    +0.000 A 
ATOM     22  C   UNL     1       1.998   9.328  18.050  0.00  0.00    +0.000 A 
ATOM     23  C   UNL     1       2.953   8.505  17.455  0.00  0.00    +0.000 A 
ATOM     24  C   UNL     1       3.254   7.253  18.010  0.00  0.00    +0.000 A 
ATOM     25  C   UNL     1       2.589   6.774  19.155  0.00  0.00    +0.000 A 
ATOM     26  C   UNL     1       1.680   7.653  19.773  0.00  0.00    +0.000 A 
BRANCH  25  27
ATOM     27  C   UNL     1       2.774   5.419  19.718  0.00  0.00    +0.000 A 
ATOM     28  N   UNL     1       2.094   5.218  20.888  0.00  0.00    +0.000 NA
ATOM     29  C   UNL     1       2.079   3.980  21.428  0.00  0.00    +0.000 A 
ATOM     30  C   UNL     1       2.727   2.900  20.869  0.00  0.00    +0.000 A 
ATOM     31  C   UNL     1       3.437   3.101  19.689  0.00  0.00    +0.000 A 
ATOM     32  C   UNL     1       3.457   4.366  19.092  0.00  0.00    +0.000 A 
ATOM     33 CL   UNL     1       4.253   4.489  17.565  0.00  0.00    +0.000 Cl
ENDBRANCH  25  27
ENDBRANCH   2  21
TORSDOF 5
ENDMDL
