MODEL 1
REMARK VINA RESULT:      -6.0      0.000      0.000
REMARK  Name = 
REMARK  7 active torsions:
REMARK  status: ('A' for Active; 'I' for Inactive)
REMARK    1  A    between atoms: C_1  and  O_2
REMARK    2  A    between atoms: O_2  and  C_3
REMARK    3  A    between atoms: C_3  and  C_4
REMARK    4  A    between atoms: C_4  and  C_5
REMARK    5  A    between atoms: C_8  and  C_10
REMARK    6  A    between atoms: N_22  and  C_23
REMARK    7  A    between atoms: C_23  and  C_24
REMARK                            x       y       z     vdW  Elec       q    Type
REMARK                         _______ _______ _______ _____ _____    ______ ____
ROOT
ATOM      1  C   UNL     1       2.333  14.394  20.163  0.00  0.00    +0.000 C 
ATOM      2  C   UNL     1       1.968  13.065  19.478  0.00  0.00    +0.000 C 
ATOM      3  N   UNL     1       0.526  12.959  19.216  0.00  0.00    +0.000 N 
ATOM      4  C   UNL     1      -0.323  11.883  19.502  0.00  0.00    +0.000 C 
ATOM      5  O   UNL     1      -1.498  11.880  19.132  0.00  0.00    +0.000 OA
ATOM      6  C   UNL     1      -0.017  14.095  18.460  0.00  0.00    +0.000 C 
ATOM      7  C   UNL     1       0.437  15.462  19.033  0.00  0.00    +0.000 C 
ATOM      8  N   UNL     1       1.883  15.583  19.365  0.00  0.00    +0.000 NA
ENDROOT
BRANCH   4   9
ATOM      9  C   UNL     1       0.161  10.704  20.291  0.00  0.00    +0.000 A 
ATOM     10  C   UNL     1      -0.046  10.691  21.680  0.00  0.00    +0.000 A 
ATOM     11  C   UNL     1       0.308   9.587  22.445  0.00  0.00    +0.000 A 
ATOM     12  C   UNL     1       0.991   8.532  21.853  0.00  0.00    +0.000 A 
ATOM     13  C   UNL     1       1.315   8.558  20.490  0.00  0.00    +0.000 A 
ATOM     14  C   UNL     1       2.077   7.509  19.949  0.00  0.00    +0.000 A 
ATOM     15  C   UNL     1       2.423   7.491  18.601  0.00  0.00    +0.000 A 
ATOM     16  C   UNL     1       1.993   8.516  17.772  0.00  0.00    +0.000 A 
ATOM     17  C   UNL     1       1.230   9.565  18.295  0.00  0.00    +0.000 A 
ATOM     18  C   UNL     1       0.886   9.638  19.671  0.00  0.00    +0.000 A 
ENDBRANCH   4   9
BRANCH   1  19
ATOM     19  C   UNL     1       1.781  14.436  21.619  0.00  0.00    +0.000 C 
BRANCH  19  20
ATOM     20  C   UNL     1       1.885  15.795  22.327  0.00  0.00    +0.000 C 
BRANCH  20  22
ATOM     21  C   UNL     1      -0.362  15.325  22.848  0.00  0.00    +0.000 C 
ATOM     22  O   UNL     1       0.598  16.350  22.596  0.00  0.00    +0.000 OA
ENDBRANCH  20  22
ENDBRANCH  19  20
ENDBRANCH   1  19
BRANCH   8  23
ATOM     23  C   UNL     1       2.637  15.745  18.096  0.00  0.00    +0.000 C 
BRANCH  23  24
ATOM     24  C   UNL     1       4.117  15.816  18.294  0.00  0.00    +0.000 A 
ATOM     25  C   UNL     1       4.876  16.766  18.944  0.00  0.00    +0.000 A 
ATOM     26  N   UNL     1       6.164  16.322  18.851  0.00  0.00    +0.000 N 
ATOM     27  C   UNL     1       6.149  15.156  18.149  0.00  0.00    +0.000 A 
ATOM     28  N   UNL     1       4.934  14.817  17.799  0.00  0.00    +0.000 NA
ATOM     29  H   UNL     1       6.982  16.779  19.238  0.00  0.00    +0.000 HD
ENDBRANCH  23  24
ENDBRANCH   8  23
TORSDOF 6
ENDMDL
MODEL 2
REMARK VINA RESULT:      -6.0      0.827      1.060
REMARK  Name = 
REMARK  7 active torsions:
REMARK  status: ('A' for Active; 'I' for Inactive)
REMARK    1  A    between atoms: C_1  and  O_2
REMARK    2  A    between atoms: O_2  and  C_3
REMARK    3  A    between atoms: C_3  and  C_4
REMARK    4  A    between atoms: C_4  and  C_5
REMARK    5  A    between atoms: C_8  and  C_10
REMARK    6  A    between atoms: N_22  and  C_23
REMARK    7  A    between atoms: C_23  and  C_24
REMARK                            x       y       z     vdW  Elec       q    Type
REMARK                         _______ _______ _______ _____ _____    ______ ____
ROOT
ATOM      1  C   UNL     1       1.783  14.583  20.398  0.00  0.00    +0.000 C 
ATOM      2  C   UNL     1       1.681  13.241  19.651  0.00  0.00    +0.000 C 
ATOM      3  N   UNL     1       0.313  12.973  19.185  0.00  0.00    +0.000 N 
ATOM      4  C   UNL     1      -0.430  11.796  19.333  0.00  0.00    +0.000 C 
ATOM      5  O   UNL     1      -1.532  11.664  18.801  0.00  0.00    +0.000 OA
ATOM      6  C   UNL     1      -0.253  14.058  18.374  0.00  0.00    +0.000 C 
ATOM      7  C   UNL     1      -0.052  15.452  19.023  0.00  0.00    +0.000 C 
ATOM      8  N   UNL     1       1.307  15.733  19.558  0.00  0.00    +0.000 NA
ENDROOT
BRANCH   4   9
ATOM      9  C   UNL     1       0.079  10.659  20.169  0.00  0.00    +0.000 A 
ATOM     10  C   UNL     1      -0.148  10.686  21.554  0.00  0.00    +0.000 A 
ATOM     11  C   UNL     1       0.228   9.620  22.361  0.00  0.00    +0.000 A 
ATOM     12  C   UNL     1       0.952   8.568  21.814  0.00  0.00    +0.000 A 
ATOM     13  C   UNL     1       1.296   8.559  20.456  0.00  0.00    +0.000 A 
ATOM     14  C   UNL     1       2.097   7.516  19.961  0.00  0.00    +0.000 A 
ATOM     15  C   UNL     1       2.463   7.464  18.619  0.00  0.00    +0.000 A 
ATOM     16  C   UNL     1       2.015   8.447  17.750  0.00  0.00    +0.000 A 
ATOM     17  C   UNL     1       1.212   9.489  18.227  0.00  0.00    +0.000 A 
ATOM     18  C   UNL     1       0.845   9.597  19.595  0.00  0.00    +0.000 A 
ENDBRANCH   4   9
BRANCH   1  19
ATOM     19  C   UNL     1       1.032  14.516  21.760  0.00  0.00    +0.000 C 
BRANCH  19  20
ATOM     20  C   UNL     1       0.887  15.854  22.502  0.00  0.00    +0.000 C 
BRANCH  20  22
ATOM     21  C   UNL     1      -0.309  16.916  24.228  0.00  0.00    +0.000 C 
ATOM     22  O   UNL     1       0.253  15.688  23.769  0.00  0.00    +0.000 OA
ENDBRANCH  20  22
ENDBRANCH  19  20
ENDBRANCH   1  19
BRANCH   8  23
ATOM     23  C   UNL     1       2.206  16.021  18.411  0.00  0.00    +0.000 C 
BRANCH  23  24
ATOM     24  C   UNL     1       3.621  16.275  18.820  0.00  0.00    +0.000 A 
ATOM     25  C   UNL     1       4.763  15.552  18.545  0.00  0.00    +0.000 A 
ATOM     26  N   UNL     1       5.780  16.247  19.134  0.00  0.00    +0.000 N 
ATOM     27  C   UNL     1       5.236  17.334  19.749  0.00  0.00    +0.000 A 
ATOM     28  N   UNL     1       3.938  17.386  19.579  0.00  0.00    +0.000 NA
ATOM     29  H   UNL     1       6.762  15.999  19.114  0.00  0.00    +0.000 HD
ENDBRANCH  23  24
ENDBRANCH   8  23
TORSDOF 6
ENDMDL
MODEL 3
REMARK VINA RESULT:      -5.9      4.911      8.388
REMARK  Name = 
REMARK  7 active torsions:
REMARK  status: ('A' for Active; 'I' for Inactive)
REMARK    1  A    between atoms: C_1  and  O_2
REMARK    2  A    between atoms: O_2  and  C_3
REMARK    3  A    between atoms: C_3  and  C_4
REMARK    4  A    between atoms: C_4  and  C_5
REMARK    5  A    between atoms: C_8  and  C_10
REMARK    6  A    between atoms: N_22  and  C_23
REMARK    7  A    between atoms: C_23  and  C_24
REMARK                            x       y       z     vdW  Elec       q    Type
REMARK                         _______ _______ _______ _____ _____    ______ ____
ROOT
ATOM      1  C   UNL     1      -5.040  11.764  19.067  0.00  0.00    +0.000 C 
ATOM      2  C   UNL     1      -3.993  11.817  20.193  0.00  0.00    +0.000 C 
ATOM      3  N   UNL     1      -3.603  13.197  20.518  0.00  0.00    +0.000 N 
ATOM      4  C   UNL     1      -2.311  13.714  20.663  0.00  0.00    +0.000 C 
ATOM      5  O   UNL     1      -2.123  14.870  21.043  0.00  0.00    +0.000 OA
ATOM      6  C   UNL     1      -4.743  14.068  20.832  0.00  0.00    +0.000 C 
ATOM      7  C   UNL     1      -5.888  13.946  19.794  0.00  0.00    +0.000 C 
ATOM      8  N   UNL     1      -6.266  12.563  19.398  0.00  0.00    +0.000 NA
ENDROOT
BRANCH   4   9
ATOM      9  C   UNL     1      -1.105  12.885  20.335  0.00  0.00    +0.000 A 
ATOM     10  C   UNL     1      -0.438  13.115  19.121  0.00  0.00    +0.000 A 
ATOM     11  C   UNL     1       0.732  12.434  18.808  0.00  0.00    +0.000 A 
ATOM     12  C   UNL     1       1.181  11.420  19.645  0.00  0.00    +0.000 A 
ATOM     13  C   UNL     1       0.479  11.085  20.811  0.00  0.00    +0.000 A 
ATOM     14  C   UNL     1       0.923  10.001  21.586  0.00  0.00    +0.000 A 
ATOM     15  C   UNL     1       0.259   9.631  22.753  0.00  0.00    +0.000 A 
ATOM     16  C   UNL     1      -0.848  10.355  23.168  0.00  0.00    +0.000 A 
ATOM     17  C   UNL     1      -1.298  11.440  22.409  0.00  0.00    +0.000 A 
ATOM     18  C   UNL     1      -0.670  11.828  21.195  0.00  0.00    +0.000 A 
ENDBRANCH   4   9
BRANCH   1  19
ATOM     19  C   UNL     1      -4.415  12.205  17.710  0.00  0.00    +0.000 C 
BRANCH  19  20
ATOM     20  C   UNL     1      -4.460  11.154  16.590  0.00  0.00    +0.000 C 
BRANCH  20  22
ATOM     21  C   UNL     1      -3.152  10.235  14.862  0.00  0.00    +0.000 C 
ATOM     22  O   UNL     1      -3.150  10.751  16.192  0.00  0.00    +0.000 OA
ENDBRANCH  20  22
ENDBRANCH  19  20
ENDBRANCH   1  19
BRANCH   8  23
ATOM     23  C   UNL     1      -7.062  11.968  20.502  0.00  0.00    +0.000 C 
BRANCH  23  24
ATOM     24  C   UNL     1      -7.325  10.508  20.319  0.00  0.00    +0.000 A 
ATOM     25  C   UNL     1      -7.140   9.709  19.211  0.00  0.00    +0.000 A 
ATOM     26  N   UNL     1      -7.510   8.455  19.604  0.00  0.00    +0.000 N 
ATOM     27  C   UNL     1      -7.917   8.533  20.901  0.00  0.00    +0.000 A 
ATOM     28  N   UNL     1      -7.817   9.752  21.368  0.00  0.00    +0.000 NA
ATOM     29  H   UNL     1      -7.484   7.618  19.033  0.00  0.00    +0.000 HD
ENDBRANCH  23  24
ENDBRANCH   8  23
TORSDOF 6
ENDMDL
MODEL 4
REMARK VINA RESULT:      -5.9      3.219      6.056
REMARK  Name = 
REMARK  7 active torsions:
REMARK  status: ('A' for Active; 'I' for Inactive)
REMARK    1  A    between atoms: C_1  and  O_2
REMARK    2  A    between atoms: O_2  and  C_3
REMARK    3  A    between atoms: C_3  and  C_4
REMARK    4  A    between atoms: C_4  and  C_5
REMARK    5  A    between atoms: C_8  and  C_10
REMARK    6  A    between atoms: N_22  and  C_23
REMARK    7  A    between atoms: C_23  and  C_24
REMARK                            x       y       z     vdW  Elec       q    Type
REMARK                         _______ _______ _______ _____ _____    ______ ____
ROOT
ATOM      1  C   UNL     1      -1.341  12.463  20.071  0.00  0.00    +0.000 C 
ATOM      2  C   UNL     1      -1.103  10.945  20.164  0.00  0.00    +0.000 C 
ATOM      3  N   UNL     1      -0.232  10.592  21.294  0.00  0.00    +0.000 N 
ATOM      4  C   UNL     1       0.885   9.749  21.288  0.00  0.00    +0.000 C 
ATOM      5  O   UNL     1       1.468   9.452  22.331  0.00  0.00    +0.000 OA
ATOM      6  C   UNL     1      -0.701  11.121  22.581  0.00  0.00    +0.000 C 
ATOM      7  C   UNL     1      -1.085  12.621  22.504  0.00  0.00    +0.000 C 
ATOM      8  N   UNL     1      -1.918  13.022  21.338  0.00  0.00    +0.000 NA
ENDROOT
BRANCH   4   9
ATOM      9  C   UNL     1       1.430   9.196  20.005  0.00  0.00    +0.000 A 
ATOM     10  C   UNL     1       1.576  10.058  18.906  0.00  0.00    +0.000 A 
ATOM     11  C   UNL     1       2.153   9.616  17.723  0.00  0.00    +0.000 A 
ATOM     12  C   UNL     1       2.475   8.273  17.576  0.00  0.00    +0.000 A 
ATOM     13  C   UNL     1       2.239   7.358  18.611  0.00  0.00    +0.000 A 
ATOM     14  C   UNL     1       2.504   5.996  18.392  0.00  0.00    +0.000 A 
ATOM     15  C   UNL     1       2.287   5.051  19.390  0.00  0.00    +0.000 A 
ATOM     16  C   UNL     1       1.820   5.461  20.629  0.00  0.00    +0.000 A 
ATOM     17  C   UNL     1       1.556   6.814  20.864  0.00  0.00    +0.000 A 
ATOM     18  C   UNL     1       1.732   7.805  19.861  0.00  0.00    +0.000 A 
ENDBRANCH   4   9
BRANCH   1  19
ATOM     19  C   UNL     1      -0.034  13.202  19.657  0.00  0.00    +0.000 C 
BRANCH  19  20
ATOM     20  C   UNL     1      -0.230  14.593  19.035  0.00  0.00    +0.000 C 
BRANCH  20  22
ATOM     21  C   UNL     1       1.704  15.887  18.681  0.00  0.00    +0.000 C 
ATOM     22  O   UNL     1       0.662  15.553  19.597  0.00  0.00    +0.000 OA
ENDBRANCH  20  22
ENDBRANCH  19  20
ENDBRANCH   1  19
BRANCH   8  23
ATOM     23  C   UNL     1      -3.311  12.571  21.587  0.00  0.00    +0.000 C 
BRANCH  23  24
ATOM     24  C   UNL     1      -3.823  12.955  22.938  0.00  0.00    +0.000 A 
ATOM     25  C   UNL     1      -4.180  14.193  23.427  0.00  0.00    +0.000 A 
ATOM     26  N   UNL     1      -4.607  13.966  24.704  0.00  0.00    +0.000 N 
ATOM     27  C   UNL     1      -4.480  12.633  24.951  0.00  0.00    +0.000 A 
ATOM     28  N   UNL     1      -4.014  11.990  23.910  0.00  0.00    +0.000 NA
ATOM     29  H   UNL     1      -4.956  14.664  25.351  0.00  0.00    +0.000 HD
ENDBRANCH  23  24
ENDBRANCH   8  23
TORSDOF 6
ENDMDL
MODEL 5
REMARK VINA RESULT:      -5.8      4.149      6.789
REMARK  Name = 
REMARK  7 active torsions:
REMARK  status: ('A' for Active; 'I' for Inactive)
REMARK    1  A    between atoms: C_1  and  O_2
REMARK    2  A    between atoms: O_2  and  C_3
REMARK    3  A    between atoms: C_3  and  C_4
REMARK    4  A    between atoms: C_4  and  C_5
REMARK    5  A    between atoms: C_8  and  C_10
REMARK    6  A    between atoms: N_22  and  C_23
REMARK    7  A    between atoms: C_23  and  C_24
REMARK                            x       y       z     vdW  Elec       q    Type
REMARK                         _______ _______ _______ _____ _____    ______ ____
ROOT
ATOM      1  C   UNL     1      -1.025  12.345  19.234  0.00  0.00    +0.000 C 
ATOM      2  C   UNL     1      -1.758  13.348  20.143  0.00  0.00    +0.000 C 
ATOM      3  N   UNL     1      -2.444  12.681  21.258  0.00  0.00    +0.000 N 
ATOM      4  C   UNL     1      -3.763  12.866  21.690  0.00  0.00    +0.000 C 
ATOM      5  O   UNL     1      -4.184  12.318  22.709  0.00  0.00    +0.000 OA
ATOM      6  C   UNL     1      -1.565  11.813  22.051  0.00  0.00    +0.000 C 
ATOM      7  C   UNL     1      -0.702  10.876  21.169  0.00  0.00    +0.000 C 
ATOM      8  N   UNL     1      -0.040  11.509  19.996  0.00  0.00    +0.000 NA
ENDROOT
BRANCH   4   9
ATOM      9  C   UNL     1      -4.720  13.719  20.912  0.00  0.00    +0.000 A 
ATOM     10  C   UNL     1      -4.912  15.052  21.309  0.00  0.00    +0.000 A 
ATOM     11  C   UNL     1      -5.722  15.907  20.574  0.00  0.00    +0.000 A 
ATOM     12  C   UNL     1      -6.454  15.408  19.504  0.00  0.00    +0.000 A 
ATOM     13  C   UNL     1      -6.375  14.055  19.145  0.00  0.00    +0.000 A 
ATOM     14  C   UNL     1      -7.192  13.575  18.109  0.00  0.00    +0.000 A 
ATOM     15  C   UNL     1      -7.148  12.240  17.717  0.00  0.00    +0.000 A 
ATOM     16  C   UNL     1      -6.269  11.372  18.346  0.00  0.00    +0.000 A 
ATOM     17  C   UNL     1      -5.446  11.836  19.377  0.00  0.00    +0.000 A 
ATOM     18  C   UNL     1      -5.486  13.183  19.830  0.00  0.00    +0.000 A 
ENDBRANCH   4   9
BRANCH   1  19
ATOM     19  C   UNL     1      -2.042  11.466  18.449  0.00  0.00    +0.000 C 
BRANCH  19  20
ATOM     20  C   UNL     1      -1.427  10.347  17.595  0.00  0.00    +0.000 C 
BRANCH  20  22
ATOM     21  C   UNL     1      -2.755  10.696  15.683  0.00  0.00    +0.000 C 
ATOM     22  O   UNL     1      -2.385   9.774  16.706  0.00  0.00    +0.000 OA
ENDBRANCH  20  22
ENDBRANCH  19  20
ENDBRANCH   1  19
BRANCH   8  23
ATOM     23  C   UNL     1       1.123  12.290  20.488  0.00  0.00    +0.000 C 
BRANCH  23  24
ATOM     24  C   UNL     1       1.892  12.956  19.392  0.00  0.00    +0.000 A 
ATOM     25  C   UNL     1       2.462  12.416  18.259  0.00  0.00    +0.000 A 
ATOM     26  N   UNL     1       3.010  13.474  17.592  0.00  0.00    +0.000 N 
ATOM     27  C   UNL     1       2.779  14.593  18.332  0.00  0.00    +0.000 A 
ATOM     28  N   UNL     1       2.105  14.322  19.422  0.00  0.00    +0.000 NA
ATOM     29  H   UNL     1       3.500  13.432  16.706  0.00  0.00    +0.000 HD
ENDBRANCH  23  24
ENDBRANCH   8  23
TORSDOF 6
ENDMDL
MODEL 6
REMARK VINA RESULT:      -5.8      4.295      7.241
REMARK  Name = 
REMARK  7 active torsions:
REMARK  status: ('A' for Active; 'I' for Inactive)
REMARK    1  A    between atoms: C_1  and  O_2
REMARK    2  A    between atoms: O_2  and  C_3
REMARK    3  A    between atoms: C_3  and  C_4
REMARK    4  A    between atoms: C_4  and  C_5
REMARK    5  A    between atoms: C_8  and  C_10
REMARK    6  A    between atoms: N_22  and  C_23
REMARK    7  A    between atoms: C_23  and  C_24
REMARK                            x       y       z     vdW  Elec       q    Type
REMARK                         _______ _______ _______ _____ _____    ______ ____
ROOT
ATOM      1  C   UNL     1      -4.022  12.867  21.065  0.00  0.00    +0.000 C 
ATOM      2  C   UNL     1      -2.959  12.378  22.064  0.00  0.00    +0.000 C 
ATOM      3  N   UNL     1      -1.727  13.176  21.993  0.00  0.00    +0.000 N 
ATOM      4  C   UNL     1      -0.408  12.715  21.909  0.00  0.00    +0.000 C 
ATOM      5  O   UNL     1       0.545  13.493  21.962  0.00  0.00    +0.000 OA
ATOM      6  C   UNL     1      -1.954  14.619  22.146  0.00  0.00    +0.000 C 
ATOM      7  C   UNL     1      -3.113  15.136  21.256  0.00  0.00    +0.000 C 
ATOM      8  N   UNL     1      -4.355  14.317  21.261  0.00  0.00    +0.000 NA
ENDROOT
BRANCH   4   9
ATOM      9  C   UNL     1      -0.107  11.258  21.726  0.00  0.00    +0.000 A 
ATOM     10  C   UNL     1      -0.363  10.377  22.790  0.00  0.00    +0.000 A 
ATOM     11  C   UNL     1      -0.181   9.008  22.643  0.00  0.00    +0.000 A 
ATOM     12  C   UNL     1       0.380   8.511  21.473  0.00  0.00    +0.000 A 
ATOM     13  C   UNL     1       0.753   9.371  20.431  0.00  0.00    +0.000 A 
ATOM     14  C   UNL     1       1.390   8.836  19.300  0.00  0.00    +0.000 A 
ATOM     15  C   UNL     1       1.777   9.650  18.239  0.00  0.00    +0.000 A 
ATOM     16  C   UNL     1       1.513  11.010  18.290  0.00  0.00    +0.000 A 
ATOM     17  C   UNL     1       0.874  11.557  19.408  0.00  0.00    +0.000 A 
ATOM     18  C   UNL     1       0.495  10.765  20.526  0.00  0.00    +0.000 A 
ENDBRANCH   4   9
BRANCH   1  19
ATOM     19  C   UNL     1      -3.582  12.570  19.601  0.00  0.00    +0.000 C 
BRANCH  19  20
ATOM     20  C   UNL     1      -4.594  11.785  18.753  0.00  0.00    +0.000 C 
BRANCH  20  22
ATOM     21  C   UNL     1      -6.778  10.916  18.630  0.00  0.00    +0.000 C 
ATOM     22  O   UNL     1      -5.817  11.569  19.457  0.00  0.00    +0.000 OA
ENDBRANCH  20  22
ENDBRANCH  19  20
ENDBRANCH   1  19
BRANCH   8  23
ATOM     23  C   UNL     1      -5.077  14.577  22.533  0.00  0.00    +0.000 C 
BRANCH  23  24
ATOM     24  C   UNL     1      -6.117  13.550  22.842  0.00  0.00    +0.000 A 
ATOM     25  C   UNL     1      -6.225  12.700  23.923  0.00  0.00    +0.000 A 
ATOM     26  N   UNL     1      -7.378  11.999  23.715  0.00  0.00    +0.000 N 
ATOM     27  C   UNL     1      -7.911  12.419  22.535  0.00  0.00    +0.000 A 
ATOM     28  N   UNL     1      -7.181  13.355  21.981  0.00  0.00    +0.000 NA
ATOM     29  H   UNL     1      -7.767  11.293  24.331  0.00  0.00    +0.000 HD
ENDBRANCH  23  24
ENDBRANCH   8  23
TORSDOF 6
ENDMDL
MODEL 7
REMARK VINA RESULT:      -5.8      4.197      6.979
REMARK  Name = 
REMARK  7 active torsions:
REMARK  status: ('A' for Active; 'I' for Inactive)
REMARK    1  A    between atoms: C_1  and  O_2
REMARK    2  A    between atoms: O_2  and  C_3
REMARK    3  A    between atoms: C_3  and  C_4
REMARK    4  A    between atoms: C_4  and  C_5
REMARK    5  A    between atoms: C_8  and  C_10
REMARK    6  A    between atoms: N_22  and  C_23
REMARK    7  A    between atoms: C_23  and  C_24
REMARK                            x       y       z     vdW  Elec       q    Type
REMARK                         _______ _______ _______ _____ _____    ______ ____
ROOT
ATOM      1  C   UNL     1      -1.354  12.638  19.986  0.00  0.00    +0.000 C 
ATOM      2  C   UNL     1      -1.767  13.420  21.245  0.00  0.00    +0.000 C 
ATOM      3  N   UNL     1      -2.249  12.531  22.312  0.00  0.00    +0.000 N 
ATOM      4  C   UNL     1      -3.415  12.658  23.076  0.00  0.00    +0.000 C 
ATOM      5  O   UNL     1      -3.649  11.898  24.016  0.00  0.00    +0.000 OA
ATOM      6  C   UNL     1      -1.302  11.462  22.656  0.00  0.00    +0.000 C 
ATOM      7  C   UNL     1      -0.750  10.732  21.405  0.00  0.00    +0.000 C 
ATOM      8  N   UNL     1      -0.308  11.603  20.282  0.00  0.00    +0.000 NA
ENDROOT
BRANCH   4   9
ATOM      9  C   UNL     1      -4.435  13.712  22.762  0.00  0.00    +0.000 A 
ATOM     10  C   UNL     1      -4.404  14.917  23.482  0.00  0.00    +0.000 A 
ATOM     11  C   UNL     1      -5.273  15.956  23.173  0.00  0.00    +0.000 A 
ATOM     12  C   UNL     1      -6.269  15.759  22.225  0.00  0.00    +0.000 A 
ATOM     13  C   UNL     1      -6.402  14.531  21.564  0.00  0.00    +0.000 A 
ATOM     14  C   UNL     1      -7.472  14.348  20.673  0.00  0.00    +0.000 A 
ATOM     15  C   UNL     1      -7.644  13.146  19.992  0.00  0.00    +0.000 A 
ATOM     16  C   UNL     1      -6.735  12.117  20.182  0.00  0.00    +0.000 A 
ATOM     17  C   UNL     1      -5.661  12.286  21.063  0.00  0.00    +0.000 A 
ATOM     18  C   UNL     1      -5.470  13.484  21.802  0.00  0.00    +0.000 A 
ENDBRANCH   4   9
BRANCH   1  19
ATOM     19  C   UNL     1      -2.599  12.015  19.289  0.00  0.00    +0.000 C 
BRANCH  19  20
ATOM     20  C   UNL     1      -2.353  11.442  17.885  0.00  0.00    +0.000 C 
BRANCH  20  22
ATOM     21  C   UNL     1      -4.582  11.614  17.151  0.00  0.00    +0.000 C 
ATOM     22  O   UNL     1      -3.490  10.731  17.398  0.00  0.00    +0.000 OA
ENDBRANCH  20  22
ENDBRANCH  19  20
ENDBRANCH   1  19
BRANCH   8  23
ATOM     23  C   UNL     1       1.005  12.195  20.645  0.00  0.00    +0.000 C 
BRANCH  23  24
ATOM     24  C   UNL     1       1.796  12.647  19.460  0.00  0.00    +0.000 A 
ATOM     25  C   UNL     1       2.116  11.970  18.302  0.00  0.00    +0.000 A 
ATOM     26  N   UNL     1       2.824  12.861  17.548  0.00  0.00    +0.000 N 
ATOM     27  C   UNL     1       2.928  14.016  18.262  0.00  0.00    +0.000 A 
ATOM     28  N   UNL     1       2.318  13.926  19.418  0.00  0.00    +0.000 NA
ATOM     29  H   UNL     1       3.204  12.692  16.624  0.00  0.00    +0.000 HD
ENDBRANCH  23  24
ENDBRANCH   8  23
TORSDOF 6
ENDMDL
MODEL 8
REMARK VINA RESULT:      -5.8      2.925      5.671
REMARK  Name = 
REMARK  7 active torsions:
REMARK  status: ('A' for Active; 'I' for Inactive)
REMARK    1  A    between atoms: C_1  and  O_2
REMARK    2  A    between atoms: O_2  and  C_3
REMARK    3  A    between atoms: C_3  and  C_4
REMARK    4  A    between atoms: C_4  and  C_5
REMARK    5  A    between atoms: C_8  and  C_10
REMARK    6  A    between atoms: N_22  and  C_23
REMARK    7  A    between atoms: C_23  and  C_24
REMARK                            x       y       z     vdW  Elec       q    Type
REMARK                         _______ _______ _______ _____ _____    ______ ____
ROOT
ATOM      1  C   UNL     1       0.593  11.133  18.511  0.00  0.00    +0.000 C 
ATOM      2  C   UNL     1       0.339   9.646  18.814  0.00  0.00    +0.000 C 
ATOM      3  N   UNL     1       0.769   9.279  20.171  0.00  0.00    +0.000 N 
ATOM      4  C   UNL     1       1.553   8.186  20.559  0.00  0.00    +0.000 C 
ATOM      5  O   UNL     1       1.755   7.934  21.747  0.00  0.00    +0.000 OA
ATOM      6  C   UNL     1       0.186  10.127  21.219  0.00  0.00    +0.000 C 
ATOM      7  C   UNL     1       0.295  11.638  20.891  0.00  0.00    +0.000 C 
ATOM      8  N   UNL     1      -0.077  12.034  19.506  0.00  0.00    +0.000 NA
ENDROOT
BRANCH   4   9
ATOM      9  C   UNL     1       2.199   7.297  19.539  0.00  0.00    +0.000 A 
ATOM     10  C   UNL     1       2.926   7.887  18.492  0.00  0.00    +0.000 A 
ATOM     11  C   UNL     1       3.612   7.107  17.570  0.00  0.00    +0.000 A 
ATOM     12  C   UNL     1       3.478   5.725  17.605  0.00  0.00    +0.000 A 
ATOM     13  C   UNL     1       2.670   5.104  18.568  0.00  0.00    +0.000 A 
ATOM     14  C   UNL     1       2.497   3.711  18.517  0.00  0.00    +0.000 A 
ATOM     15  C   UNL     1       1.706   3.049  19.452  0.00  0.00    +0.000 A 
ATOM     16  C   UNL     1       1.092   3.774  20.462  0.00  0.00    +0.000 A 
ATOM     17  C   UNL     1       1.259   5.161  20.528  0.00  0.00    +0.000 A 
ATOM     18  C   UNL     1       2.030   5.877  19.573  0.00  0.00    +0.000 A 
ENDBRANCH   4   9
BRANCH   1  19
ATOM     19  C   UNL     1       2.119  11.423  18.407  0.00  0.00    +0.000 C 
BRANCH  19  20
ATOM     20  C   UNL     1       2.497  12.892  18.165  0.00  0.00    +0.000 C 
BRANCH  20  22
ATOM     21  C   UNL     1       2.290  14.835  19.478  0.00  0.00    +0.000 C 
ATOM     22  O   UNL     1       2.886  13.543  19.375  0.00  0.00    +0.000 OA
ENDBRANCH  20  22
ENDBRANCH  19  20
ENDBRANCH   1  19
BRANCH   8  23
ATOM     23  C   UNL     1      -1.559  12.011  19.401  0.00  0.00    +0.000 C 
BRANCH  23  24
ATOM     24  C   UNL     1      -2.229  12.999  20.299  0.00  0.00    +0.000 A 
ATOM     25  C   UNL     1      -3.310  12.836  21.139  0.00  0.00    +0.000 A 
ATOM     26  N   UNL     1      -3.481  14.048  21.745  0.00  0.00    +0.000 N 
ATOM     27  C   UNL     1      -2.535  14.894  21.251  0.00  0.00    +0.000 A 
ATOM     28  N   UNL     1      -1.760  14.297  20.380  0.00  0.00    +0.000 NA
ATOM     29  H   UNL     1      -4.185  14.276  22.438  0.00  0.00    +0.000 HD
ENDBRANCH  23  24
ENDBRANCH   8  23
TORSDOF 6
ENDMDL
MODEL 9
REMARK VINA RESULT:      -5.7      3.306      5.983
REMARK  Name = 
REMARK  7 active torsions:
REMARK  status: ('A' for Active; 'I' for Inactive)
REMARK    1  A    between atoms: C_1  and  O_2
REMARK    2  A    between atoms: O_2  and  C_3
REMARK    3  A    between atoms: C_3  and  C_4
REMARK    4  A    between atoms: C_4  and  C_5
REMARK    5  A    between atoms: C_8  and  C_10
REMARK    6  A    between atoms: N_22  and  C_23
REMARK    7  A    between atoms: C_23  and  C_24
REMARK                            x       y       z     vdW  Elec       q    Type
REMARK                         _______ _______ _______ _____ _____    ______ ____
ROOT
ATOM      1  C   UNL     1      -0.872  12.506  20.409  0.00  0.00    +0.000 C 
ATOM      2  C   UNL     1      -0.878  10.976  20.240  0.00  0.00    +0.000 C 
ATOM      3  N   UNL     1      -0.229  10.295  21.369  0.00  0.00    +0.000 N 
ATOM      4  C   UNL     1       0.742   9.287  21.322  0.00  0.00    +0.000 C 
ATOM      5  O   UNL     1       1.129   8.725  22.346  0.00  0.00    +0.000 OA
ATOM      6  C   UNL     1      -0.782  10.672  22.676  0.00  0.00    +0.000 C 
ATOM      7  C   UNL     1      -0.925  12.206  22.841  0.00  0.00    +0.000 C 
ATOM      8  N   UNL     1      -1.525  12.934  21.691  0.00  0.00    +0.000 NA
ENDROOT
BRANCH   4   9
ATOM      9  C   UNL     1       1.365   8.874  20.022  0.00  0.00    +0.000 A 
ATOM     10  C   UNL     1       1.448   9.815  18.984  0.00  0.00    +0.000 A 
ATOM     11  C   UNL     1       2.091   9.508  17.791  0.00  0.00    +0.000 A 
ATOM     12  C   UNL     1       2.548   8.215  17.570  0.00  0.00    +0.000 A 
ATOM     13  C   UNL     1       2.383   7.217  18.541  0.00  0.00    +0.000 A 
ATOM     14  C   UNL     1       2.786   5.904  18.245  0.00  0.00    +0.000 A 
ATOM     15  C   UNL     1       2.644   4.880  19.177  0.00  0.00    +0.000 A 
ATOM     16  C   UNL     1       2.112   5.163  20.426  0.00  0.00    +0.000 A 
ATOM     17  C   UNL     1       1.710   6.466  20.737  0.00  0.00    +0.000 A 
ATOM     18  C   UNL     1       1.807   7.531  19.801  0.00  0.00    +0.000 A 
ENDBRANCH   4   9
BRANCH   1  19
ATOM     19  C   UNL     1       0.573  13.071  20.281  0.00  0.00    +0.000 C 
BRANCH  19  20
ATOM     20  C   UNL     1       0.808  14.440  20.938  0.00  0.00    +0.000 C 
BRANCH  20  22
ATOM     21  C   UNL     1       2.751  15.298  21.952  0.00  0.00    +0.000 C 
ATOM     22  O   UNL     1       1.694  14.346  22.052  0.00  0.00    +0.000 OA
ENDBRANCH  20  22
ENDBRANCH  19  20
ENDBRANCH   1  19
BRANCH   8  23
ATOM     23  C   UNL     1      -2.990  12.691  21.703  0.00  0.00    +0.000 C 
BRANCH  23  24
ATOM     24  C   UNL     1      -3.629  13.006  23.016  0.00  0.00    +0.000 A 
ATOM     25  C   UNL     1      -3.772  14.216  23.661  0.00  0.00    +0.000 A 
ATOM     26  N   UNL     1      -4.459  13.935  24.807  0.00  0.00    +0.000 N 
ATOM     27  C   UNL     1      -4.688  12.593  24.832  0.00  0.00    +0.000 A 
ATOM     28  N   UNL     1      -4.206  12.000  23.769  0.00  0.00    +0.000 NA
ATOM     29  H   UNL     1      -4.746  14.605  25.512  0.00  0.00    +0.000 HD
ENDBRANCH  23  24
ENDBRANCH   8  23
TORSDOF 6
ENDMDL
