MODEL 1
REMARK VINA RESULT:      -7.7      0.000      0.000
REMARK  Name = 
REMARK  7 active torsions:
REMARK  status: ('A' for Active; 'I' for Inactive)
REMARK    1  A    between atoms: C_1  and  C_2
REMARK    2  A    between atoms: C_2  and  N_3
REMARK    3  A    between atoms: N_3  and  C_4
REMARK    4  A    between atoms: C_4  and  C_5
REMARK    5  A    between atoms: N_8  and  C_9
REMARK    6  A    between atoms: C_9  and  C_10
REMARK    7  A    between atoms: C_19  and  C_21
REMARK                            x       y       z     vdW  Elec       q    Type
REMARK                         _______ _______ _______ _____ _____    ______ ____
ROOT
ATOM      1  C   UNL     1       2.467   5.372  18.794  0.00  0.00    +0.000 C 
ATOM      2  C   UNL     1       2.445   6.814  18.309  0.00  0.00    +0.000 C 
ATOM      3  C   UNL     1       2.234   7.899  19.364  0.00  0.00    +0.000 C 
ATOM      4  N   UNL     1       1.487   7.561  20.571  0.00  0.00    +0.000 NA
ATOM      5  C   UNL     1       1.616   6.206  21.076  0.00  0.00    +0.000 C 
ATOM      6  C   UNL     1       1.591   5.118  20.016  0.00  0.00    +0.000 C 
ENDROOT
BRANCH   1   7
ATOM      7  C   UNL     1       3.894   4.806  18.910  0.00  0.00    +0.000 C 
BRANCH   7   8
ATOM      8  N   UNL     1       4.274   3.999  17.742  0.00  0.00    +0.000 N 
ATOM      9  C   UNL     1       5.465   4.170  16.990  0.00  0.00    +0.000 C 
ATOM     10  O   UNL     1       5.741   3.489  16.008  0.00  0.00    +0.000 OA
BRANCH   9  11
ATOM     11  C   UNL     1       6.417   5.279  17.324  0.00  0.00    +0.000 A 
ATOM     12  C   UNL     1       7.391   5.149  18.320  0.00  0.00    +0.000 A 
ATOM     13  C   UNL     1       8.083   6.270  18.783  0.00  0.00    +0.000 A 
ATOM     14  C   UNL     1       7.888   7.506  18.167  0.00  0.00    +0.000 A 
ATOM     15 CL   UNL     1       8.694   8.892  18.785  0.00  0.00    +0.000 Cl
ATOM     16  C   UNL     1       7.026   7.621  17.076  0.00  0.00    +0.000 A 
ATOM     17  C   UNL     1       6.283   6.507  16.648  0.00  0.00    +0.000 A 
ENDBRANCH   9  11
BRANCH   8  19
ATOM     18  C   UNL     1       3.170   1.732  18.365  0.00  0.00    +0.000 C 
ATOM     19  C   UNL     1       3.416   2.857  17.352  0.00  0.00    +0.000 C 
ENDBRANCH   8  19
ENDBRANCH   7   8
ENDBRANCH   1   7
BRANCH   4  20
ATOM     20  C   UNL     1       1.600   8.577  21.645  0.00  0.00    +0.000 C 
BRANCH  20  21
ATOM     21  C   UNL     1       0.442   9.565  21.768  0.00  0.00    +0.000 A 
ATOM     22  C   UNL     1       0.068  10.334  20.651  0.00  0.00    +0.000 A 
ATOM     23  C   UNL     1      -0.887  11.346  20.766  0.00  0.00    +0.000 A 
ATOM     24  C   UNL     1      -1.508  11.580  21.984  0.00  0.00    +0.000 A 
ATOM     25 CL   UNL     1      -2.634  12.865  22.148  0.00  0.00    +0.000 Cl
ATOM     26  C   UNL     1      -1.194  10.787  23.092  0.00  0.00    +0.000 A 
ATOM     27  C   UNL     1      -0.227   9.781  22.981  0.00  0.00    +0.000 A 
ENDBRANCH  20  21
ENDBRANCH   4  20
TORSDOF 6
ENDMDL
MODEL 2
REMARK VINA RESULT:      -7.5      2.279      3.102
REMARK  Name = 
REMARK  7 active torsions:
REMARK  status: ('A' for Active; 'I' for Inactive)
REMARK    1  A    between atoms: C_1  and  C_2
REMARK    2  A    between atoms: C_2  and  N_3
REMARK    3  A    between atoms: N_3  and  C_4
REMARK    4  A    between atoms: C_4  and  C_5
REMARK    5  A    between atoms: N_8  and  C_9
REMARK    6  A    between atoms: C_9  and  C_10
REMARK    7  A    between atoms: C_19  and  C_21
REMARK                            x       y       z     vdW  Elec       q    Type
REMARK                         _______ _______ _______ _____ _____    ______ ____
ROOT
ATOM      1  C   UNL     1       3.009   6.471  19.317  0.00  0.00    +0.000 C 
ATOM      2  C   UNL     1       2.310   7.189  20.462  0.00  0.00    +0.000 C 
ATOM      3  C   UNL     1       1.360   8.327  20.092  0.00  0.00    +0.000 C 
ATOM      4  N   UNL     1       1.604   9.064  18.856  0.00  0.00    +0.000 NA
ATOM      5  C   UNL     1       2.168   8.324  17.741  0.00  0.00    +0.000 C 
ATOM      6  C   UNL     1       3.281   7.358  18.106  0.00  0.00    +0.000 C 
ENDROOT
BRANCH   1   7
ATOM      7  C   UNL     1       2.357   5.119  18.976  0.00  0.00    +0.000 C 
BRANCH   7   8
ATOM      8  N   UNL     1       3.055   3.986  19.600  0.00  0.00    +0.000 N 
ATOM      9  C   UNL     1       4.299   3.460  19.165  0.00  0.00    +0.000 C 
ATOM     10  O   UNL     1       4.845   2.500  19.700  0.00  0.00    +0.000 OA
BRANCH   9  11
ATOM     11  C   UNL     1       4.972   4.018  17.947  0.00  0.00    +0.000 A 
ATOM     12  C   UNL     1       4.426   3.881  16.667  0.00  0.00    +0.000 A 
ATOM     13  C   UNL     1       5.190   4.177  15.536  0.00  0.00    +0.000 A 
ATOM     14  C   UNL     1       6.464   4.724  15.686  0.00  0.00    +0.000 A 
ATOM     15 CL   UNL     1       7.422   5.023  14.292  0.00  0.00    +0.000 Cl
ATOM     16  C   UNL     1       6.966   5.000  16.958  0.00  0.00    +0.000 A 
ATOM     17  C   UNL     1       6.223   4.647  18.098  0.00  0.00    +0.000 A 
ENDBRANCH   9  11
BRANCH   8  19
ATOM     18  C   UNL     1       0.987   3.083  20.884  0.00  0.00    +0.000 C 
ATOM     19  C   UNL     1       2.489   3.387  20.829  0.00  0.00    +0.000 C 
ENDBRANCH   8  19
ENDBRANCH   7   8
ENDBRANCH   1   7
BRANCH   4  20
ATOM     20  C   UNL     1       0.470   9.928  18.446  0.00  0.00    +0.000 C 
BRANCH  20  21
ATOM     21  C   UNL     1       0.093  11.051  19.408  0.00  0.00    +0.000 A 
ATOM     22  C   UNL     1       1.066  11.995  19.786  0.00  0.00    +0.000 A 
ATOM     23  C   UNL     1       0.796  12.947  20.771  0.00  0.00    +0.000 A 
ATOM     24  C   UNL     1      -0.456  12.995  21.366  0.00  0.00    +0.000 A 
ATOM     25 CL   UNL     1      -0.773  14.119  22.623  0.00  0.00    +0.000 Cl
ATOM     26  C   UNL     1      -1.456  12.105  20.962  0.00  0.00    +0.000 A 
ATOM     27  C   UNL     1      -1.183  11.143  19.984  0.00  0.00    +0.000 A 
ENDBRANCH  20  21
ENDBRANCH   4  20
TORSDOF 6
ENDMDL
MODEL 3
REMARK VINA RESULT:      -7.5      2.446      3.290
REMARK  Name = 
REMARK  7 active torsions:
REMARK  status: ('A' for Active; 'I' for Inactive)
REMARK    1  A    between atoms: C_1  and  C_2
REMARK    2  A    between atoms: C_2  and  N_3
REMARK    3  A    between atoms: N_3  and  C_4
REMARK    4  A    between atoms: C_4  and  C_5
REMARK    5  A    between atoms: N_8  and  C_9
REMARK    6  A    between atoms: C_9  and  C_10
REMARK    7  A    between atoms: C_19  and  C_21
REMARK                            x       y       z     vdW  Elec       q    Type
REMARK                         _______ _______ _______ _____ _____    ______ ____
ROOT
ATOM      1  C   UNL     1       2.910   6.644  19.293  0.00  0.00    +0.000 C 
ATOM      2  C   UNL     1       2.104   7.304  20.402  0.00  0.00    +0.000 C 
ATOM      3  C   UNL     1       1.100   8.378  19.987  0.00  0.00    +0.000 C 
ATOM      4  N   UNL     1       1.357   9.140  18.769  0.00  0.00    +0.000 NA
ATOM      5  C   UNL     1       2.029   8.449  17.683  0.00  0.00    +0.000 C 
ATOM      6  C   UNL     1       3.184   7.558  18.102  0.00  0.00    +0.000 C 
ENDROOT
BRANCH   1   7
ATOM      7  C   UNL     1       2.370   5.254  18.911  0.00  0.00    +0.000 C 
BRANCH   7   8
ATOM      8  N   UNL     1       3.083   4.168  19.599  0.00  0.00    +0.000 N 
ATOM      9  C   UNL     1       4.335   3.636  19.198  0.00  0.00    +0.000 C 
ATOM     10  O   UNL     1       4.892   2.715  19.786  0.00  0.00    +0.000 OA
BRANCH   9  11
ATOM     11  C   UNL     1       5.004   4.134  17.952  0.00  0.00    +0.000 A 
ATOM     12  C   UNL     1       4.437   3.965  16.684  0.00  0.00    +0.000 A 
ATOM     13  C   UNL     1       5.192   4.203  15.533  0.00  0.00    +0.000 A 
ATOM     14  C   UNL     1       6.480   4.725  15.648  0.00  0.00    +0.000 A 
ATOM     15 CL   UNL     1       7.425   4.952  14.231  0.00  0.00    +0.000 Cl
ATOM     16  C   UNL     1       7.005   5.035  16.902  0.00  0.00    +0.000 A 
ATOM     17  C   UNL     1       6.271   4.739  18.064  0.00  0.00    +0.000 A 
ENDBRANCH   9  11
BRANCH   8  19
ATOM     18  C   UNL     1       1.074   3.124  20.871  0.00  0.00    +0.000 C 
ATOM     19  C   UNL     1       2.521   3.630  20.859  0.00  0.00    +0.000 C 
ENDBRANCH   8  19
ENDBRANCH   7   8
ENDBRANCH   1   7
BRANCH   4  20
ATOM     20  C   UNL     1       0.191   9.928  18.303  0.00  0.00    +0.000 C 
BRANCH  20  21
ATOM     21  C   UNL     1      -0.125  11.198  19.089  0.00  0.00    +0.000 A 
ATOM     22  C   UNL     1      -1.462  11.497  19.413  0.00  0.00    +0.000 A 
ATOM     23  C   UNL     1      -1.801  12.717  20.002  0.00  0.00    +0.000 A 
ATOM     24  C   UNL     1      -0.810  13.639  20.309  0.00  0.00    +0.000 A 
ATOM     25 CL   UNL     1      -1.227  15.166  20.971  0.00  0.00    +0.000 Cl
ATOM     26  C   UNL     1       0.530  13.337  20.049  0.00  0.00    +0.000 A 
ATOM     27  C   UNL     1       0.869  12.120  19.447  0.00  0.00    +0.000 A 
ENDBRANCH  20  21
ENDBRANCH   4  20
TORSDOF 6
ENDMDL
MODEL 4
REMARK VINA RESULT:      -7.3      4.086      9.477
REMARK  Name = 
REMARK  7 active torsions:
REMARK  status: ('A' for Active; 'I' for Inactive)
REMARK    1  A    between atoms: C_1  and  C_2
REMARK    2  A    between atoms: C_2  and  N_3
REMARK    3  A    between atoms: N_3  and  C_4
REMARK    4  A    between atoms: C_4  and  C_5
REMARK    5  A    between atoms: N_8  and  C_9
REMARK    6  A    between atoms: C_9  and  C_10
REMARK    7  A    between atoms: C_19  and  C_21
REMARK                            x       y       z     vdW  Elec       q    Type
REMARK                         _______ _______ _______ _____ _____    ______ ____
ROOT
ATOM      1  C   UNL     1       0.964   9.634  20.028  0.00  0.00    +0.000 C 
ATOM      2  C   UNL     1       1.588   9.551  18.643  0.00  0.00    +0.000 C 
ATOM      3  C   UNL     1       2.017   8.169  18.155  0.00  0.00    +0.000 C 
ATOM      4  N   UNL     1       2.392   7.165  19.146  0.00  0.00    +0.000 NA
ATOM      5  C   UNL     1       1.698   7.199  20.421  0.00  0.00    +0.000 C 
ATOM      6  C   UNL     1       1.487   8.584  21.004  0.00  0.00    +0.000 C 
ENDROOT
BRANCH   1   7
ATOM      7  C   UNL     1      -0.570   9.748  19.984  0.00  0.00    +0.000 C 
BRANCH   7   8
ATOM      8  N   UNL     1      -1.041  11.107  20.288  0.00  0.00    +0.000 N 
ATOM      9  C   UNL     1      -2.002  11.822  19.527  0.00  0.00    +0.000 C 
ATOM     10  O   UNL     1      -2.358  12.964  19.799  0.00  0.00    +0.000 OA
BRANCH   9  11
ATOM     11  C   UNL     1      -2.569  11.226  18.274  0.00  0.00    +0.000 A 
ATOM     12  C   UNL     1      -1.837  10.346  17.470  0.00  0.00    +0.000 A 
ATOM     13  C   UNL     1      -2.288  10.015  16.190  0.00  0.00    +0.000 A 
ATOM     14  C   UNL     1      -3.533  10.470  15.756  0.00  0.00    +0.000 A 
ATOM     15 CL   UNL     1      -4.050  10.113  14.158  0.00  0.00    +0.000 Cl
ATOM     16  C   UNL     1      -4.338  11.231  16.603  0.00  0.00    +0.000 A 
ATOM     17  C   UNL     1      -3.861  11.616  17.868  0.00  0.00    +0.000 A 
ENDBRANCH   9  11
BRANCH   8  19
ATOM     18  C   UNL     1      -1.094  11.283  22.878  0.00  0.00    +0.000 C 
ATOM     19  C   UNL     1      -0.565  11.769  21.523  0.00  0.00    +0.000 C 
ENDBRANCH   8  19
ENDBRANCH   7   8
ENDBRANCH   1   7
BRANCH   4  20
ATOM     20  C   UNL     1       2.495   5.793  18.593  0.00  0.00    +0.000 C 
BRANCH  20  21
ATOM     21  C   UNL     1       3.717   5.502  17.727  0.00  0.00    +0.000 A 
ATOM     22  C   UNL     1       4.683   6.507  17.533  0.00  0.00    +0.000 A 
ATOM     23  C   UNL     1       5.736   6.324  16.634  0.00  0.00    +0.000 A 
ATOM     24  C   UNL     1       5.862   5.126  15.946  0.00  0.00    +0.000 A 
ATOM     25 CL   UNL     1       7.115   4.920  14.792  0.00  0.00    +0.000 Cl
ATOM     26  C   UNL     1       4.947   4.093  16.170  0.00  0.00    +0.000 A 
ATOM     27  C   UNL     1       3.884   4.280  17.061  0.00  0.00    +0.000 A 
ENDBRANCH  20  21
ENDBRANCH   4  20
TORSDOF 6
ENDMDL
MODEL 5
REMARK VINA RESULT:      -7.3      2.754      3.667
REMARK  Name = 
REMARK  7 active torsions:
REMARK  status: ('A' for Active; 'I' for Inactive)
REMARK    1  A    between atoms: C_1  and  C_2
REMARK    2  A    between atoms: C_2  and  N_3
REMARK    3  A    between atoms: N_3  and  C_4
REMARK    4  A    between atoms: C_4  and  C_5
REMARK    5  A    between atoms: N_8  and  C_9
REMARK    6  A    between atoms: C_9  and  C_10
REMARK    7  A    between atoms: C_19  and  C_21
REMARK                            x       y       z     vdW  Elec       q    Type
REMARK                         _______ _______ _______ _____ _____    ______ ____
ROOT
ATOM      1  C   UNL     1       2.777   6.149  19.184  0.00  0.00    +0.000 C 
ATOM      2  C   UNL     1       2.200   6.819  20.422  0.00  0.00    +0.000 C 
ATOM      3  C   UNL     1       1.439   8.128  20.214  0.00  0.00    +0.000 C 
ATOM      4  N   UNL     1       1.794   8.965  19.072  0.00  0.00    +0.000 NA
ATOM      5  C   UNL     1       2.235   8.291  17.864  0.00  0.00    +0.000 C 
ATOM      6  C   UNL     1       3.183   7.126  18.086  0.00  0.00    +0.000 C 
ENDROOT
BRANCH   1   7
ATOM      7  C   UNL     1       1.922   4.967  18.694  0.00  0.00    +0.000 C 
BRANCH   7   8
ATOM      8  N   UNL     1       2.418   3.673  19.185  0.00  0.00    +0.000 N 
ATOM      9  C   UNL     1       3.654   3.084  18.815  0.00  0.00    +0.000 C 
ATOM     10  O   UNL     1       4.028   1.992  19.231  0.00  0.00    +0.000 OA
BRANCH   9  11
ATOM     11  C   UNL     1       4.538   3.752  17.805  0.00  0.00    +0.000 A 
ATOM     12  C   UNL     1       4.197   3.823  16.450  0.00  0.00    +0.000 A 
ATOM     13  C   UNL     1       5.145   4.214  15.501  0.00  0.00    +0.000 A 
ATOM     14  C   UNL     1       6.402   4.649  15.919  0.00  0.00    +0.000 A 
ATOM     15 CL   UNL     1       7.583   5.066  14.743  0.00  0.00    +0.000 Cl
ATOM     16  C   UNL     1       6.706   4.721  17.279  0.00  0.00    +0.000 A 
ATOM     17  C   UNL     1       5.775   4.270  18.231  0.00  0.00    +0.000 A 
ENDBRANCH   9  11
BRANCH   8  19
ATOM     18  C   UNL     1       1.900   3.244  21.693  0.00  0.00    +0.000 C 
ATOM     19  C   UNL     1       1.634   2.950  20.212  0.00  0.00    +0.000 C 
ENDBRANCH   8  19
ENDBRANCH   7   8
ENDBRANCH   1   7
BRANCH   4  20
ATOM     20  C   UNL     1       0.809  10.038  18.794  0.00  0.00    +0.000 C 
BRANCH  20  21
ATOM     21  C   UNL     1       1.252  11.463  19.115  0.00  0.00    +0.000 A 
ATOM     22  C   UNL     1       2.151  12.119  18.253  0.00  0.00    +0.000 A 
ATOM     23  C   UNL     1       2.687  13.364  18.590  0.00  0.00    +0.000 A 
ATOM     24  C   UNL     1       2.307  13.987  19.770  0.00  0.00    +0.000 A 
ATOM     25 CL   UNL     1       3.012  15.486  20.221  0.00  0.00    +0.000 Cl
ATOM     26  C   UNL     1       1.370  13.380  20.610  0.00  0.00    +0.000 A 
ATOM     27  C   UNL     1       0.842  12.127  20.280  0.00  0.00    +0.000 A 
ENDBRANCH  20  21
ENDBRANCH   4  20
TORSDOF 6
ENDMDL
MODEL 6
REMARK VINA RESULT:      -7.3      2.027      2.804
REMARK  Name = 
REMARK  7 active torsions:
REMARK  status: ('A' for Active; 'I' for Inactive)
REMARK    1  A    between atoms: C_1  and  C_2
REMARK    2  A    between atoms: C_2  and  N_3
REMARK    3  A    between atoms: N_3  and  C_4
REMARK    4  A    between atoms: C_4  and  C_5
REMARK    5  A    between atoms: N_8  and  C_9
REMARK    6  A    between atoms: C_9  and  C_10
REMARK    7  A    between atoms: C_19  and  C_21
REMARK                            x       y       z     vdW  Elec       q    Type
REMARK                         _______ _______ _______ _____ _____    ______ ____
ROOT
ATOM      1  C   UNL     1       2.731   6.337  18.885  0.00  0.00    +0.000 C 
ATOM      2  C   UNL     1       2.186   6.289  20.305  0.00  0.00    +0.000 C 
ATOM      3  C   UNL     1       1.224   7.401  20.718  0.00  0.00    +0.000 C 
ATOM      4  N   UNL     1       1.336   8.700  20.062  0.00  0.00    +0.000 NA
ATOM      5  C   UNL     1       1.751   8.707  18.670  0.00  0.00    +0.000 C 
ATOM      6  C   UNL     1       2.878   7.749  18.328  0.00  0.00    +0.000 C 
ENDROOT
BRANCH   1   7
ATOM      7  C   UNL     1       2.015   5.356  17.939  0.00  0.00    +0.000 C 
BRANCH   7   8
ATOM      8  N   UNL     1       2.392   3.958  18.191  0.00  0.00    +0.000 N 
ATOM      9  C   UNL     1       3.724   3.474  18.248  0.00  0.00    +0.000 C 
ATOM     10  O   UNL     1       4.001   2.294  18.442  0.00  0.00    +0.000 OA
BRANCH   9  11
ATOM     11  C   UNL     1       4.876   4.395  17.979  0.00  0.00    +0.000 A 
ATOM     12  C   UNL     1       5.770   4.781  18.983  0.00  0.00    +0.000 A 
ATOM     13  C   UNL     1       6.666   5.831  18.767  0.00  0.00    +0.000 A 
ATOM     14  C   UNL     1       6.751   6.418  17.505  0.00  0.00    +0.000 A 
ATOM     15 CL   UNL     1       7.808   7.751  17.266  0.00  0.00    +0.000 Cl
ATOM     16  C   UNL     1       5.966   5.945  16.454  0.00  0.00    +0.000 A 
ATOM     17  C   UNL     1       5.020   4.931  16.685  0.00  0.00    +0.000 A 
ENDBRANCH   9  11
BRANCH   8  19
ATOM     18  C   UNL     1       0.780   2.901  19.931  0.00  0.00    +0.000 C 
ATOM     19  C   UNL     1       1.329   2.975  18.501  0.00  0.00    +0.000 C 
ENDBRANCH   8  19
ENDBRANCH   7   8
ENDBRANCH   1   7
BRANCH   4  20
ATOM     20  C   UNL     1       0.181   9.595  20.313  0.00  0.00    +0.000 C 
BRANCH  20  21
ATOM     21  C   UNL     1       0.322  11.035  19.826  0.00  0.00    +0.000 A 
ATOM     22  C   UNL     1       1.216  11.903  20.481  0.00  0.00    +0.000 A 
ATOM     23  C   UNL     1       1.264  13.260  20.156  0.00  0.00    +0.000 A 
ATOM     24  C   UNL     1       0.451  13.762  19.150  0.00  0.00    +0.000 A 
ATOM     25 CL   UNL     1       0.458  15.440  18.791  0.00  0.00    +0.000 Cl
ATOM     26  C   UNL     1      -0.401  12.905  18.446  0.00  0.00    +0.000 A 
ATOM     27  C   UNL     1      -0.459  11.548  18.780  0.00  0.00    +0.000 A 
ENDBRANCH  20  21
ENDBRANCH   4  20
TORSDOF 6
ENDMDL
MODEL 7
REMARK VINA RESULT:      -7.3      0.499      1.394
REMARK  Name = 
REMARK  7 active torsions:
REMARK  status: ('A' for Active; 'I' for Inactive)
REMARK    1  A    between atoms: C_1  and  C_2
REMARK    2  A    between atoms: C_2  and  N_3
REMARK    3  A    between atoms: N_3  and  C_4
REMARK    4  A    between atoms: C_4  and  C_5
REMARK    5  A    between atoms: N_8  and  C_9
REMARK    6  A    between atoms: C_9  and  C_10
REMARK    7  A    between atoms: C_19  and  C_21
REMARK                            x       y       z     vdW  Elec       q    Type
REMARK                         _______ _______ _______ _____ _____    ______ ____
ROOT
ATOM      1  C   UNL     1       2.433   5.149  18.883  0.00  0.00    +0.000 C 
ATOM      2  C   UNL     1       2.506   6.573  18.352  0.00  0.00    +0.000 C 
ATOM      3  C   UNL     1       2.265   7.702  19.354  0.00  0.00    +0.000 C 
ATOM      4  N   UNL     1       1.420   7.435  20.513  0.00  0.00    +0.000 NA
ATOM      5  C   UNL     1       1.456   6.094  21.069  0.00  0.00    +0.000 C 
ATOM      6  C   UNL     1       1.461   4.972  20.046  0.00  0.00    +0.000 C 
ENDROOT
BRANCH   1   7
ATOM      7  C   UNL     1       3.822   4.531  19.121  0.00  0.00    +0.000 C 
BRANCH   7   8
ATOM      8  N   UNL     1       4.360   3.878  17.919  0.00  0.00    +0.000 N 
ATOM      9  C   UNL     1       5.482   4.334  17.180  0.00  0.00    +0.000 C 
ATOM     10  O   UNL     1       5.891   3.773  16.169  0.00  0.00    +0.000 OA
BRANCH   9  11
ATOM     11  C   UNL     1       6.175   5.606  17.566  0.00  0.00    +0.000 A 
ATOM     12  C   UNL     1       5.822   6.843  17.017  0.00  0.00    +0.000 A 
ATOM     13  C   UNL     1       6.644   7.958  17.195  0.00  0.00    +0.000 A 
ATOM     14  C   UNL     1       7.763   7.866  18.023  0.00  0.00    +0.000 A 
ATOM     15 CL   UNL     1       8.804   9.222  18.184  0.00  0.00    +0.000 Cl
ATOM     16  C   UNL     1       8.047   6.676  18.693  0.00  0.00    +0.000 A 
ATOM     17  C   UNL     1       7.255   5.536  18.467  0.00  0.00    +0.000 A 
ENDBRANCH   9  11
BRANCH   8  19
ATOM     18  C   UNL     1       3.555   1.479  18.504  0.00  0.00    +0.000 C 
ATOM     19  C   UNL     1       3.765   2.597  17.475  0.00  0.00    +0.000 C 
ENDBRANCH   8  19
ENDBRANCH   7   8
ENDBRANCH   1   7
BRANCH   4  20
ATOM     20  C   UNL     1       1.498   8.483  21.559  0.00  0.00    +0.000 C 
BRANCH  20  21
ATOM     21  C   UNL     1       0.533   9.657  21.416  0.00  0.00    +0.000 A 
ATOM     22  C   UNL     1      -0.077  10.196  22.564  0.00  0.00    +0.000 A 
ATOM     23  C   UNL     1      -1.071  11.171  22.457  0.00  0.00    +0.000 A 
ATOM     24  C   UNL     1      -1.443  11.648  21.209  0.00  0.00    +0.000 A 
ATOM     25 CL   UNL     1      -2.709  12.798  21.066  0.00  0.00    +0.000 Cl
ATOM     26  C   UNL     1      -0.808  11.169  20.059  0.00  0.00    +0.000 A 
ATOM     27  C   UNL     1       0.179  10.182  20.165  0.00  0.00    +0.000 A 
ENDBRANCH  20  21
ENDBRANCH   4  20
TORSDOF 6
ENDMDL
MODEL 8
REMARK VINA RESULT:      -7.1      2.564      3.375
REMARK  Name = 
REMARK  7 active torsions:
REMARK  status: ('A' for Active; 'I' for Inactive)
REMARK    1  A    between atoms: C_1  and  C_2
REMARK    2  A    between atoms: C_2  and  N_3
REMARK    3  A    between atoms: N_3  and  C_4
REMARK    4  A    between atoms: C_4  and  C_5
REMARK    5  A    between atoms: N_8  and  C_9
REMARK    6  A    between atoms: C_9  and  C_10
REMARK    7  A    between atoms: C_19  and  C_21
REMARK                            x       y       z     vdW  Elec       q    Type
REMARK                         _______ _______ _______ _____ _____    ______ ____
ROOT
ATOM      1  C   UNL     1       2.834   6.457  18.829  0.00  0.00    +0.000 C 
ATOM      2  C   UNL     1       2.155   6.894  20.119  0.00  0.00    +0.000 C 
ATOM      3  C   UNL     1       1.272   8.139  20.053  0.00  0.00    +0.000 C 
ATOM      4  N   UNL     1       1.574   9.154  19.048  0.00  0.00    +0.000 NA
ATOM      5  C   UNL     1       2.116   8.696  17.782  0.00  0.00    +0.000 C 
ATOM      6  C   UNL     1       3.171   7.609  17.888  0.00  0.00    +0.000 C 
ENDROOT
BRANCH   1   7
ATOM      7  C   UNL     1       2.118   5.276  18.150  0.00  0.00    +0.000 C 
BRANCH   7   8
ATOM      8  N   UNL     1       2.515   3.979  18.715  0.00  0.00    +0.000 N 
ATOM      9  C   UNL     1       3.855   3.538  18.873  0.00  0.00    +0.000 C 
ATOM     10  O   UNL     1       4.149   2.439  19.332  0.00  0.00    +0.000 OA
BRANCH   9  11
ATOM     11  C   UNL     1       4.992   4.386  18.389  0.00  0.00    +0.000 A 
ATOM     12  C   UNL     1       5.888   5.002  19.269  0.00  0.00    +0.000 A 
ATOM     13  C   UNL     1       6.769   5.984  18.811  0.00  0.00    +0.000 A 
ATOM     14  C   UNL     1       6.837   6.269  17.447  0.00  0.00    +0.000 A 
ATOM     15 CL   UNL     1       7.875   7.523  16.899  0.00  0.00    +0.000 Cl
ATOM     16  C   UNL     1       6.051   5.559  16.539  0.00  0.00    +0.000 A 
ATOM     17  C   UNL     1       5.121   4.614  17.005  0.00  0.00    +0.000 A 
ENDBRANCH   9  11
BRANCH   8  19
ATOM     18  C   UNL     1       1.025   3.246  20.711  0.00  0.00    +0.000 C 
ATOM     19  C   UNL     1       1.468   3.082  19.253  0.00  0.00    +0.000 C 
ENDBRANCH   8  19
ENDBRANCH   7   8
ENDBRANCH   1   7
BRANCH   4  20
ATOM     20  C   UNL     1       0.494  10.155  18.872  0.00  0.00    +0.000 C 
BRANCH  20  21
ATOM     21  C   UNL     1       0.920  11.621  18.885  0.00  0.00    +0.000 A 
ATOM     22  C   UNL     1       0.003  12.604  19.302  0.00  0.00    +0.000 A 
ATOM     23  C   UNL     1       0.309  13.962  19.189  0.00  0.00    +0.000 A 
ATOM     24  C   UNL     1       1.545  14.357  18.696  0.00  0.00    +0.000 A 
ATOM     25 CL   UNL     1       1.902  16.023  18.493  0.00  0.00    +0.000 Cl
ATOM     26  C   UNL     1       2.491  13.395  18.332  0.00  0.00    +0.000 A 
ATOM     27  C   UNL     1       2.181  12.034  18.432  0.00  0.00    +0.000 A 
ENDBRANCH  20  21
ENDBRANCH   4  20
TORSDOF 6
ENDMDL
MODEL 9
REMARK VINA RESULT:      -7.1      2.755      3.723
REMARK  Name = 
REMARK  7 active torsions:
REMARK  status: ('A' for Active; 'I' for Inactive)
REMARK    1  A    between atoms: C_1  and  C_2
REMARK    2  A    between atoms: C_2  and  N_3
REMARK    3  A    between atoms: N_3  and  C_4
REMARK    4  A    between atoms: C_4  and  C_5
REMARK    5  A    between atoms: N_8  and  C_9
REMARK    6  A    between atoms: C_9  and  C_10
REMARK    7  A    between atoms: C_19  and  C_21
REMARK                            x       y       z     vdW  Elec       q    Type
REMARK                         _______ _______ _______ _____ _____    ______ ____
ROOT
ATOM      1  C   UNL     1       2.900   6.867  18.976  0.00  0.00    +0.000 C 
ATOM      2  C   UNL     1       2.278   7.456  20.234  0.00  0.00    +0.000 C 
ATOM      3  C   UNL     1       1.279   8.597  20.047  0.00  0.00    +0.000 C 
ATOM      4  N   UNL     1       1.409   9.451  18.871  0.00  0.00    +0.000 NA
ATOM      5  C   UNL     1       1.899   8.834  17.651  0.00  0.00    +0.000 C 
ATOM      6  C   UNL     1       3.057   7.869  17.837  0.00  0.00    +0.000 C 
ENDROOT
BRANCH   1   7
ATOM      7  C   UNL     1       2.251   5.535  18.560  0.00  0.00    +0.000 C 
BRANCH   7   8
ATOM      8  N   UNL     1       2.611   4.430  19.461  0.00  0.00    +0.000 N 
ATOM      9  C   UNL     1       3.798   3.660  19.368  0.00  0.00    +0.000 C 
ATOM     10  O   UNL     1       4.057   2.732  20.127  0.00  0.00    +0.000 OA
BRANCH   9  11
ATOM     11  C   UNL     1       4.770   3.900  18.251  0.00  0.00    +0.000 A 
ATOM     12  C   UNL     1       5.957   4.614  18.439  0.00  0.00    +0.000 A 
ATOM     13  C   UNL     1       6.707   5.042  17.341  0.00  0.00    +0.000 A 
ATOM     14  C   UNL     1       6.333   4.653  16.055  0.00  0.00    +0.000 A 
ATOM     15 CL   UNL     1       7.222   5.237  14.706  0.00  0.00    +0.000 Cl
ATOM     16  C   UNL     1       5.231   3.820  15.864  0.00  0.00    +0.000 A 
ATOM     17  C   UNL     1       4.440   3.439  16.962  0.00  0.00    +0.000 A 
ENDBRANCH   9  11
BRANCH   8  19
ATOM     18  C   UNL     1       0.759   2.954  20.526  0.00  0.00    +0.000 C 
ATOM     19  C   UNL     1       1.733   4.135  20.616  0.00  0.00    +0.000 C 
ENDBRANCH   8  19
ENDBRANCH   7   8
ENDBRANCH   1   7
BRANCH   4  20
ATOM     20  C   UNL     1       0.229  10.317  18.632  0.00  0.00    +0.000 C 
BRANCH  20  21
ATOM     21  C   UNL     1       0.439  11.816  18.826  0.00  0.00    +0.000 A 
ATOM     22  C   UNL     1      -0.605  12.707  18.512  0.00  0.00    +0.000 A 
ATOM     23  C   UNL     1      -0.400  14.088  18.539  0.00  0.00    +0.000 A 
ATOM     24  C   UNL     1       0.834  14.600  18.915  0.00  0.00    +0.000 A 
ATOM     25 CL   UNL     1       1.112  16.293  18.887  0.00  0.00    +0.000 Cl
ATOM     26  C   UNL     1       1.865  13.733  19.288  0.00  0.00    +0.000 A 
ATOM     27  C   UNL     1       1.665  12.349  19.248  0.00  0.00    +0.000 A 
ENDBRANCH  20  21
ENDBRANCH   4  20
TORSDOF 6
ENDMDL
