MODEL 1
REMARK VINA RESULT:      -6.9      0.000      0.000
REMARK  Name = 
REMARK  9 active torsions:
REMARK  status: ('A' for Active; 'I' for Inactive)
REMARK    1  A    between atoms: C_1  and  C_2
REMARK    2  A    between atoms: C_2  and  N_3
REMARK    3  A    between atoms: N_3  and  C_4
REMARK    4  A    between atoms: C_4  and  C_5
REMARK    5  A    between atoms: C_6  and  C_8
REMARK    6  A    between atoms: N_14  and  C_15
REMARK    7  A    between atoms: C_15  and  C_16
REMARK    8  A    between atoms: C_16  and  O_17
REMARK    9  A    between atoms: O_17  and  C_18
REMARK                            x       y       z     vdW  Elec       q    Type
REMARK                         _______ _______ _______ _____ _____    ______ ____
ROOT
ATOM      1  C   UNL     1       5.982   5.038  15.032  0.00  0.00    +0.000 A 
ATOM      2  C   UNL     1       5.225   6.202  15.207  0.00  0.00    +0.000 A 
ATOM      3  C   UNL     1       4.496   6.401  16.380  0.00  0.00    +0.000 A 
ATOM      4  C   UNL     1       4.452   5.395  17.348  0.00  0.00    +0.000 A 
ATOM      5  C   UNL     1       3.731   5.586  18.615  0.00  0.00    +0.000 A 
ATOM      6  O   UNL     1       3.321   6.719  18.881  0.00  0.00    +0.000 OA
ATOM      7  N   UNL     1       3.599   4.481  19.466  0.00  0.00    +0.000 N 
ATOM      8  C   UNL     1       4.258   3.272  19.230  0.00  0.00    +0.000 A 
ATOM      9  S   UNL     1       4.276   1.908  20.210  0.00  0.00    +0.000 S 
ATOM     10  N   UNL     1       4.999   3.180  18.078  0.00  0.00    +0.000 N 
ATOM     11  C   UNL     1       5.111   4.195  17.135  0.00  0.00    +0.000 A 
ATOM     12  C   UNL     1       5.887   4.013  15.989  0.00  0.00    +0.000 A 
ATOM     13  H   UNL     1       5.467   2.294  17.918  0.00  0.00    +0.000 HD
ENDROOT
BRANCH   1  15
ATOM     14  N   UNL     1       6.416   3.966  12.774  0.00  0.00    +0.000 N 
ATOM     15  C   UNL     1       6.839   4.787  13.837  0.00  0.00    +0.000 C 
ATOM     16  O   UNL     1       7.932   5.358  13.825  0.00  0.00    +0.000 OA
BRANCH  14  18
ATOM     17  C   UNL     1       7.387   2.192  11.323  0.00  0.00    +0.000 C 
ATOM     18  C   UNL     1       7.433   3.647  11.766  0.00  0.00    +0.000 C 
ENDBRANCH  14  18
BRANCH  14  19
ATOM     19  C   UNL     1       5.116   3.287  12.696  0.00  0.00    +0.000 C 
ATOM     20  C   UNL     1       4.276   3.529  11.452  0.00  0.00    +0.000 C 
ENDBRANCH  14  19
ENDBRANCH   1  15
BRANCH   7  21
ATOM     21  C   UNL     1       2.871   4.744  20.724  0.00  0.00    +0.000 C 
BRANCH  21  22
ATOM     22  C   UNL     1       1.346   4.558  20.650  0.00  0.00    +0.000 C 
BRANCH  22  23
ATOM     23  O   UNL     1       1.000   3.172  20.631  0.00  0.00    +0.000 OA
ATOM     24  C   UNL     1       0.610   2.766  19.323  0.00  0.00    +0.000 C 
ENDBRANCH  22  23
ENDBRANCH  21  22
ENDBRANCH   7  21
TORSDOF 6
ENDMDL
MODEL 2
REMARK VINA RESULT:      -6.8      4.938      7.153
REMARK  Name = 
REMARK  9 active torsions:
REMARK  status: ('A' for Active; 'I' for Inactive)
REMARK    1  A    between atoms: C_1  and  C_2
REMARK    2  A    between atoms: C_2  and  N_3
REMARK    3  A    between atoms: N_3  and  C_4
REMARK    4  A    between atoms: C_4  and  C_5
REMARK    5  A    between atoms: C_6  and  C_8
REMARK    6  A    between atoms: N_14  and  C_15
REMARK    7  A    between atoms: C_15  and  C_16
REMARK    8  A    between atoms: C_16  and  O_17
REMARK    9  A    between atoms: O_17  and  C_18
REMARK                            x       y       z     vdW  Elec       q    Type
REMARK                         _______ _______ _______ _____ _____    ______ ____
ROOT
ATOM      1  C   UNL     1       2.953   6.392  19.179  0.00  0.00    +0.000 A 
ATOM      2  C   UNL     1       2.882   7.159  18.011  0.00  0.00    +0.000 A 
ATOM      3  C   UNL     1       2.255   8.407  18.021  0.00  0.00    +0.000 A 
ATOM      4  C   UNL     1       1.620   8.854  19.182  0.00  0.00    +0.000 A 
ATOM      5  C   UNL     1       0.987  10.179  19.244  0.00  0.00    +0.000 A 
ATOM      6  O   UNL     1       1.191  10.960  18.310  0.00  0.00    +0.000 OA
ATOM      7  N   UNL     1       0.238  10.494  20.385  0.00  0.00    +0.000 N 
ATOM      8  C   UNL     1       0.207   9.669  21.511  0.00  0.00    +0.000 A 
ATOM      9  S   UNL     1      -0.559   9.966  22.976  0.00  0.00    +0.000 S 
ATOM     10  N   UNL     1       0.896   8.484  21.436  0.00  0.00    +0.000 N 
ATOM     11  C   UNL     1       1.592   8.053  20.312  0.00  0.00    +0.000 A 
ATOM     12  C   UNL     1       2.265   6.829  20.323  0.00  0.00    +0.000 A 
ATOM     13  H   UNL     1       0.860   7.893  22.259  0.00  0.00    +0.000 HD
ENDROOT
BRANCH   1  15
ATOM     14  N   UNL     1       2.985   3.856  19.144  0.00  0.00    +0.000 N 
ATOM     15  C   UNL     1       3.664   5.083  19.261  0.00  0.00    +0.000 C 
ATOM     16  O   UNL     1       4.886   5.141  19.415  0.00  0.00    +0.000 OA
BRANCH  14  18
ATOM     17  C   UNL     1       3.566   1.545  18.425  0.00  0.00    +0.000 C 
ATOM     18  C   UNL     1       3.773   2.655  19.444  0.00  0.00    +0.000 C 
ENDBRANCH  14  18
BRANCH  14  19
ATOM     19  C   UNL     1       1.541   3.706  18.919  0.00  0.00    +0.000 C 
ATOM     20  C   UNL     1       0.680   3.357  20.122  0.00  0.00    +0.000 C 
ENDBRANCH  14  19
ENDBRANCH   1  15
BRANCH   7  21
ATOM     21  C   UNL     1      -0.364  11.843  20.385  0.00  0.00    +0.000 C 
BRANCH  21  22
ATOM     22  C   UNL     1      -1.861  11.895  20.039  0.00  0.00    +0.000 C 
BRANCH  22  23
ATOM     23  O   UNL     1      -2.136  11.151  18.849  0.00  0.00    +0.000 OA
ATOM     24  C   UNL     1      -3.388  11.537  18.290  0.00  0.00    +0.000 C 
ENDBRANCH  22  23
ENDBRANCH  21  22
ENDBRANCH   7  21
TORSDOF 6
ENDMDL
MODEL 3
REMARK VINA RESULT:      -6.7      4.994      7.322
REMARK  Name = 
REMARK  9 active torsions:
REMARK  status: ('A' for Active; 'I' for Inactive)
REMARK    1  A    between atoms: C_1  and  C_2
REMARK    2  A    between atoms: C_2  and  N_3
REMARK    3  A    between atoms: N_3  and  C_4
REMARK    4  A    between atoms: C_4  and  C_5
REMARK    5  A    between atoms: C_6  and  C_8
REMARK    6  A    between atoms: N_14  and  C_15
REMARK    7  A    between atoms: C_15  and  C_16
REMARK    8  A    between atoms: C_16  and  O_17
REMARK    9  A    between atoms: O_17  and  C_18
REMARK                            x       y       z     vdW  Elec       q    Type
REMARK                         _______ _______ _______ _____ _____    ______ ____
ROOT
ATOM      1  C   UNL     1       2.932   6.544  19.046  0.00  0.00    +0.000 A 
ATOM      2  C   UNL     1       2.811   7.352  17.910  0.00  0.00    +0.000 A 
ATOM      3  C   UNL     1       2.151   8.580  17.983  0.00  0.00    +0.000 A 
ATOM      4  C   UNL     1       1.534   8.965  19.176  0.00  0.00    +0.000 A 
ATOM      5  C   UNL     1       0.867  10.269  19.304  0.00  0.00    +0.000 A 
ATOM      6  O   UNL     1       1.026  11.090  18.396  0.00  0.00    +0.000 OA
ATOM      7  N   UNL     1       0.138  10.519  20.473  0.00  0.00    +0.000 N 
ATOM      8  C   UNL     1       0.157   9.651  21.568  0.00  0.00    +0.000 A 
ATOM      9  S   UNL     1      -0.579   9.871  23.061  0.00  0.00    +0.000 S 
ATOM     10  N   UNL     1       0.876   8.490  21.430  0.00  0.00    +0.000 N 
ATOM     11  C   UNL     1       1.555   8.121  20.274  0.00  0.00    +0.000 A 
ATOM     12  C   UNL     1       2.261   6.918  20.222  0.00  0.00    +0.000 A 
ATOM     13  H   UNL     1       0.877   7.868  22.231  0.00  0.00    +0.000 HD
ENDROOT
BRANCH   1  15
ATOM     14  N   UNL     1       3.028   4.011  18.945  0.00  0.00    +0.000 N 
ATOM     15  C   UNL     1       3.680   5.253  19.059  0.00  0.00    +0.000 C 
ATOM     16  O   UNL     1       4.906   5.340  19.155  0.00  0.00    +0.000 OA
BRANCH  14  18
ATOM     17  C   UNL     1       3.494   1.661  18.268  0.00  0.00    +0.000 C 
ATOM     18  C   UNL     1       3.861   2.826  19.177  0.00  0.00    +0.000 C 
ENDBRANCH  14  18
BRANCH  14  19
ATOM     19  C   UNL     1       1.579   3.827  18.788  0.00  0.00    +0.000 C 
ATOM     20  C   UNL     1       0.781   3.481  20.034  0.00  0.00    +0.000 C 
ENDBRANCH  14  19
ENDBRANCH   1  15
BRANCH   7  21
ATOM     21  C   UNL     1      -0.499  11.850  20.540  0.00  0.00    +0.000 C 
BRANCH  21  22
ATOM     22  C   UNL     1       0.311  12.930  21.275  0.00  0.00    +0.000 C 
BRANCH  22  23
ATOM     23  O   UNL     1       1.111  13.681  20.358  0.00  0.00    +0.000 OA
ATOM     24  C   UNL     1       2.497  13.499  20.630  0.00  0.00    +0.000 C 
ENDBRANCH  22  23
ENDBRANCH  21  22
ENDBRANCH   7  21
TORSDOF 6
ENDMDL
MODEL 4
REMARK VINA RESULT:      -6.7      4.416      7.480
REMARK  Name = 
REMARK  9 active torsions:
REMARK  status: ('A' for Active; 'I' for Inactive)
REMARK    1  A    between atoms: C_1  and  C_2
REMARK    2  A    between atoms: C_2  and  N_3
REMARK    3  A    between atoms: N_3  and  C_4
REMARK    4  A    between atoms: C_4  and  C_5
REMARK    5  A    between atoms: C_6  and  C_8
REMARK    6  A    between atoms: N_14  and  C_15
REMARK    7  A    between atoms: C_15  and  C_16
REMARK    8  A    between atoms: C_16  and  O_17
REMARK    9  A    between atoms: O_17  and  C_18
REMARK                            x       y       z     vdW  Elec       q    Type
REMARK                         _______ _______ _______ _____ _____    ______ ____
ROOT
ATOM      1  C   UNL     1       1.411   9.157  19.332  0.00  0.00    +0.000 A 
ATOM      2  C   UNL     1       2.220   9.082  18.192  0.00  0.00    +0.000 A 
ATOM      3  C   UNL     1       2.846   7.883  17.847  0.00  0.00    +0.000 A 
ATOM      4  C   UNL     1       2.737   6.776  18.691  0.00  0.00    +0.000 A 
ATOM      5  C   UNL     1       3.346   5.485  18.340  0.00  0.00    +0.000 A 
ATOM      6  O   UNL     1       3.798   5.351  17.200  0.00  0.00    +0.000 OA
ATOM      7  N   UNL     1       3.328   4.469  19.304  0.00  0.00    +0.000 N 
ATOM      8  C   UNL     1       2.621   4.587  20.503  0.00  0.00    +0.000 A 
ATOM      9  S   UNL     1       2.426   3.421  21.696  0.00  0.00    +0.000 S 
ATOM     10  N   UNL     1       1.987   5.781  20.738  0.00  0.00    +0.000 N 
ATOM     11  C   UNL     1       2.028   6.873  19.877  0.00  0.00    +0.000 A 
ATOM     12  C   UNL     1       1.353   8.053  20.198  0.00  0.00    +0.000 A 
ATOM     13  H   UNL     1       1.482   5.855  21.615  0.00  0.00    +0.000 HD
ENDROOT
BRANCH   1  15
ATOM     14  N   UNL     1      -0.468  10.830  19.006  0.00  0.00    +0.000 N 
ATOM     15  C   UNL     1       0.657  10.382  19.725  0.00  0.00    +0.000 C 
ATOM     16  O   UNL     1       1.064  10.968  20.731  0.00  0.00    +0.000 OA
BRANCH  14  18
ATOM     17  C   UNL     1      -0.621  13.233  18.376  0.00  0.00    +0.000 C 
ATOM     18  C   UNL     1      -0.985  12.150  19.382  0.00  0.00    +0.000 C 
ENDBRANCH  14  18
BRANCH  14  19
ATOM     19  C   UNL     1      -1.036  10.165  17.826  0.00  0.00    +0.000 C 
ATOM     20  C   UNL     1      -2.540   9.946  17.806  0.00  0.00    +0.000 C 
ENDBRANCH  14  19
ENDBRANCH   1  15
BRANCH   7  21
ATOM     21  C   UNL     1       3.950   3.197  18.884  0.00  0.00    +0.000 C 
BRANCH  21  22
ATOM     22  C   UNL     1       2.967   2.062  18.556  0.00  0.00    +0.000 C 
BRANCH  22  23
ATOM     23  O   UNL     1       1.815   2.564  17.874  0.00  0.00    +0.000 OA
ATOM     24  C   UNL     1       0.633   2.316  18.629  0.00  0.00    +0.000 C 
ENDBRANCH  22  23
ENDBRANCH  21  22
ENDBRANCH   7  21
TORSDOF 6
ENDMDL
MODEL 5
REMARK VINA RESULT:      -6.4      4.570      6.650
REMARK  Name = 
REMARK  9 active torsions:
REMARK  status: ('A' for Active; 'I' for Inactive)
REMARK    1  A    between atoms: C_1  and  C_2
REMARK    2  A    between atoms: C_2  and  N_3
REMARK    3  A    between atoms: N_3  and  C_4
REMARK    4  A    between atoms: C_4  and  C_5
REMARK    5  A    between atoms: C_6  and  C_8
REMARK    6  A    between atoms: N_14  and  C_15
REMARK    7  A    between atoms: C_15  and  C_16
REMARK    8  A    between atoms: C_16  and  O_17
REMARK    9  A    between atoms: O_17  and  C_18
REMARK                            x       y       z     vdW  Elec       q    Type
REMARK                         _______ _______ _______ _____ _____    ______ ____
ROOT
ATOM      1  C   UNL     1       3.644   5.486  18.826  0.00  0.00    +0.000 A 
ATOM      2  C   UNL     1       3.646   6.181  17.611  0.00  0.00    +0.000 A 
ATOM      3  C   UNL     1       3.042   7.435  17.513  0.00  0.00    +0.000 A 
ATOM      4  C   UNL     1       2.355   7.961  18.610  0.00  0.00    +0.000 A 
ATOM      5  C   UNL     1       1.742   9.297  18.558  0.00  0.00    +0.000 A 
ATOM      6  O   UNL     1       2.007  10.016  17.590  0.00  0.00    +0.000 OA
ATOM      7  N   UNL     1       0.940   9.692  19.636  0.00  0.00    +0.000 N 
ATOM      8  C   UNL     1       0.837   8.938  20.807  0.00  0.00    +0.000 A 
ATOM      9  S   UNL     1       0.002   9.335  22.209  0.00  0.00    +0.000 S 
ATOM     10  N   UNL     1       1.508   7.741  20.840  0.00  0.00    +0.000 N 
ATOM     11  C   UNL     1       2.255   7.232  19.783  0.00  0.00    +0.000 A 
ATOM     12  C   UNL     1       2.905   6.002  19.904  0.00  0.00    +0.000 A 
ATOM     13  H   UNL     1       1.420   7.202  21.695  0.00  0.00    +0.000 HD
ENDROOT
BRANCH   1  15
ATOM     14  N   UNL     1       3.657   2.949  18.849  0.00  0.00    +0.000 N 
ATOM     15  C   UNL     1       4.327   4.175  19.024  0.00  0.00    +0.000 C 
ATOM     16  O   UNL     1       5.521   4.228  19.329  0.00  0.00    +0.000 OA
BRANCH  14  18
ATOM     17  C   UNL     1       4.579   1.677  20.780  0.00  0.00    +0.000 C 
ATOM     18  C   UNL     1       4.391   1.751  19.271  0.00  0.00    +0.000 C 
ENDBRANCH  14  18
BRANCH  14  19
ATOM     19  C   UNL     1       2.252   2.804  18.447  0.00  0.00    +0.000 C 
ATOM     20  C   UNL     1       1.217   2.701  19.556  0.00  0.00    +0.000 C 
ENDBRANCH  14  19
ENDBRANCH   1  15
BRANCH   7  21
ATOM     21  C   UNL     1       0.363  11.046  19.523  0.00  0.00    +0.000 C 
BRANCH  21  22
ATOM     22  C   UNL     1      -1.052  11.109  18.923  0.00  0.00    +0.000 C 
BRANCH  22  23
ATOM     23  O   UNL     1      -1.912  11.920  19.727  0.00  0.00    +0.000 OA
ATOM     24  C   UNL     1      -1.159  12.671  20.675  0.00  0.00    +0.000 C 
ENDBRANCH  22  23
ENDBRANCH  21  22
ENDBRANCH   7  21
TORSDOF 6
ENDMDL
MODEL 6
REMARK VINA RESULT:      -6.4      4.559      6.806
REMARK  Name = 
REMARK  9 active torsions:
REMARK  status: ('A' for Active; 'I' for Inactive)
REMARK    1  A    between atoms: C_1  and  C_2
REMARK    2  A    between atoms: C_2  and  N_3
REMARK    3  A    between atoms: N_3  and  C_4
REMARK    4  A    between atoms: C_4  and  C_5
REMARK    5  A    between atoms: C_6  and  C_8
REMARK    6  A    between atoms: N_14  and  C_15
REMARK    7  A    between atoms: C_15  and  C_16
REMARK    8  A    between atoms: C_16  and  O_17
REMARK    9  A    between atoms: O_17  and  C_18
REMARK                            x       y       z     vdW  Elec       q    Type
REMARK                         _______ _______ _______ _____ _____    ______ ____
ROOT
ATOM      1  C   UNL     1       3.643   5.462  18.810  0.00  0.00    +0.000 A 
ATOM      2  C   UNL     1       3.632   6.148  17.590  0.00  0.00    +0.000 A 
ATOM      3  C   UNL     1       3.030   7.404  17.491  0.00  0.00    +0.000 A 
ATOM      4  C   UNL     1       2.361   7.941  18.593  0.00  0.00    +0.000 A 
ATOM      5  C   UNL     1       1.753   9.279  18.540  0.00  0.00    +0.000 A 
ATOM      6  O   UNL     1       2.007   9.989  17.564  0.00  0.00    +0.000 OA
ATOM      7  N   UNL     1       0.967   9.684  19.627  0.00  0.00    +0.000 N 
ATOM      8  C   UNL     1       0.878   8.939  20.805  0.00  0.00    +0.000 A 
ATOM      9  S   UNL     1       0.064   9.349  22.216  0.00  0.00    +0.000 S 
ATOM     10  N   UNL     1       1.545   7.740  20.837  0.00  0.00    +0.000 N 
ATOM     11  C   UNL     1       2.274   7.220  19.773  0.00  0.00    +0.000 A 
ATOM     12  C   UNL     1       2.922   5.989  19.894  0.00  0.00    +0.000 A 
ATOM     13  H   UNL     1       1.467   7.207  21.697  0.00  0.00    +0.000 HD
ENDROOT
BRANCH   1  15
ATOM     14  N   UNL     1       3.641   2.926  18.875  0.00  0.00    +0.000 N 
ATOM     15  C   UNL     1       4.324   4.150  19.007  0.00  0.00    +0.000 C 
ATOM     16  O   UNL     1       5.528   4.200  19.273  0.00  0.00    +0.000 OA
BRANCH  14  18
ATOM     17  C   UNL     1       4.605   1.673  20.797  0.00  0.00    +0.000 C 
ATOM     18  C   UNL     1       4.381   1.730  19.293  0.00  0.00    +0.000 C 
ENDBRANCH  14  18
BRANCH  14  19
ATOM     19  C   UNL     1       2.223   2.784  18.521  0.00  0.00    +0.000 C 
ATOM     20  C   UNL     1       1.226   2.683  19.664  0.00  0.00    +0.000 C 
ENDBRANCH  14  19
ENDBRANCH   1  15
BRANCH   7  21
ATOM     21  C   UNL     1       0.394  11.040  19.512  0.00  0.00    +0.000 C 
BRANCH  21  22
ATOM     22  C   UNL     1       1.283  12.176  20.043  0.00  0.00    +0.000 C 
BRANCH  22  23
ATOM     23  O   UNL     1       1.671  13.058  18.986  0.00  0.00    +0.000 OA
ATOM     24  C   UNL     1       0.722  14.107  18.829  0.00  0.00    +0.000 C 
ENDBRANCH  22  23
ENDBRANCH  21  22
ENDBRANCH   7  21
TORSDOF 6
ENDMDL
MODEL 7
REMARK VINA RESULT:      -6.3      5.205      6.814
REMARK  Name = 
REMARK  9 active torsions:
REMARK  status: ('A' for Active; 'I' for Inactive)
REMARK    1  A    between atoms: C_1  and  C_2
REMARK    2  A    between atoms: C_2  and  N_3
REMARK    3  A    between atoms: N_3  and  C_4
REMARK    4  A    between atoms: C_4  and  C_5
REMARK    5  A    between atoms: C_6  and  C_8
REMARK    6  A    between atoms: N_14  and  C_15
REMARK    7  A    between atoms: C_15  and  C_16
REMARK    8  A    between atoms: C_16  and  O_17
REMARK    9  A    between atoms: O_17  and  C_18
REMARK                            x       y       z     vdW  Elec       q    Type
REMARK                         _______ _______ _______ _____ _____    ______ ____
ROOT
ATOM      1  C   UNL     1       2.821   6.962  18.310  0.00  0.00    +0.000 A 
ATOM      2  C   UNL     1       2.606   7.972  17.366  0.00  0.00    +0.000 A 
ATOM      3  C   UNL     1       2.009   9.176  17.743  0.00  0.00    +0.000 A 
ATOM      4  C   UNL     1       1.545   9.341  19.050  0.00  0.00    +0.000 A 
ATOM      5  C   UNL     1       0.950  10.609  19.496  0.00  0.00    +0.000 A 
ATOM      6  O   UNL     1       1.039  11.583  18.743  0.00  0.00    +0.000 OA
ATOM      7  N   UNL     1       0.368  10.648  20.769  0.00  0.00    +0.000 N 
ATOM      8  C   UNL     1       0.475   9.589  21.674  0.00  0.00    +0.000 A 
ATOM      9  S   UNL     1      -0.079   9.537  23.258  0.00  0.00    +0.000 S 
ATOM     10  N   UNL     1       1.127   8.462  21.240  0.00  0.00    +0.000 N 
ATOM     11  C   UNL     1       1.656   8.305  19.963  0.00  0.00    +0.000 A 
ATOM     12  C   UNL     1       2.303   7.120  19.607  0.00  0.00    +0.000 A 
ATOM     13  H   UNL     1       1.193   7.699  21.905  0.00  0.00    +0.000 HD
ENDROOT
BRANCH   1  15
ATOM     14  N   UNL     1       4.849   5.639  17.554  0.00  0.00    +0.000 N 
ATOM     15  C   UNL     1       3.513   5.678  17.997  0.00  0.00    +0.000 C 
ATOM     16  O   UNL     1       2.853   4.651  18.169  0.00  0.00    +0.000 OA
BRANCH  14  18
ATOM     17  C   UNL     1       5.287   4.189  15.578  0.00  0.00    +0.000 C 
ATOM     18  C   UNL     1       5.333   4.333  17.092  0.00  0.00    +0.000 C 
ENDBRANCH  14  18
BRANCH  14  19
ATOM     19  C   UNL     1       5.712   6.812  17.364  0.00  0.00    +0.000 C 
ATOM     20  C   UNL     1       7.186   6.655  17.697  0.00  0.00    +0.000 C 
ENDBRANCH  14  19
ENDBRANCH   1  15
BRANCH   7  21
ATOM     21  C   UNL     1      -0.204  11.954  21.156  0.00  0.00    +0.000 C 
BRANCH  21  22
ATOM     22  C   UNL     1      -1.723  12.089  20.962  0.00  0.00    +0.000 C 
BRANCH  22  23
ATOM     23  O   UNL     1      -2.399  12.117  22.221  0.00  0.00    +0.000 OA
ATOM     24  C   UNL     1      -1.766  13.029  23.114  0.00  0.00    +0.000 C 
ENDBRANCH  22  23
ENDBRANCH  21  22
ENDBRANCH   7  21
TORSDOF 6
ENDMDL
MODEL 8
REMARK VINA RESULT:      -6.3      4.857      8.172
REMARK  Name = 
REMARK  9 active torsions:
REMARK  status: ('A' for Active; 'I' for Inactive)
REMARK    1  A    between atoms: C_1  and  C_2
REMARK    2  A    between atoms: C_2  and  N_3
REMARK    3  A    between atoms: N_3  and  C_4
REMARK    4  A    between atoms: C_4  and  C_5
REMARK    5  A    between atoms: C_6  and  C_8
REMARK    6  A    between atoms: N_14  and  C_15
REMARK    7  A    between atoms: C_15  and  C_16
REMARK    8  A    between atoms: C_16  and  O_17
REMARK    9  A    between atoms: O_17  and  C_18
REMARK                            x       y       z     vdW  Elec       q    Type
REMARK                         _______ _______ _______ _____ _____    ______ ____
ROOT
ATOM      1  C   UNL     1       1.125   9.802  19.290  0.00  0.00    +0.000 A 
ATOM      2  C   UNL     1       1.934   9.798  18.149  0.00  0.00    +0.000 A 
ATOM      3  C   UNL     1       2.618   8.642  17.771  0.00  0.00    +0.000 A 
ATOM      4  C   UNL     1       2.564   7.507  18.585  0.00  0.00    +0.000 A 
ATOM      5  C   UNL     1       3.236   6.258  18.198  0.00  0.00    +0.000 A 
ATOM      6  O   UNL     1       3.693   6.178  17.055  0.00  0.00    +0.000 OA
ATOM      7  N   UNL     1       3.269   5.216  19.134  0.00  0.00    +0.000 N 
ATOM      8  C   UNL     1       2.558   5.266  20.335  0.00  0.00    +0.000 A 
ATOM      9  S   UNL     1       2.422   4.059  21.495  0.00  0.00    +0.000 S 
ATOM     10  N   UNL     1       1.867   6.421  20.603  0.00  0.00    +0.000 N 
ATOM     11  C   UNL     1       1.853   7.537  19.773  0.00  0.00    +0.000 A 
ATOM     12  C   UNL     1       1.121   8.672  20.126  0.00  0.00    +0.000 A 
ATOM     13  H   UNL     1       1.360   6.445  21.481  0.00  0.00    +0.000 HD
ENDROOT
BRANCH   1  15
ATOM     14  N   UNL     1      -0.998  11.190  19.247  0.00  0.00    +0.000 N 
ATOM     15  C   UNL     1       0.312  10.977  19.717  0.00  0.00    +0.000 C 
ATOM     16  O   UNL     1       0.847  11.741  20.523  0.00  0.00    +0.000 OA
BRANCH  14  18
ATOM     17  C   UNL     1      -2.417  12.432  20.872  0.00  0.00    +0.000 C 
ATOM     18  C   UNL     1      -1.601  12.483  19.589  0.00  0.00    +0.000 C 
ENDBRANCH  14  18
BRANCH  14  19
ATOM     19  C   UNL     1      -1.718  10.306  18.320  0.00  0.00    +0.000 C 
ATOM     20  C   UNL     1      -2.343  10.945  17.091  0.00  0.00    +0.000 C 
ENDBRANCH  14  19
ENDBRANCH   1  15
BRANCH   7  21
ATOM     21  C   UNL     1       3.952   3.988  18.679  0.00  0.00    +0.000 C 
BRANCH  21  22
ATOM     22  C   UNL     1       5.478   4.103  18.530  0.00  0.00    +0.000 C 
BRANCH  22  23
ATOM     23  O   UNL     1       6.052   4.776  19.653  0.00  0.00    +0.000 OA
ATOM     24  C   UNL     1       7.108   5.638  19.241  0.00  0.00    +0.000 C 
ENDBRANCH  22  23
ENDBRANCH  21  22
ENDBRANCH   7  21
TORSDOF 6
ENDMDL
MODEL 9
REMARK VINA RESULT:      -6.2      5.080      6.895
REMARK  Name = 
REMARK  9 active torsions:
REMARK  status: ('A' for Active; 'I' for Inactive)
REMARK    1  A    between atoms: C_1  and  C_2
REMARK    2  A    between atoms: C_2  and  N_3
REMARK    3  A    between atoms: N_3  and  C_4
REMARK    4  A    between atoms: C_4  and  C_5
REMARK    5  A    between atoms: C_6  and  C_8
REMARK    6  A    between atoms: N_14  and  C_15
REMARK    7  A    between atoms: C_15  and  C_16
REMARK    8  A    between atoms: C_16  and  O_17
REMARK    9  A    between atoms: O_17  and  C_18
REMARK                            x       y       z     vdW  Elec       q    Type
REMARK                         _______ _______ _______ _____ _____    ______ ____
ROOT
ATOM      1  C   UNL     1       2.934   6.920  18.505  0.00  0.00    +0.000 A 
ATOM      2  C   UNL     1       2.646   7.817  17.470  0.00  0.00    +0.000 A 
ATOM      3  C   UNL     1       1.921   8.982  17.727  0.00  0.00    +0.000 A 
ATOM      4  C   UNL     1       1.405   9.210  19.005  0.00  0.00    +0.000 A 
ATOM      5  C   UNL     1       0.674  10.445  19.325  0.00  0.00    +0.000 A 
ATOM      6  O   UNL     1       0.686  11.354  18.491  0.00  0.00    +0.000 OA
ATOM      7  N   UNL     1       0.054  10.533  20.577  0.00  0.00    +0.000 N 
ATOM      8  C   UNL     1       0.240   9.572  21.574  0.00  0.00    +0.000 A 
ATOM      9  S   UNL     1      -0.351   9.600  23.146  0.00  0.00    +0.000 S 
ATOM     10  N   UNL     1       1.014   8.485  21.255  0.00  0.00    +0.000 N 
ATOM     11  C   UNL     1       1.593   8.274  20.009  0.00  0.00    +0.000 A 
ATOM     12  C   UNL     1       2.366   7.135  19.771  0.00  0.00    +0.000 A 
ATOM     13  H   UNL     1       1.137   7.793  21.987  0.00  0.00    +0.000 HD
ENDROOT
BRANCH   1  15
ATOM     14  N   UNL     1       5.061   5.740  17.782  0.00  0.00    +0.000 N 
ATOM     15  C   UNL     1       3.761   5.692  18.320  0.00  0.00    +0.000 C 
ATOM     16  O   UNL     1       3.245   4.633  18.687  0.00  0.00    +0.000 OA
BRANCH  14  18
ATOM     17  C   UNL     1       5.459   4.023  16.024  0.00  0.00    +0.000 C 
ATOM     18  C   UNL     1       5.674   4.444  17.471  0.00  0.00    +0.000 C 
ENDBRANCH  14  18
BRANCH  14  19
ATOM     19  C   UNL     1       5.756   6.963  17.361  0.00  0.00    +0.000 C 
ATOM     20  C   UNL     1       7.273   6.971  17.459  0.00  0.00    +0.000 C 
ENDBRANCH  14  19
ENDBRANCH   1  15
BRANCH   7  21
ATOM     21  C   UNL     1      -0.657  11.802  20.835  0.00  0.00    +0.000 C 
BRANCH  21  22
ATOM     22  C   UNL     1       0.126  12.837  21.659  0.00  0.00    +0.000 C 
BRANCH  22  23
ATOM     23  O   UNL     1       1.527  12.755  21.385  0.00  0.00    +0.000 OA
ATOM     24  C   UNL     1       2.028  14.007  20.929  0.00  0.00    +0.000 C 
ENDBRANCH  22  23
ENDBRANCH  21  22
ENDBRANCH   7  21
TORSDOF 6
ENDMDL
