MODEL 1
REMARK VINA RESULT:      -8.2      0.000      0.000
REMARK  Name = 
REMARK  10 active torsions:
REMARK  status: ('A' for Active; 'I' for Inactive)
REMARK    1  A    between atoms: C_1  and  C_2
REMARK    2  A    between atoms: C_2  and  C_3
REMARK    3  A    between atoms: C_3  and  C_4
REMARK    4  A    between atoms: C_4  and  C_5
REMARK    5  A    between atoms: C_4  and  C_8
REMARK    6  A    between atoms: C_5  and  C_6
REMARK    7  A    between atoms: C_6  and  C_7
REMARK    8  A    between atoms: N_10  and  C_11
REMARK    9  A    between atoms: C_11  and  C_12
REMARK   10  A    between atoms: N_19  and  C_20
REMARK                            x       y       z     vdW  Elec       q    Type
REMARK                         _______ _______ _______ _____ _____    ______ ____
ROOT
ATOM      1  C   UNL     1       5.511   4.817  16.620  0.00  0.00    +0.000 A 
ATOM      2  C   UNL     1       5.234   6.165  16.369  0.00  0.00    +0.000 A 
ATOM      3  C   UNL     1       4.295   6.871  17.127  0.00  0.00    +0.000 A 
ATOM      4  C   UNL     1       3.621   6.191  18.156  0.00  0.00    +0.000 A 
ATOM      5  C   UNL     1       3.893   4.851  18.434  0.00  0.00    +0.000 A 
ATOM      6  C   UNL     1       3.122   4.563  19.578  0.00  0.00    +0.000 A 
ATOM      7  N   UNL     1       2.458   5.624  20.037  0.00  0.00    +0.000 NA
ATOM      8  N   UNL     1       2.696   6.597  19.116  0.00  0.00    +0.000 N 
ATOM      9  C   UNL     1       4.817   4.145  17.642  0.00  0.00    +0.000 A 
ENDROOT
BRANCH   8  10
ATOM     10  C   UNL     1       2.052   7.849  19.235  0.00  0.00    +0.000 A 
ATOM     11  C   UNL     1       1.870   8.699  18.143  0.00  0.00    +0.000 A 
ATOM     12  C   UNL     1       1.269   9.940  18.338  0.00  0.00    +0.000 A 
ATOM     13  C   UNL     1       0.873  10.285  19.620  0.00  0.00    +0.000 A 
ATOM     14  N   UNL     1       1.007   9.473  20.691  0.00  0.00    +0.000 NA
ATOM     15  C   UNL     1       1.577   8.262  20.475  0.00  0.00    +0.000 A 
ENDBRANCH   8  10
BRANCH   1  16
ATOM     16  C   UNL     1       6.581   4.112  15.828  0.00  0.00    +0.000 C 
BRANCH  16  19
ATOM     17  C   UNL     1       6.255   3.778  13.438  0.00  0.00    +0.000 C 
ATOM     18  O   UNL     1       6.867   4.818  13.201  0.00  0.00    +0.000 OA
ATOM     19  N   UNL     1       6.037   3.351  14.728  0.00  0.00    +0.000 N 
ATOM     20  H   UNL     1       5.484   2.528  14.920  0.00  0.00    +0.000 HD
BRANCH  17  21
ATOM     21  C   UNL     1       5.676   2.884  12.331  0.00  0.00    +0.000 C 
BRANCH  21  22
ATOM     22  C   UNL     1       4.847   3.759  11.360  0.00  0.00    +0.000 C 
BRANCH  22  24
ATOM     23  C   UNL     1       2.972   3.904   9.685  0.00  0.00    +0.000 C 
ATOM     24  C   UNL     1       3.527   3.146  10.887  0.00  0.00    +0.000 C 
ENDBRANCH  22  24
ENDBRANCH  21  22
BRANCH  21  25
ATOM     25  C   UNL     1       6.778   2.047  11.646  0.00  0.00    +0.000 C 
BRANCH  25  26
ATOM     26  C   UNL     1       6.248   0.943  10.726  0.00  0.00    +0.000 C 
ATOM     27  C   UNL     1       6.254  -0.413  11.416  0.00  0.00    +0.000 C 
ENDBRANCH  25  26
ENDBRANCH  21  25
ENDBRANCH  17  21
ENDBRANCH  16  19
ENDBRANCH   1  16
TORSDOF 8
ENDMDL
MODEL 2
REMARK VINA RESULT:      -8.0      2.836      5.371
REMARK  Name = 
REMARK  10 active torsions:
REMARK  status: ('A' for Active; 'I' for Inactive)
REMARK    1  A    between atoms: C_1  and  C_2
REMARK    2  A    between atoms: C_2  and  C_3
REMARK    3  A    between atoms: C_3  and  C_4
REMARK    4  A    between atoms: C_4  and  C_5
REMARK    5  A    between atoms: C_4  and  C_8
REMARK    6  A    between atoms: C_5  and  C_6
REMARK    7  A    between atoms: C_6  and  C_7
REMARK    8  A    between atoms: N_10  and  C_11
REMARK    9  A    between atoms: C_11  and  C_12
REMARK   10  A    between atoms: N_19  and  C_20
REMARK                            x       y       z     vdW  Elec       q    Type
REMARK                         _______ _______ _______ _____ _____    ______ ____
ROOT
ATOM      1  C   UNL     1       2.740   6.316  19.056  0.00  0.00    +0.000 A 
ATOM      2  C   UNL     1       2.658   7.265  18.031  0.00  0.00    +0.000 A 
ATOM      3  C   UNL     1       2.055   8.510  18.235  0.00  0.00    +0.000 A 
ATOM      4  C   UNL     1       1.520   8.792  19.504  0.00  0.00    +0.000 A 
ATOM      5  C   UNL     1       1.606   7.867  20.545  0.00  0.00    +0.000 A 
ATOM      6  C   UNL     1       1.073   8.541  21.662  0.00  0.00    +0.000 A 
ATOM      7  N   UNL     1       0.729   9.800  21.393  0.00  0.00    +0.000 NA
ATOM      8  N   UNL     1       0.923   9.925  20.052  0.00  0.00    +0.000 N 
ATOM      9  C   UNL     1       2.186   6.606  20.315  0.00  0.00    +0.000 A 
ENDROOT
BRANCH   8  10
ATOM     10  C   UNL     1       0.555  11.124  19.398  0.00  0.00    +0.000 A 
ATOM     11  C   UNL     1       1.482  12.124  19.103  0.00  0.00    +0.000 A 
ATOM     12  C   UNL     1       1.046  13.301  18.499  0.00  0.00    +0.000 A 
ATOM     13  C   UNL     1      -0.303  13.432  18.215  0.00  0.00    +0.000 A 
ATOM     14  N   UNL     1      -1.220  12.471  18.460  0.00  0.00    +0.000 NA
ATOM     15  C   UNL     1      -0.769  11.326  19.030  0.00  0.00    +0.000 A 
ENDBRANCH   8  10
BRANCH   1  16
ATOM     16  C   UNL     1       3.461   5.016  18.817  0.00  0.00    +0.000 C 
BRANCH  16  19
ATOM     17  C   UNL     1       5.875   5.084  18.505  0.00  0.00    +0.000 C 
ATOM     18  O   UNL     1       6.044   4.908  19.711  0.00  0.00    +0.000 OA
ATOM     19  N   UNL     1       4.614   5.176  17.963  0.00  0.00    +0.000 N 
ATOM     20  H   UNL     1       4.480   5.378  16.983  0.00  0.00    +0.000 HD
BRANCH  17  21
ATOM     21  C   UNL     1       7.041   5.225  17.515  0.00  0.00    +0.000 C 
BRANCH  21  22
ATOM     22  C   UNL     1       6.789   4.292  16.305  0.00  0.00    +0.000 C 
BRANCH  22  24
ATOM     23  C   UNL     1       6.301   4.004  13.852  0.00  0.00    +0.000 C 
ATOM     24  C   UNL     1       6.700   4.989  14.946  0.00  0.00    +0.000 C 
ENDBRANCH  22  24
ENDBRANCH  21  22
BRANCH  21  25
ATOM     25  C   UNL     1       7.286   6.702  17.137  0.00  0.00    +0.000 C 
BRANCH  25  26
ATOM     26  C   UNL     1       8.030   7.509  18.206  0.00  0.00    +0.000 C 
ATOM     27  C   UNL     1       8.069   8.991  17.862  0.00  0.00    +0.000 C 
ENDBRANCH  25  26
ENDBRANCH  21  25
ENDBRANCH  17  21
ENDBRANCH  16  19
ENDBRANCH   1  16
TORSDOF 8
ENDMDL
MODEL 3
REMARK VINA RESULT:      -8.0      0.503      2.010
REMARK  Name = 
REMARK  10 active torsions:
REMARK  status: ('A' for Active; 'I' for Inactive)
REMARK    1  A    between atoms: C_1  and  C_2
REMARK    2  A    between atoms: C_2  and  C_3
REMARK    3  A    between atoms: C_3  and  C_4
REMARK    4  A    between atoms: C_4  and  C_5
REMARK    5  A    between atoms: C_4  and  C_8
REMARK    6  A    between atoms: C_5  and  C_6
REMARK    7  A    between atoms: C_6  and  C_7
REMARK    8  A    between atoms: N_10  and  C_11
REMARK    9  A    between atoms: C_11  and  C_12
REMARK   10  A    between atoms: N_19  and  C_20
REMARK                            x       y       z     vdW  Elec       q    Type
REMARK                         _______ _______ _______ _____ _____    ______ ____
ROOT
ATOM      1  C   UNL     1       5.551   4.779  16.324  0.00  0.00    +0.000 A 
ATOM      2  C   UNL     1       5.478   6.176  16.343  0.00  0.00    +0.000 A 
ATOM      3  C   UNL     1       4.494   6.847  17.077  0.00  0.00    +0.000 A 
ATOM      4  C   UNL     1       3.565   6.080  17.801  0.00  0.00    +0.000 A 
ATOM      5  C   UNL     1       3.629   4.687  17.810  0.00  0.00    +0.000 A 
ATOM      6  C   UNL     1       2.625   4.292  18.717  0.00  0.00    +0.000 A 
ATOM      7  N   UNL     1       2.007   5.324  19.289  0.00  0.00    +0.000 NA
ATOM      8  N   UNL     1       2.523   6.417  18.663  0.00  0.00    +0.000 N 
ATOM      9  C   UNL     1       4.603   4.026  17.039  0.00  0.00    +0.000 A 
ENDROOT
BRANCH   8  10
ATOM     10  C   UNL     1       2.011   7.701  18.956  0.00  0.00    +0.000 A 
ATOM     11  C   UNL     1       1.845   8.678  17.974  0.00  0.00    +0.000 A 
ATOM     12  C   UNL     1       1.379   9.939  18.337  0.00  0.00    +0.000 A 
ATOM     13  C   UNL     1       1.097  10.176  19.672  0.00  0.00    +0.000 A 
ATOM     14  N   UNL     1       1.217   9.243  20.642  0.00  0.00    +0.000 NA
ATOM     15  C   UNL     1       1.654   8.017  20.262  0.00  0.00    +0.000 A 
ENDBRANCH   8  10
BRANCH   1  16
ATOM     16  C   UNL     1       6.668   4.098  15.579  0.00  0.00    +0.000 C 
BRANCH  16  19
ATOM     17  C   UNL     1       6.516   4.101  13.149  0.00  0.00    +0.000 C 
ATOM     18  O   UNL     1       7.123   5.170  13.104  0.00  0.00    +0.000 OA
ATOM     19  N   UNL     1       6.218   3.494  14.347  0.00  0.00    +0.000 N 
ATOM     20  H   UNL     1       5.669   2.647  14.382  0.00  0.00    +0.000 HD
BRANCH  17  21
ATOM     21  C   UNL     1       6.034   3.367  11.889  0.00  0.00    +0.000 C 
BRANCH  21  22
ATOM     22  C   UNL     1       6.865   2.072  11.713  0.00  0.00    +0.000 C 
BRANCH  22  24
ATOM     23  C   UNL     1       6.182  -0.335  11.434  0.00  0.00    +0.000 C 
ATOM     24  C   UNL     1       6.268   1.032  10.764  0.00  0.00    +0.000 C 
ENDBRANCH  22  24
ENDBRANCH  21  22
BRANCH  21  25
ATOM     25  C   UNL     1       4.506   3.141  11.915  0.00  0.00    +0.000 C 
BRANCH  25  26
ATOM     26  C   UNL     1       3.869   2.993  10.530  0.00  0.00    +0.000 C 
ATOM     27  C   UNL     1       3.186   4.279  10.087  0.00  0.00    +0.000 C 
ENDBRANCH  25  26
ENDBRANCH  21  25
ENDBRANCH  17  21
ENDBRANCH  16  19
ENDBRANCH   1  16
TORSDOF 8
ENDMDL
MODEL 4
REMARK VINA RESULT:      -7.9      2.646      5.203
REMARK  Name = 
REMARK  10 active torsions:
REMARK  status: ('A' for Active; 'I' for Inactive)
REMARK    1  A    between atoms: C_1  and  C_2
REMARK    2  A    between atoms: C_2  and  C_3
REMARK    3  A    between atoms: C_3  and  C_4
REMARK    4  A    between atoms: C_4  and  C_5
REMARK    5  A    between atoms: C_4  and  C_8
REMARK    6  A    between atoms: C_5  and  C_6
REMARK    7  A    between atoms: C_6  and  C_7
REMARK    8  A    between atoms: N_10  and  C_11
REMARK    9  A    between atoms: C_11  and  C_12
REMARK   10  A    between atoms: N_19  and  C_20
REMARK                            x       y       z     vdW  Elec       q    Type
REMARK                         _______ _______ _______ _____ _____    ______ ____
ROOT
ATOM      1  C   UNL     1       2.457   5.856  19.194  0.00  0.00    +0.000 A 
ATOM      2  C   UNL     1       1.839   6.095  20.427  0.00  0.00    +0.000 A 
ATOM      3  C   UNL     1       1.342   7.358  20.763  0.00  0.00    +0.000 A 
ATOM      4  C   UNL     1       1.481   8.399  19.828  0.00  0.00    +0.000 A 
ATOM      5  C   UNL     1       2.078   8.179  18.587  0.00  0.00    +0.000 A 
ATOM      6  C   UNL     1       1.932   9.403  17.902  0.00  0.00    +0.000 A 
ATOM      7  N   UNL     1       1.255  10.312  18.602  0.00  0.00    +0.000 NA
ATOM      8  N   UNL     1       1.055   9.725  19.814  0.00  0.00    +0.000 N 
ATOM      9  C   UNL     1       2.604   6.911  18.277  0.00  0.00    +0.000 A 
ENDROOT
BRANCH   8  10
ATOM     10  C   UNL     1       0.444  10.459  20.857  0.00  0.00    +0.000 A 
ATOM     11  C   UNL     1      -0.366   9.853  21.817  0.00  0.00    +0.000 A 
ATOM     12  C   UNL     1      -0.975  10.641  22.791  0.00  0.00    +0.000 A 
ATOM     13  C   UNL     1      -0.752  12.007  22.766  0.00  0.00    +0.000 A 
ATOM     14  N   UNL     1       0.051  12.620  21.868  0.00  0.00    +0.000 NA
ATOM     15  C   UNL     1       0.649  11.831  20.942  0.00  0.00    +0.000 A 
ENDBRANCH   8  10
BRANCH   1  16
ATOM     16  C   UNL     1       2.915   4.466  18.843  0.00  0.00    +0.000 C 
BRANCH  16  19
ATOM     17  C   UNL     1       5.260   4.136  18.277  0.00  0.00    +0.000 C 
ATOM     18  O   UNL     1       5.516   3.874  19.451  0.00  0.00    +0.000 OA
ATOM     19  N   UNL     1       3.988   4.469  17.876  0.00  0.00    +0.000 N 
ATOM     20  H   UNL     1       3.794   4.739  16.923  0.00  0.00    +0.000 HD
BRANCH  17  21
ATOM     21  C   UNL     1       6.328   4.125  17.173  0.00  0.00    +0.000 C 
BRANCH  21  22
ATOM     22  C   UNL     1       5.681   4.582  15.843  0.00  0.00    +0.000 C 
BRANCH  22  24
ATOM     23  C   UNL     1       6.047   3.848  13.462  0.00  0.00    +0.000 C 
ATOM     24  C   UNL     1       6.621   4.633  14.637  0.00  0.00    +0.000 C 
ENDBRANCH  22  24
ENDBRANCH  21  22
BRANCH  21  25
ATOM     25  C   UNL     1       7.576   4.938  17.584  0.00  0.00    +0.000 C 
BRANCH  25  26
ATOM     26  C   UNL     1       7.259   6.250  18.308  0.00  0.00    +0.000 C 
ATOM     27  C   UNL     1       7.636   7.460  17.464  0.00  0.00    +0.000 C 
ENDBRANCH  25  26
ENDBRANCH  21  25
ENDBRANCH  17  21
ENDBRANCH  16  19
ENDBRANCH   1  16
TORSDOF 8
ENDMDL
MODEL 5
REMARK VINA RESULT:      -7.8      2.174      4.476
REMARK  Name = 
REMARK  10 active torsions:
REMARK  status: ('A' for Active; 'I' for Inactive)
REMARK    1  A    between atoms: C_1  and  C_2
REMARK    2  A    between atoms: C_2  and  C_3
REMARK    3  A    between atoms: C_3  and  C_4
REMARK    4  A    between atoms: C_4  and  C_5
REMARK    5  A    between atoms: C_4  and  C_8
REMARK    6  A    between atoms: C_5  and  C_6
REMARK    7  A    between atoms: C_6  and  C_7
REMARK    8  A    between atoms: N_10  and  C_11
REMARK    9  A    between atoms: C_11  and  C_12
REMARK   10  A    between atoms: N_19  and  C_20
REMARK                            x       y       z     vdW  Elec       q    Type
REMARK                         _______ _______ _______ _____ _____    ______ ____
ROOT
ATOM      1  C   UNL     1       3.166   5.064  19.364  0.00  0.00    +0.000 A 
ATOM      2  C   UNL     1       2.450   5.247  20.552  0.00  0.00    +0.000 A 
ATOM      3  C   UNL     1       1.814   6.459  20.841  0.00  0.00    +0.000 A 
ATOM      4  C   UNL     1       1.913   7.504  19.906  0.00  0.00    +0.000 A 
ATOM      5  C   UNL     1       2.608   7.337  18.708  0.00  0.00    +0.000 A 
ATOM      6  C   UNL     1       2.392   8.538  18.002  0.00  0.00    +0.000 A 
ATOM      7  N   UNL     1       1.587   9.381  18.648  0.00  0.00    +0.000 NA
ATOM      8  N   UNL     1       1.365   8.784  19.850  0.00  0.00    +0.000 N 
ATOM      9  C   UNL     1       3.271   6.124  18.446  0.00  0.00    +0.000 A 
ENDROOT
BRANCH   8  10
ATOM     10  C   UNL     1       0.621   9.461  20.844  0.00  0.00    +0.000 A 
ATOM     11  C   UNL     1       0.619   9.053  22.178  0.00  0.00    +0.000 A 
ATOM     12  C   UNL     1      -0.173   9.735  23.099  0.00  0.00    +0.000 A 
ATOM     13  C   UNL     1      -0.934  10.801  22.648  0.00  0.00    +0.000 A 
ATOM     14  N   UNL     1      -0.930  11.239  21.370  0.00  0.00    +0.000 NA
ATOM     15  C   UNL     1      -0.137  10.572  20.496  0.00  0.00    +0.000 A 
ENDBRANCH   8  10
BRANCH   1  16
ATOM     16  C   UNL     1       3.776   3.721  19.057  0.00  0.00    +0.000 C 
BRANCH  16  19
ATOM     17  C   UNL     1       4.743   3.723  16.822  0.00  0.00    +0.000 C 
ATOM     18  O   UNL     1       3.636   3.503  16.334  0.00  0.00    +0.000 OA
ATOM     19  N   UNL     1       4.920   3.826  18.183  0.00  0.00    +0.000 N 
ATOM     20  H   UNL     1       5.839   3.948  18.582  0.00  0.00    +0.000 HD
BRANCH  17  21
ATOM     21  C   UNL     1       6.009   3.888  15.968  0.00  0.00    +0.000 C 
BRANCH  21  22
ATOM     22  C   UNL     1       5.605   4.404  14.566  0.00  0.00    +0.000 C 
BRANCH  22  24
ATOM     23  C   UNL     1       5.736   3.316  12.299  0.00  0.00    +0.000 C 
ATOM     24  C   UNL     1       6.527   3.982  13.420  0.00  0.00    +0.000 C 
ENDBRANCH  22  24
ENDBRANCH  21  22
BRANCH  21  25
ATOM     25  C   UNL     1       7.065   4.759  16.685  0.00  0.00    +0.000 C 
BRANCH  25  26
ATOM     26  C   UNL     1       6.729   6.253  16.719  0.00  0.00    +0.000 C 
ATOM     27  C   UNL     1       7.549   6.987  17.770  0.00  0.00    +0.000 C 
ENDBRANCH  25  26
ENDBRANCH  21  25
ENDBRANCH  17  21
ENDBRANCH  16  19
ENDBRANCH   1  16
TORSDOF 8
ENDMDL
MODEL 6
REMARK VINA RESULT:      -7.7      2.604      5.147
REMARK  Name = 
REMARK  10 active torsions:
REMARK  status: ('A' for Active; 'I' for Inactive)
REMARK    1  A    between atoms: C_1  and  C_2
REMARK    2  A    between atoms: C_2  and  C_3
REMARK    3  A    between atoms: C_3  and  C_4
REMARK    4  A    between atoms: C_4  and  C_5
REMARK    5  A    between atoms: C_4  and  C_8
REMARK    6  A    between atoms: C_5  and  C_6
REMARK    7  A    between atoms: C_6  and  C_7
REMARK    8  A    between atoms: N_10  and  C_11
REMARK    9  A    between atoms: C_11  and  C_12
REMARK   10  A    between atoms: N_19  and  C_20
REMARK                            x       y       z     vdW  Elec       q    Type
REMARK                         _______ _______ _______ _____ _____    ______ ____
ROOT
ATOM      1  C   UNL     1       2.385   6.307  19.043  0.00  0.00    +0.000 A 
ATOM      2  C   UNL     1       2.291   7.262  18.025  0.00  0.00    +0.000 A 
ATOM      3  C   UNL     1       1.811   8.551  18.276  0.00  0.00    +0.000 A 
ATOM      4  C   UNL     1       1.415   8.872  19.587  0.00  0.00    +0.000 A 
ATOM      5  C   UNL     1       1.516   7.941  20.620  0.00  0.00    +0.000 A 
ATOM      6  C   UNL     1       1.141   8.653  21.777  0.00  0.00    +0.000 A 
ATOM      7  N   UNL     1       0.878   9.936  21.534  0.00  0.00    +0.000 NA
ATOM      8  N   UNL     1       0.963  10.049  20.180  0.00  0.00    +0.000 N 
ATOM      9  C   UNL     1       1.969   6.637  20.345  0.00  0.00    +0.000 A 
ENDROOT
BRANCH   8  10
ATOM     10  C   UNL     1       0.638  11.275  19.556  0.00  0.00    +0.000 A 
ATOM     11  C   UNL     1      -0.629  11.528  19.028  0.00  0.00    +0.000 A 
ATOM     12  C   UNL     1      -0.870  12.739  18.384  0.00  0.00    +0.000 A 
ATOM     13  C   UNL     1       0.168  13.652  18.292  0.00  0.00    +0.000 A 
ATOM     14  N   UNL     1       1.395  13.450  18.820  0.00  0.00    +0.000 NA
ATOM     15  C   UNL     1       1.601  12.272  19.459  0.00  0.00    +0.000 A 
ENDBRANCH   8  10
BRANCH   1  16
ATOM     16  C   UNL     1       2.974   4.953  18.747  0.00  0.00    +0.000 C 
BRANCH  16  19
ATOM     17  C   UNL     1       5.271   4.455  18.112  0.00  0.00    +0.000 C 
ATOM     18  O   UNL     1       5.468   3.927  19.204  0.00  0.00    +0.000 OA
ATOM     19  N   UNL     1       4.058   5.021  17.796  0.00  0.00    +0.000 N 
ATOM     20  H   UNL     1       3.918   5.505  16.921  0.00  0.00    +0.000 HD
BRANCH  17  21
ATOM     21  C   UNL     1       6.352   4.539  17.023  0.00  0.00    +0.000 C 
BRANCH  21  22
ATOM     22  C   UNL     1       5.664   4.670  15.642  0.00  0.00    +0.000 C 
BRANCH  22  24
ATOM     23  C   UNL     1       6.163   3.789  13.336  0.00  0.00    +0.000 C 
ATOM     24  C   UNL     1       6.610   4.740  14.441  0.00  0.00    +0.000 C 
ENDBRANCH  22  24
ENDBRANCH  21  22
BRANCH  21  25
ATOM     25  C   UNL     1       7.378   5.652  17.329  0.00  0.00    +0.000 C 
BRANCH  25  26
ATOM     26  C   UNL     1       6.764   7.046  17.488  0.00  0.00    +0.000 C 
ATOM     27  C   UNL     1       7.836   8.122  17.587  0.00  0.00    +0.000 C 
ENDBRANCH  25  26
ENDBRANCH  21  25
ENDBRANCH  17  21
ENDBRANCH  16  19
ENDBRANCH   1  16
TORSDOF 8
ENDMDL
MODEL 7
REMARK VINA RESULT:      -7.7      4.062      9.317
REMARK  Name = 
REMARK  10 active torsions:
REMARK  status: ('A' for Active; 'I' for Inactive)
REMARK    1  A    between atoms: C_1  and  C_2
REMARK    2  A    between atoms: C_2  and  C_3
REMARK    3  A    between atoms: C_3  and  C_4
REMARK    4  A    between atoms: C_4  and  C_5
REMARK    5  A    between atoms: C_4  and  C_8
REMARK    6  A    between atoms: C_5  and  C_6
REMARK    7  A    between atoms: C_6  and  C_7
REMARK    8  A    between atoms: N_10  and  C_11
REMARK    9  A    between atoms: C_11  and  C_12
REMARK   10  A    between atoms: N_19  and  C_20
REMARK                            x       y       z     vdW  Elec       q    Type
REMARK                         _______ _______ _______ _____ _____    ______ ____
ROOT
ATOM      1  C   UNL     1       1.506   8.816  19.125  0.00  0.00    +0.000 A 
ATOM      2  C   UNL     1       2.196   8.947  17.915  0.00  0.00    +0.000 A 
ATOM      3  C   UNL     1       3.109   7.978  17.486  0.00  0.00    +0.000 A 
ATOM      4  C   UNL     1       3.326   6.857  18.306  0.00  0.00    +0.000 A 
ATOM      5  C   UNL     1       2.636   6.698  19.508  0.00  0.00    +0.000 A 
ATOM      6  C   UNL     1       3.030   5.429  19.977  0.00  0.00    +0.000 A 
ATOM      7  N   UNL     1       3.848   4.796  19.137  0.00  0.00    +0.000 NA
ATOM      8  N   UNL     1       4.097   5.706  18.157  0.00  0.00    +0.000 N 
ATOM      9  C   UNL     1       1.746   7.698  19.943  0.00  0.00    +0.000 A 
ENDROOT
BRANCH   8  10
ATOM     10  C   UNL     1       5.024   5.401  17.134  0.00  0.00    +0.000 A 
ATOM     11  C   UNL     1       4.792   4.394  16.197  0.00  0.00    +0.000 A 
ATOM     12  C   UNL     1       5.767   4.112  15.243  0.00  0.00    +0.000 A 
ATOM     13  C   UNL     1       6.940   4.849  15.265  0.00  0.00    +0.000 A 
ATOM     14  N   UNL     1       7.182   5.850  16.139  0.00  0.00    +0.000 NA
ATOM     15  C   UNL     1       6.210   6.120  17.046  0.00  0.00    +0.000 A 
ENDBRANCH   8  10
BRANCH   1  16
ATOM     16  C   UNL     1       0.480   9.846  19.517  0.00  0.00    +0.000 C 
BRANCH  16  19
ATOM     17  C   UNL     1      -1.567  10.905  18.729  0.00  0.00    +0.000 C 
ATOM     18  O   UNL     1      -1.668  11.519  19.790  0.00  0.00    +0.000 OA
ATOM     19  N   UNL     1      -0.536  10.022  18.505  0.00  0.00    +0.000 N 
ATOM     20  H   UNL     1      -0.489   9.477  17.656  0.00  0.00    +0.000 HD
BRANCH  17  21
ATOM     21  C   UNL     1      -2.576  11.059  17.581  0.00  0.00    +0.000 C 
BRANCH  21  22
ATOM     22  C   UNL     1      -2.100  10.211  16.376  0.00  0.00    +0.000 C 
BRANCH  22  24
ATOM     23  C   UNL     1      -3.367  10.204  14.200  0.00  0.00    +0.000 C 
ATOM     24  C   UNL     1      -3.210   9.541  15.565  0.00  0.00    +0.000 C 
ENDBRANCH  22  24
ENDBRANCH  21  22
BRANCH  21  25
ATOM     25  C   UNL     1      -4.015  10.747  18.047  0.00  0.00    +0.000 C 
BRANCH  25  26
ATOM     26  C   UNL     1      -5.042  11.822  17.678  0.00  0.00    +0.000 C 
ATOM     27  C   UNL     1      -6.453  11.404  18.063  0.00  0.00    +0.000 C 
ENDBRANCH  25  26
ENDBRANCH  21  25
ENDBRANCH  17  21
ENDBRANCH  16  19
ENDBRANCH   1  16
TORSDOF 8
ENDMDL
MODEL 8
REMARK VINA RESULT:      -7.7      2.955      5.755
REMARK  Name = 
REMARK  10 active torsions:
REMARK  status: ('A' for Active; 'I' for Inactive)
REMARK    1  A    between atoms: C_1  and  C_2
REMARK    2  A    between atoms: C_2  and  C_3
REMARK    3  A    between atoms: C_3  and  C_4
REMARK    4  A    between atoms: C_4  and  C_5
REMARK    5  A    between atoms: C_4  and  C_8
REMARK    6  A    between atoms: C_5  and  C_6
REMARK    7  A    between atoms: C_6  and  C_7
REMARK    8  A    between atoms: N_10  and  C_11
REMARK    9  A    between atoms: C_11  and  C_12
REMARK   10  A    between atoms: N_19  and  C_20
REMARK                            x       y       z     vdW  Elec       q    Type
REMARK                         _______ _______ _______ _____ _____    ______ ____
ROOT
ATOM      1  C   UNL     1       2.715   6.665  19.118  0.00  0.00    +0.000 A 
ATOM      2  C   UNL     1       2.116   6.737  20.381  0.00  0.00    +0.000 A 
ATOM      3  C   UNL     1       1.349   7.842  20.763  0.00  0.00    +0.000 A 
ATOM      4  C   UNL     1       1.194   8.896  19.845  0.00  0.00    +0.000 A 
ATOM      5  C   UNL     1       1.769   8.838  18.576  0.00  0.00    +0.000 A 
ATOM      6  C   UNL     1       1.306   9.998  17.924  0.00  0.00    +0.000 A 
ATOM      7  N   UNL     1       0.465  10.712  18.671  0.00  0.00    +0.000 NA
ATOM      8  N   UNL     1       0.465  10.082  19.877  0.00  0.00    +0.000 N 
ATOM      9  C   UNL     1       2.566   7.734  18.218  0.00  0.00    +0.000 A 
ENDROOT
BRANCH   8  10
ATOM     10  C   UNL     1      -0.254  10.639  20.960  0.00  0.00    +0.000 A 
ATOM     11  C   UNL     1      -0.344  10.002  22.198  0.00  0.00    +0.000 A 
ATOM     12  C   UNL     1      -1.107  10.582  23.209  0.00  0.00    +0.000 A 
ATOM     13  C   UNL     1      -1.754  11.778  22.941  0.00  0.00    +0.000 A 
ATOM     14  N   UNL     1      -1.662  12.434  21.763  0.00  0.00    +0.000 NA
ATOM     15  C   UNL     1      -0.898  11.861  20.801  0.00  0.00    +0.000 A 
ENDBRANCH   8  10
BRANCH   1  16
ATOM     16  C   UNL     1       3.474   5.427  18.719  0.00  0.00    +0.000 C 
BRANCH  16  19
ATOM     17  C   UNL     1       5.834   4.923  18.393  0.00  0.00    +0.000 C 
ATOM     18  O   UNL     1       5.743   3.962  19.155  0.00  0.00    +0.000 OA
ATOM     19  N   UNL     1       4.756   5.736  18.129  0.00  0.00    +0.000 N 
ATOM     20  H   UNL     1       4.849   6.557  17.549  0.00  0.00    +0.000 HD
BRANCH  17  21
ATOM     21  C   UNL     1       7.146   5.303  17.689  0.00  0.00    +0.000 C 
BRANCH  21  22
ATOM     22  C   UNL     1       7.341   4.382  16.460  0.00  0.00    +0.000 C 
BRANCH  22  24
ATOM     23  C   UNL     1       6.163   4.272  14.237  0.00  0.00    +0.000 C 
ATOM     24  C   UNL     1       6.058   3.979  15.730  0.00  0.00    +0.000 C 
ENDBRANCH  22  24
ENDBRANCH  21  22
BRANCH  21  25
ATOM     25  C   UNL     1       7.198   6.813  17.366  0.00  0.00    +0.000 C 
BRANCH  25  26
ATOM     26  C   UNL     1       8.145   7.615  18.263  0.00  0.00    +0.000 C 
ATOM     27  C   UNL     1       8.142   9.093  17.900  0.00  0.00    +0.000 C 
ENDBRANCH  25  26
ENDBRANCH  21  25
ENDBRANCH  17  21
ENDBRANCH  16  19
ENDBRANCH   1  16
TORSDOF 8
ENDMDL
MODEL 9
REMARK VINA RESULT:      -7.6      2.409      5.214
REMARK  Name = 
REMARK  10 active torsions:
REMARK  status: ('A' for Active; 'I' for Inactive)
REMARK    1  A    between atoms: C_1  and  C_2
REMARK    2  A    between atoms: C_2  and  C_3
REMARK    3  A    between atoms: C_3  and  C_4
REMARK    4  A    between atoms: C_4  and  C_5
REMARK    5  A    between atoms: C_4  and  C_8
REMARK    6  A    between atoms: C_5  and  C_6
REMARK    7  A    between atoms: C_6  and  C_7
REMARK    8  A    between atoms: N_10  and  C_11
REMARK    9  A    between atoms: C_11  and  C_12
REMARK   10  A    between atoms: N_19  and  C_20
REMARK                            x       y       z     vdW  Elec       q    Type
REMARK                         _______ _______ _______ _____ _____    ______ ____
ROOT
ATOM      1  C   UNL     1       2.509   6.382  19.504  0.00  0.00    +0.000 A 
ATOM      2  C   UNL     1       1.791   6.567  20.691  0.00  0.00    +0.000 A 
ATOM      3  C   UNL     1       1.107   7.759  20.951  0.00  0.00    +0.000 A 
ATOM      4  C   UNL     1       1.160   8.783  19.989  0.00  0.00    +0.000 A 
ATOM      5  C   UNL     1       1.856   8.612  18.792  0.00  0.00    +0.000 A 
ATOM      6  C   UNL     1       1.588   9.784  18.056  0.00  0.00    +0.000 A 
ATOM      7  N   UNL     1       0.752  10.611  18.684  0.00  0.00    +0.000 NA
ATOM      8  N   UNL     1       0.559  10.037  19.902  0.00  0.00    +0.000 N 
ATOM      9  C   UNL     1       2.567   7.421  18.558  0.00  0.00    +0.000 A 
ENDROOT
BRANCH   8  10
ATOM     10  C   UNL     1      -0.207  10.709  20.882  0.00  0.00    +0.000 A 
ATOM     11  C   UNL     1      -1.175  11.656  20.547  0.00  0.00    +0.000 A 
ATOM     12  C   UNL     1      -1.863  12.316  21.563  0.00  0.00    +0.000 A 
ATOM     13  C   UNL     1      -1.555  12.003  22.876  0.00  0.00    +0.000 A 
ATOM     14  N   UNL     1      -0.646  11.070  23.233  0.00  0.00    +0.000 NA
ATOM     15  C   UNL     1      -0.002  10.426  22.227  0.00  0.00    +0.000 A 
ENDBRANCH   8  10
BRANCH   1  16
ATOM     16  C   UNL     1       3.173   5.058  19.230  0.00  0.00    +0.000 C 
BRANCH  16  19
ATOM     17  C   UNL     1       4.693   4.556  17.395  0.00  0.00    +0.000 C 
ATOM     18  O   UNL     1       3.854   3.809  16.893  0.00  0.00    +0.000 OA
ATOM     19  N   UNL     1       4.454   5.210  18.581  0.00  0.00    +0.000 N 
ATOM     20  H   UNL     1       5.166   5.776  19.019  0.00  0.00    +0.000 HD
BRANCH  17  21
ATOM     21  C   UNL     1       6.067   4.810  16.756  0.00  0.00    +0.000 C 
BRANCH  21  22
ATOM     22  C   UNL     1       7.158   4.690  17.847  0.00  0.00    +0.000 C 
BRANCH  22  24
ATOM     23  C   UNL     1       7.392   7.163  17.434  0.00  0.00    +0.000 C 
ATOM     24  C   UNL     1       7.689   6.016  18.395  0.00  0.00    +0.000 C 
ENDBRANCH  22  24
ENDBRANCH  21  22
BRANCH  21  25
ATOM     25  C   UNL     1       6.296   3.903  15.527  0.00  0.00    +0.000 C 
BRANCH  25  26
ATOM     26  C   UNL     1       5.841   4.517  14.200  0.00  0.00    +0.000 C 
ATOM     27  C   UNL     1       6.215   3.635  13.017  0.00  0.00    +0.000 C 
ENDBRANCH  25  26
ENDBRANCH  21  25
ENDBRANCH  17  21
ENDBRANCH  16  19
ENDBRANCH   1  16
TORSDOF 8
ENDMDL
