MODEL 1
REMARK VINA RESULT:      -7.7      0.000      0.000
REMARK  Name = 
REMARK  5 active torsions:
REMARK  status: ('A' for Active; 'I' for Inactive)
REMARK    1  A    between atoms: C_1  and  C_2
REMARK    2  A    between atoms: C_3  and  C_4
REMARK    3  A    between atoms: N_9  and  C_10
REMARK    4  A    between atoms: C_10  and  C_11
REMARK    5  A    between atoms: C_10  and  C_17
REMARK                            x       y       z     vdW  Elec       q    Type
REMARK                         _______ _______ _______ _____ _____    ______ ____
ROOT
ATOM      1  C   UNL     1       1.677  10.150  18.322  0.00  0.00    +0.000 C 
ATOM      2  O   UNL     1       2.181  10.979  17.557  0.00  0.00    +0.000 OA
ATOM      3  N   UNL     1       2.090   8.813  18.255  0.00  0.00    +0.000 N 
ATOM      4  C   UNL     1       3.138   8.447  17.295  0.00  0.00    +0.000 C 
ATOM      5  C   UNL     1       4.265   7.648  17.980  0.00  0.00    +0.000 C 
ATOM      6  N   UNL     1       3.813   6.439  18.723  0.00  0.00    +0.000 NA
ATOM      7  C   UNL     1       2.753   6.866  19.663  0.00  0.00    +0.000 C 
ATOM      8  C   UNL     1       1.601   7.693  19.063  0.00  0.00    +0.000 C 
ENDROOT
BRANCH   1  11
ATOM      9  C   UNL     1      -1.036  11.866  17.932  0.00  0.00    +0.000 C 
ATOM     10  C   UNL     1      -0.457  11.320  19.187  0.00  0.00    +0.000 A 
ATOM     11  C   UNL     1       0.715  10.578  19.331  0.00  0.00    +0.000 A 
ATOM     12  O   UNL     1       0.842  10.178  20.636  0.00  0.00    +0.000 OA
ATOM     13  C   UNL     1      -0.187  10.728  21.339  0.00  0.00    +0.000 A 
ATOM     14  C   UNL     1      -0.411  10.569  22.704  0.00  0.00    +0.000 A 
ATOM     15  C   UNL     1      -1.531  11.221  23.233  0.00  0.00    +0.000 A 
ATOM     16  C   UNL     1      -2.360  12.007  22.427  0.00  0.00    +0.000 A 
ATOM     17  C   UNL     1      -2.104  12.144  21.055  0.00  0.00    +0.000 A 
ATOM     18  C   UNL     1      -0.999  11.473  20.499  0.00  0.00    +0.000 A 
ENDBRANCH   1  11
BRANCH   6  19
ATOM     19  C   UNL     1       3.425   5.321  17.809  0.00  0.00    +0.000 C 
BRANCH  19  20
ATOM     20  C   UNL     1       4.653   4.816  17.032  0.00  0.00    +0.000 A 
ATOM     21  C   UNL     1       5.925   4.792  17.634  0.00  0.00    +0.000 A 
ATOM     22  C   UNL     1       7.061   4.461  16.897  0.00  0.00    +0.000 A 
ATOM     23  C   UNL     1       6.945   4.147  15.547  0.00  0.00    +0.000 A 
ATOM     24  C   UNL     1       5.691   4.140  14.938  0.00  0.00    +0.000 A 
ATOM     25  C   UNL     1       4.548   4.464  15.676  0.00  0.00    +0.000 A 
ENDBRANCH  19  20
BRANCH  19  26
ATOM     26  C   UNL     1       2.725   4.131  18.491  0.00  0.00    +0.000 A 
ATOM     27  C   UNL     1       3.323   3.522  19.610  0.00  0.00    +0.000 A 
ATOM     28  C   UNL     1       2.688   2.472  20.281  0.00  0.00    +0.000 A 
ATOM     29  C   UNL     1       1.448   2.013  19.846  0.00  0.00    +0.000 A 
ATOM     30  C   UNL     1       0.838   2.605  18.743  0.00  0.00    +0.000 A 
ATOM     31  C   UNL     1       1.465   3.662  18.079  0.00  0.00    +0.000 A 
ENDBRANCH  19  26
ENDBRANCH   6  19
TORSDOF 4
ENDMDL
MODEL 2
REMARK VINA RESULT:      -7.6      2.211      8.795
REMARK  Name = 
REMARK  5 active torsions:
REMARK  status: ('A' for Active; 'I' for Inactive)
REMARK    1  A    between atoms: C_1  and  C_2
REMARK    2  A    between atoms: C_3  and  C_4
REMARK    3  A    between atoms: N_9  and  C_10
REMARK    4  A    between atoms: C_10  and  C_11
REMARK    5  A    between atoms: C_10  and  C_17
REMARK                            x       y       z     vdW  Elec       q    Type
REMARK                         _______ _______ _______ _____ _____    ______ ____
ROOT
ATOM      1  C   UNL     1       2.185   8.177  18.525  0.00  0.00    +0.000 C 
ATOM      2  O   UNL     1       2.410   8.481  17.349  0.00  0.00    +0.000 OA
ATOM      3  N   UNL     1       1.563   9.107  19.368  0.00  0.00    +0.000 N 
ATOM      4  C   UNL     1       1.166  10.406  18.813  0.00  0.00    +0.000 C 
ATOM      5  C   UNL     1      -0.307  10.724  19.139  0.00  0.00    +0.000 C 
ATOM      6  N   UNL     1      -0.656  10.663  20.586  0.00  0.00    +0.000 NA
ATOM      7  C   UNL     1      -0.223   9.341  21.091  0.00  0.00    +0.000 C 
ATOM      8  C   UNL     1       1.230   8.935  20.785  0.00  0.00    +0.000 C 
ENDROOT
BRANCH   1  11
ATOM      9  C   UNL     1       4.661   6.264  17.705  0.00  0.00    +0.000 C 
ATOM     10  C   UNL     1       3.559   5.994  18.665  0.00  0.00    +0.000 A 
ATOM     11  C   UNL     1       2.502   6.838  19.006  0.00  0.00    +0.000 A 
ATOM     12  O   UNL     1       1.761   6.257  20.003  0.00  0.00    +0.000 OA
ATOM     13  C   UNL     1       2.282   5.021  20.239  0.00  0.00    +0.000 A 
ATOM     14  C   UNL     1       1.807   4.107  21.175  0.00  0.00    +0.000 A 
ATOM     15  C   UNL     1       2.489   2.887  21.260  0.00  0.00    +0.000 A 
ATOM     16  C   UNL     1       3.575   2.605  20.426  0.00  0.00    +0.000 A 
ATOM     17  C   UNL     1       4.027   3.550  19.494  0.00  0.00    +0.000 A 
ATOM     18  C   UNL     1       3.373   4.794  19.414  0.00  0.00    +0.000 A 
ENDBRANCH   1  11
BRANCH   6  19
ATOM     19  C   UNL     1      -0.118  11.831  21.350  0.00  0.00    +0.000 C 
BRANCH  19  20
ATOM     20  C   UNL     1       0.366  12.924  20.381  0.00  0.00    +0.000 A 
ATOM     21  C   UNL     1       1.724  13.292  20.334  0.00  0.00    +0.000 A 
ATOM     22  C   UNL     1       2.148  14.368  19.556  0.00  0.00    +0.000 A 
ATOM     23  C   UNL     1       1.223  15.093  18.811  0.00  0.00    +0.000 A 
ATOM     24  C   UNL     1      -0.122  14.728  18.824  0.00  0.00    +0.000 A 
ATOM     25  C   UNL     1      -0.550  13.645  19.598  0.00  0.00    +0.000 A 
ENDBRANCH  19  20
BRANCH  19  26
ATOM     26  C   UNL     1      -1.089  12.447  22.373  0.00  0.00    +0.000 A 
ATOM     27  C   UNL     1      -0.758  13.663  23.001  0.00  0.00    +0.000 A 
ATOM     28  C   UNL     1      -1.641  14.272  23.897  0.00  0.00    +0.000 A 
ATOM     29  C   UNL     1      -2.868  13.679  24.182  0.00  0.00    +0.000 A 
ATOM     30  C   UNL     1      -3.217  12.478  23.568  0.00  0.00    +0.000 A 
ATOM     31  C   UNL     1      -2.341  11.874  22.664  0.00  0.00    +0.000 A 
ENDBRANCH  19  26
ENDBRANCH   6  19
TORSDOF 4
ENDMDL
MODEL 3
REMARK VINA RESULT:      -7.4      2.000      3.937
REMARK  Name = 
REMARK  5 active torsions:
REMARK  status: ('A' for Active; 'I' for Inactive)
REMARK    1  A    between atoms: C_1  and  C_2
REMARK    2  A    between atoms: C_3  and  C_4
REMARK    3  A    between atoms: N_9  and  C_10
REMARK    4  A    between atoms: C_10  and  C_11
REMARK    5  A    between atoms: C_10  and  C_17
REMARK                            x       y       z     vdW  Elec       q    Type
REMARK                         _______ _______ _______ _____ _____    ______ ____
ROOT
ATOM      1  C   UNL     1       0.792   8.859  20.824  0.00  0.00    +0.000 C 
ATOM      2  O   UNL     1       0.070   8.436  21.733  0.00  0.00    +0.000 OA
ATOM      3  N   UNL     1       1.651   7.973  20.161  0.00  0.00    +0.000 N 
ATOM      4  C   UNL     1       1.640   6.558  20.548  0.00  0.00    +0.000 C 
ATOM      5  C   UNL     1       1.479   5.645  19.316  0.00  0.00    +0.000 C 
ATOM      6  N   UNL     1       2.481   5.866  18.237  0.00  0.00    +0.000 NA
ATOM      7  C   UNL     1       2.455   7.306  17.897  0.00  0.00    +0.000 C 
ATOM      8  C   UNL     1       2.585   8.289  19.076  0.00  0.00    +0.000 C 
ENDROOT
BRANCH   1  11
ATOM      9  C   UNL     1      -0.793  10.102  18.294  0.00  0.00    +0.000 C 
ATOM     10  C   UNL     1       0.022  10.809  19.315  0.00  0.00    +0.000 A 
ATOM     11  C   UNL     1       0.695  10.251  20.402  0.00  0.00    +0.000 A 
ATOM     12  O   UNL     1       1.244  11.253  21.159  0.00  0.00    +0.000 OA
ATOM     13  C   UNL     1       1.002  12.433  20.523  0.00  0.00    +0.000 A 
ATOM     14  C   UNL     1       1.405  13.689  20.965  0.00  0.00    +0.000 A 
ATOM     15  C   UNL     1       1.053  14.778  20.159  0.00  0.00    +0.000 A 
ATOM     16  C   UNL     1       0.353  14.598  18.962  0.00  0.00    +0.000 A 
ATOM     17  C   UNL     1      -0.037  13.316  18.547  0.00  0.00    +0.000 A 
ATOM     18  C   UNL     1       0.282  12.212  19.359  0.00  0.00    +0.000 A 
ENDBRANCH   1  11
BRANCH   6  19
ATOM     19  C   UNL     1       3.831   5.332  18.595  0.00  0.00    +0.000 C 
BRANCH  19  20
ATOM     20  C   UNL     1       3.757   3.813  18.834  0.00  0.00    +0.000 A 
ATOM     21  C   UNL     1       4.436   3.221  19.915  0.00  0.00    +0.000 A 
ATOM     22  C   UNL     1       4.481   1.836  20.061  0.00  0.00    +0.000 A 
ATOM     23  C   UNL     1       3.847   1.019  19.130  0.00  0.00    +0.000 A 
ATOM     24  C   UNL     1       3.146   1.587  18.067  0.00  0.00    +0.000 A 
ATOM     25  C   UNL     1       3.093   2.976  17.921  0.00  0.00    +0.000 A 
ENDBRANCH  19  20
BRANCH  19  26
ATOM     26  C   UNL     1       4.946   5.638  17.580  0.00  0.00    +0.000 A 
ATOM     27  C   UNL     1       6.165   6.181  18.030  0.00  0.00    +0.000 A 
ATOM     28  C   UNL     1       7.215   6.423  17.140  0.00  0.00    +0.000 A 
ATOM     29  C   UNL     1       7.067   6.128  15.787  0.00  0.00    +0.000 A 
ATOM     30  C   UNL     1       5.871   5.587  15.323  0.00  0.00    +0.000 A 
ATOM     31  C   UNL     1       4.826   5.333  16.213  0.00  0.00    +0.000 A 
ENDBRANCH  19  26
ENDBRANCH   6  19
TORSDOF 4
ENDMDL
MODEL 4
REMARK VINA RESULT:      -7.4      5.673      9.090
REMARK  Name = 
REMARK  5 active torsions:
REMARK  status: ('A' for Active; 'I' for Inactive)
REMARK    1  A    between atoms: C_1  and  C_2
REMARK    2  A    between atoms: C_3  and  C_4
REMARK    3  A    between atoms: N_9  and  C_10
REMARK    4  A    between atoms: C_10  and  C_11
REMARK    5  A    between atoms: C_10  and  C_17
REMARK                            x       y       z     vdW  Elec       q    Type
REMARK                         _______ _______ _______ _____ _____    ______ ____
ROOT
ATOM      1  C   UNL     1       2.596  15.652  18.691  0.00  0.00    +0.000 C 
ATOM      2  O   UNL     1       2.170  16.678  18.151  0.00  0.00    +0.000 OA
ATOM      3  N   UNL     1       1.691  14.664  19.099  0.00  0.00    +0.000 N 
ATOM      4  C   UNL     1       0.261  14.866  18.838  0.00  0.00    +0.000 C 
ATOM      5  C   UNL     1      -0.357  13.639  18.139  0.00  0.00    +0.000 C 
ATOM      6  N   UNL     1      -0.149  12.344  18.846  0.00  0.00    +0.000 NA
ATOM      7  C   UNL     1       1.303  12.201  19.091  0.00  0.00    +0.000 C 
ATOM      8  C   UNL     1       2.004  13.395  19.764  0.00  0.00    +0.000 C 
ENDROOT
BRANCH   1  11
ATOM      9  C   UNL     1       4.513  16.434  21.175  0.00  0.00    +0.000 C 
ATOM     10  C   UNL     1       4.879  15.778  19.893  0.00  0.00    +0.000 A 
ATOM     11  C   UNL     1       4.032  15.446  18.836  0.00  0.00    +0.000 A 
ATOM     12  O   UNL     1       4.742  14.762  17.883  0.00  0.00    +0.000 OA
ATOM     13  C   UNL     1       6.044  14.729  18.281  0.00  0.00    +0.000 A 
ATOM     14  C   UNL     1       7.090  14.133  17.583  0.00  0.00    +0.000 A 
ATOM     15  C   UNL     1       8.359  14.212  18.170  0.00  0.00    +0.000 A 
ATOM     16  C   UNL     1       8.556  14.880  19.383  0.00  0.00    +0.000 A 
ATOM     17  C   UNL     1       7.478  15.469  20.059  0.00  0.00    +0.000 A 
ATOM     18  C   UNL     1       6.190  15.375  19.500  0.00  0.00    +0.000 A 
ENDBRANCH   1  11
BRANCH   6  19
ATOM     19  C   UNL     1      -1.005  12.219  20.066  0.00  0.00    +0.000 C 
BRANCH  19  20
ATOM     20  C   UNL     1      -2.490  12.141  19.671  0.00  0.00    +0.000 A 
ATOM     21  C   UNL     1      -2.902  11.359  18.576  0.00  0.00    +0.000 A 
ATOM     22  C   UNL     1      -4.223  11.386  18.133  0.00  0.00    +0.000 A 
ATOM     23  C   UNL     1      -5.155  12.195  18.776  0.00  0.00    +0.000 A 
ATOM     24  C   UNL     1      -4.772  12.957  19.879  0.00  0.00    +0.000 A 
ATOM     25  C   UNL     1      -3.449  12.927  20.331  0.00  0.00    +0.000 A 
ENDBRANCH  19  20
BRANCH  19  26
ATOM     26  C   UNL     1      -0.658  11.038  20.991  0.00  0.00    +0.000 A 
ATOM     27  C   UNL     1      -0.806  11.179  22.384  0.00  0.00    +0.000 A 
ATOM     28  C   UNL     1      -0.547  10.109  23.245  0.00  0.00    +0.000 A 
ATOM     29  C   UNL     1      -0.136   8.882  22.732  0.00  0.00    +0.000 A 
ATOM     30  C   UNL     1       0.013   8.721  21.357  0.00  0.00    +0.000 A 
ATOM     31  C   UNL     1      -0.257   9.785  20.494  0.00  0.00    +0.000 A 
ENDBRANCH  19  26
ENDBRANCH   6  19
TORSDOF 4
ENDMDL
MODEL 5
REMARK VINA RESULT:      -7.2      2.627      9.006
REMARK  Name = 
REMARK  5 active torsions:
REMARK  status: ('A' for Active; 'I' for Inactive)
REMARK    1  A    between atoms: C_1  and  C_2
REMARK    2  A    between atoms: C_3  and  C_4
REMARK    3  A    between atoms: N_9  and  C_10
REMARK    4  A    between atoms: C_10  and  C_11
REMARK    5  A    between atoms: C_10  and  C_17
REMARK                            x       y       z     vdW  Elec       q    Type
REMARK                         _______ _______ _______ _____ _____    ______ ____
ROOT
ATOM      1  C   UNL     1       1.536   8.173  21.072  0.00  0.00    +0.000 C 
ATOM      2  O   UNL     1       2.168   8.360  22.117  0.00  0.00    +0.000 OA
ATOM      3  N   UNL     1       0.766   9.215  20.540  0.00  0.00    +0.000 N 
ATOM      4  C   UNL     1       0.763  10.512  21.226  0.00  0.00    +0.000 C 
ATOM      5  C   UNL     1       1.066  11.662  20.245  0.00  0.00    +0.000 C 
ATOM      6  N   UNL     1       0.176  11.719  19.052  0.00  0.00    +0.000 NA
ATOM      7  C   UNL     1       0.209  10.386  18.410  0.00  0.00    +0.000 C 
ATOM      8  C   UNL     1      -0.059   9.179  19.328  0.00  0.00    +0.000 C 
ENDROOT
BRANCH   1  11
ATOM      9  C   UNL     1       2.981   7.546  18.248  0.00  0.00    +0.000 C 
ATOM     10  C   UNL     1       2.263   6.608  19.150  0.00  0.00    +0.000 A 
ATOM     11  C   UNL     1       1.649   6.902  20.367  0.00  0.00    +0.000 A 
ATOM     12  O   UNL     1       1.188   5.742  20.934  0.00  0.00    +0.000 OA
ATOM     13  C   UNL     1       1.424   4.729  20.055  0.00  0.00    +0.000 A 
ATOM     14  C   UNL     1       1.095   3.391  20.253  0.00  0.00    +0.000 A 
ATOM     15  C   UNL     1       1.426   2.507  19.220  0.00  0.00    +0.000 A 
ATOM     16  C   UNL     1       2.035   2.959  18.045  0.00  0.00    +0.000 A 
ATOM     17  C   UNL     1       2.352   4.315  17.880  0.00  0.00    +0.000 A 
ATOM     18  C   UNL     1       2.053   5.215  18.919  0.00  0.00    +0.000 A 
ENDBRANCH   1  11
BRANCH   6  19
ATOM     19  C   UNL     1      -1.193  12.217  19.388  0.00  0.00    +0.000 C 
BRANCH  19  20
ATOM     20  C   UNL     1      -1.180  13.748  19.542  0.00  0.00    +0.000 A 
ATOM     21  C   UNL     1      -0.414  14.552  18.677  0.00  0.00    +0.000 A 
ATOM     22  C   UNL     1      -0.294  15.924  18.892  0.00  0.00    +0.000 A 
ATOM     23  C   UNL     1      -0.938  16.516  19.973  0.00  0.00    +0.000 A 
ATOM     24  C   UNL     1      -1.724  15.742  20.826  0.00  0.00    +0.000 A 
ATOM     25  C   UNL     1      -1.852  14.367  20.610  0.00  0.00    +0.000 A 
ENDBRANCH  19  20
BRANCH  19  26
ATOM     26  C   UNL     1      -2.299  11.811  18.397  0.00  0.00    +0.000 A 
ATOM     27  C   UNL     1      -3.641  11.792  18.822  0.00  0.00    +0.000 A 
ATOM     28  C   UNL     1      -4.672  11.477  17.933  0.00  0.00    +0.000 A 
ATOM     29  C   UNL     1      -4.381  11.175  16.605  0.00  0.00    +0.000 A 
ATOM     30  C   UNL     1      -3.061  11.193  16.163  0.00  0.00    +0.000 A 
ATOM     31  C   UNL     1      -2.031  11.519  17.048  0.00  0.00    +0.000 A 
ENDBRANCH  19  26
ENDBRANCH   6  19
TORSDOF 4
ENDMDL
MODEL 6
REMARK VINA RESULT:      -7.2      5.542      9.997
REMARK  Name = 
REMARK  5 active torsions:
REMARK  status: ('A' for Active; 'I' for Inactive)
REMARK    1  A    between atoms: C_1  and  C_2
REMARK    2  A    between atoms: C_3  and  C_4
REMARK    3  A    between atoms: N_9  and  C_10
REMARK    4  A    between atoms: C_10  and  C_11
REMARK    5  A    between atoms: C_10  and  C_17
REMARK                            x       y       z     vdW  Elec       q    Type
REMARK                         _______ _______ _______ _____ _____    ______ ____
ROOT
ATOM      1  C   UNL     1       0.207  12.224  20.405  0.00  0.00    +0.000 C 
ATOM      2  O   UNL     1       0.313  11.696  21.516  0.00  0.00    +0.000 OA
ATOM      3  N   UNL     1       1.012  13.326  20.088  0.00  0.00    +0.000 N 
ATOM      4  C   UNL     1       1.985  13.798  21.081  0.00  0.00    +0.000 C 
ATOM      5  C   UNL     1       3.388  13.943  20.460  0.00  0.00    +0.000 C 
ATOM      6  N   UNL     1       3.450  14.802  19.244  0.00  0.00    +0.000 NA
ATOM      7  C   UNL     1       2.444  14.288  18.288  0.00  0.00    +0.000 C 
ATOM      8  C   UNL     1       1.019  14.089  18.836  0.00  0.00    +0.000 C 
ENDROOT
BRANCH   1  11
ATOM      9  C   UNL     1       0.740   9.807  18.324  0.00  0.00    +0.000 C 
ATOM     10  C   UNL     1      -0.490  10.622  18.502  0.00  0.00    +0.000 A 
ATOM     11  C   UNL     1      -0.698  11.659  19.411  0.00  0.00    +0.000 A 
ATOM     12  O   UNL     1      -1.999  12.083  19.326  0.00  0.00    +0.000 OA
ATOM     13  C   UNL     1      -2.595  11.389  18.318  0.00  0.00    +0.000 A 
ATOM     14  C   UNL     1      -3.917  11.533  17.906  0.00  0.00    +0.000 A 
ATOM     15  C   UNL     1      -4.334  10.719  16.846  0.00  0.00    +0.000 A 
ATOM     16  C   UNL     1      -3.452   9.828  16.226  0.00  0.00    +0.000 A 
ATOM     17  C   UNL     1      -2.127   9.709  16.668  0.00  0.00    +0.000 A 
ATOM     18  C   UNL     1      -1.697  10.498  17.751  0.00  0.00    +0.000 A 
ENDBRANCH   1  11
BRANCH   6  19
ATOM     19  C   UNL     1       3.320  16.256  19.567  0.00  0.00    +0.000 C 
BRANCH  19  20
ATOM     20  C   UNL     1       4.709  16.914  19.630  0.00  0.00    +0.000 A 
ATOM     21  C   UNL     1       5.770  16.431  18.842  0.00  0.00    +0.000 A 
ATOM     22  C   UNL     1       7.061  16.936  18.989  0.00  0.00    +0.000 A 
ATOM     23  C   UNL     1       7.313  17.933  19.926  0.00  0.00    +0.000 A 
ATOM     24  C   UNL     1       6.271  18.444  20.698  0.00  0.00    +0.000 A 
ATOM     25  C   UNL     1       4.974  17.945  20.548  0.00  0.00    +0.000 A 
ENDBRANCH  19  20
BRANCH  19  26
ATOM     26  C   UNL     1       2.415  17.059  18.617  0.00  0.00    +0.000 A 
ATOM     27  C   UNL     1       1.294  17.738  19.133  0.00  0.00    +0.000 A 
ATOM     28  C   UNL     1       0.482  18.517  18.303  0.00  0.00    +0.000 A 
ATOM     29  C   UNL     1       0.773  18.631  16.946  0.00  0.00    +0.000 A 
ATOM     30  C   UNL     1       1.879  17.971  16.417  0.00  0.00    +0.000 A 
ATOM     31  C   UNL     1       2.698  17.202  17.247  0.00  0.00    +0.000 A 
ENDBRANCH  19  26
ENDBRANCH   6  19
TORSDOF 4
ENDMDL
MODEL 7
REMARK VINA RESULT:      -7.2      5.780      8.603
REMARK  Name = 
REMARK  5 active torsions:
REMARK  status: ('A' for Active; 'I' for Inactive)
REMARK    1  A    between atoms: C_1  and  C_2
REMARK    2  A    between atoms: C_3  and  C_4
REMARK    3  A    between atoms: N_9  and  C_10
REMARK    4  A    between atoms: C_10  and  C_11
REMARK    5  A    between atoms: C_10  and  C_17
REMARK                            x       y       z     vdW  Elec       q    Type
REMARK                         _______ _______ _______ _____ _____    ______ ____
ROOT
ATOM      1  C   UNL     1       2.666  15.626  19.638  0.00  0.00    +0.000 C 
ATOM      2  O   UNL     1       2.345  16.690  19.098  0.00  0.00    +0.000 OA
ATOM      3  N   UNL     1       1.735  14.583  19.707  0.00  0.00    +0.000 N 
ATOM      4  C   UNL     1       0.412  14.777  19.102  0.00  0.00    +0.000 C 
ATOM      5  C   UNL     1       0.054  13.610  18.161  0.00  0.00    +0.000 C 
ATOM      6  N   UNL     1       0.133  12.258  18.780  0.00  0.00    +0.000 NA
ATOM      7  C   UNL     1       1.479  12.124  19.382  0.00  0.00    +0.000 C 
ATOM      8  C   UNL     1       1.925  13.263  20.317  0.00  0.00    +0.000 C 
ENDROOT
BRANCH   1  11
ATOM      9  C   UNL     1       5.329  14.818  17.991  0.00  0.00    +0.000 C 
ATOM     10  C   UNL     1       5.185  15.088  19.445  0.00  0.00    +0.000 A 
ATOM     11  C   UNL     1       4.025  15.440  20.134  0.00  0.00    +0.000 A 
ATOM     12  O   UNL     1       4.336  15.701  21.443  0.00  0.00    +0.000 OA
ATOM     13  C   UNL     1       5.661  15.437  21.615  0.00  0.00    +0.000 A 
ATOM     14  C   UNL     1       6.365  15.569  22.808  0.00  0.00    +0.000 A 
ATOM     15  C   UNL     1       7.727  15.245  22.769  0.00  0.00    +0.000 A 
ATOM     16  C   UNL     1       8.331  14.792  21.592  0.00  0.00    +0.000 A 
ATOM     17  C   UNL     1       7.589  14.672  20.407  0.00  0.00    +0.000 A 
ATOM     18  C   UNL     1       6.226  15.020  20.419  0.00  0.00    +0.000 A 
ENDBRANCH   1  11
BRANCH   6  19
ATOM     19  C   UNL     1      -1.000  11.995  19.720  0.00  0.00    +0.000 C 
BRANCH  19  20
ATOM     20  C   UNL     1      -2.250  11.555  18.937  0.00  0.00    +0.000 A 
ATOM     21  C   UNL     1      -2.140  10.684  17.837  0.00  0.00    +0.000 A 
ATOM     22  C   UNL     1      -3.248  10.386  17.045  0.00  0.00    +0.000 A 
ATOM     23  C   UNL     1      -4.484  10.952  17.339  0.00  0.00    +0.000 A 
ATOM     24  C   UNL     1      -4.620  11.796  18.440  0.00  0.00    +0.000 A 
ATOM     25  C   UNL     1      -3.513  12.092  19.241  0.00  0.00    +0.000 A 
ENDBRANCH  19  20
BRANCH  19  26
ATOM     26  C   UNL     1      -0.706  10.972  20.831  0.00  0.00    +0.000 A 
ATOM     27  C   UNL     1      -0.952  11.315  22.174  0.00  0.00    +0.000 A 
ATOM     28  C   UNL     1      -0.742  10.391  23.202  0.00  0.00    +0.000 A 
ATOM     29  C   UNL     1      -0.283   9.110  22.907  0.00  0.00    +0.000 A 
ATOM     30  C   UNL     1      -0.037   8.750  21.585  0.00  0.00    +0.000 A 
ATOM     31  C   UNL     1      -0.258   9.668  20.556  0.00  0.00    +0.000 A 
ENDBRANCH  19  26
ENDBRANCH   6  19
TORSDOF 4
ENDMDL
MODEL 8
REMARK VINA RESULT:      -7.2      2.218      4.058
REMARK  Name = 
REMARK  5 active torsions:
REMARK  status: ('A' for Active; 'I' for Inactive)
REMARK    1  A    between atoms: C_1  and  C_2
REMARK    2  A    between atoms: C_3  and  C_4
REMARK    3  A    between atoms: N_9  and  C_10
REMARK    4  A    between atoms: C_10  and  C_11
REMARK    5  A    between atoms: C_10  and  C_17
REMARK                            x       y       z     vdW  Elec       q    Type
REMARK                         _______ _______ _______ _____ _____    ______ ____
ROOT
ATOM      1  C   UNL     1       0.598   8.799  20.901  0.00  0.00    +0.000 C 
ATOM      2  O   UNL     1      -0.216   8.376  21.728  0.00  0.00    +0.000 OA
ATOM      3  N   UNL     1       1.536   7.917  20.348  0.00  0.00    +0.000 N 
ATOM      4  C   UNL     1       1.496   6.505  20.746  0.00  0.00    +0.000 C 
ATOM      5  C   UNL     1       1.484   5.579  19.513  0.00  0.00    +0.000 C 
ATOM      6  N   UNL     1       2.598   5.802  18.550  0.00  0.00    +0.000 NA
ATOM      7  C   UNL     1       2.595   7.239  18.196  0.00  0.00    +0.000 C 
ATOM      8  C   UNL     1       2.582   8.233  19.371  0.00  0.00    +0.000 C 
ENDROOT
BRANCH   1  11
ATOM      9  C   UNL     1      -0.953  10.038  18.349  0.00  0.00    +0.000 C 
ATOM     10  C   UNL     1      -0.122  10.742  19.360  0.00  0.00    +0.000 A 
ATOM     11  C   UNL     1       0.535  10.186  20.457  0.00  0.00    +0.000 A 
ATOM     12  O   UNL     1       1.106  11.187  21.199  0.00  0.00    +0.000 OA
ATOM     13  C   UNL     1       0.893  12.361  20.543  0.00  0.00    +0.000 A 
ATOM     14  C   UNL     1       1.325  13.615  20.967  0.00  0.00    +0.000 A 
ATOM     15  C   UNL     1       0.999  14.699  20.143  0.00  0.00    +0.000 A 
ATOM     16  C   UNL     1       0.297  14.516  18.947  0.00  0.00    +0.000 A 
ATOM     17  C   UNL     1      -0.122  13.237  18.552  0.00  0.00    +0.000 A 
ATOM     18  C   UNL     1       0.170  12.139  19.382  0.00  0.00    +0.000 A 
ENDBRANCH   1  11
BRANCH   6  19
ATOM     19  C   UNL     1       3.905   5.287  19.063  0.00  0.00    +0.000 C 
BRANCH  19  20
ATOM     20  C   UNL     1       3.956   3.754  18.946  0.00  0.00    +0.000 A 
ATOM     21  C   UNL     1       3.481   3.105  17.791  0.00  0.00    +0.000 A 
ATOM     22  C   UNL     1       3.403   1.714  17.731  0.00  0.00    +0.000 A 
ATOM     23  C   UNL     1       3.800   0.949  18.823  0.00  0.00    +0.000 A 
ATOM     24  C   UNL     1       4.299   1.572  19.966  0.00  0.00    +0.000 A 
ATOM     25  C   UNL     1       4.385   2.966  20.027  0.00  0.00    +0.000 A 
ENDBRANCH  19  20
BRANCH  19  26
ATOM     26  C   UNL     1       5.154   5.894  18.399  0.00  0.00    +0.000 A 
ATOM     27  C   UNL     1       6.397   5.817  19.056  0.00  0.00    +0.000 A 
ATOM     28  C   UNL     1       7.557   6.314  18.457  0.00  0.00    +0.000 A 
ATOM     29  C   UNL     1       7.498   6.896  17.193  0.00  0.00    +0.000 A 
ATOM     30  C   UNL     1       6.279   6.978  16.525  0.00  0.00    +0.000 A 
ATOM     31  C   UNL     1       5.120   6.471  17.117  0.00  0.00    +0.000 A 
ENDBRANCH  19  26
ENDBRANCH   6  19
TORSDOF 4
ENDMDL
MODEL 9
REMARK VINA RESULT:      -7.2      5.863      8.340
REMARK  Name = 
REMARK  5 active torsions:
REMARK  status: ('A' for Active; 'I' for Inactive)
REMARK    1  A    between atoms: C_1  and  C_2
REMARK    2  A    between atoms: C_3  and  C_4
REMARK    3  A    between atoms: N_9  and  C_10
REMARK    4  A    between atoms: C_10  and  C_11
REMARK    5  A    between atoms: C_10  and  C_17
REMARK                            x       y       z     vdW  Elec       q    Type
REMARK                         _______ _______ _______ _____ _____    ______ ____
ROOT
ATOM      1  C   UNL     1       2.448  15.320  21.336  0.00  0.00    +0.000 C 
ATOM      2  O   UNL     1       2.146  16.516  21.273  0.00  0.00    +0.000 OA
ATOM      3  N   UNL     1       1.533  14.357  20.890  0.00  0.00    +0.000 N 
ATOM      4  C   UNL     1       0.254  14.806  20.329  0.00  0.00    +0.000 C 
ATOM      5  C   UNL     1      -0.014  14.149  18.959  0.00  0.00    +0.000 C 
ATOM      6  N   UNL     1       0.047  12.661  18.955  0.00  0.00    +0.000 NA
ATOM      7  C   UNL     1       1.348  12.269  19.541  0.00  0.00    +0.000 C 
ATOM      8  C   UNL     1       1.704  12.901  20.899  0.00  0.00    +0.000 C 
ENDROOT
BRANCH   1  11
ATOM      9  C   UNL     1       5.206  15.098  19.662  0.00  0.00    +0.000 C 
ATOM     10  C   UNL     1       4.970  14.817  21.102  0.00  0.00    +0.000 A 
ATOM     11  C   UNL     1       3.770  14.924  21.804  0.00  0.00    +0.000 A 
ATOM     12  O   UNL     1       3.998  14.675  23.133  0.00  0.00    +0.000 OA
ATOM     13  C   UNL     1       5.308  14.328  23.270  0.00  0.00    +0.000 A 
ATOM     14  C   UNL     1       5.935  13.989  24.466  0.00  0.00    +0.000 A 
ATOM     15  C   UNL     1       7.294  13.663  24.388  0.00  0.00    +0.000 A 
ATOM     16  C   UNL     1       7.970  13.658  23.164  0.00  0.00    +0.000 A 
ATOM     17  C   UNL     1       7.305  14.005  21.978  0.00  0.00    +0.000 A 
ATOM     18  C   UNL     1       5.946  14.364  22.040  0.00  0.00    +0.000 A 
ENDBRANCH   1  11
BRANCH   6  19
ATOM     19  C   UNL     1      -1.146  12.042  19.610  0.00  0.00    +0.000 C 
BRANCH  19  20
ATOM     20  C   UNL     1      -2.036  11.356  18.558  0.00  0.00    +0.000 A 
ATOM     21  C   UNL     1      -1.478  10.493  17.597  0.00  0.00    +0.000 A 
ATOM     22  C   UNL     1      -2.255   9.973  16.563  0.00  0.00    +0.000 A 
ATOM     23  C   UNL     1      -3.603  10.305  16.474  0.00  0.00    +0.000 A 
ATOM     24  C   UNL     1      -4.181  11.136  17.432  0.00  0.00    +0.000 A 
ATOM     25  C   UNL     1      -3.406  11.654  18.474  0.00  0.00    +0.000 A 
ENDBRANCH  19  20
BRANCH  19  26
ATOM     26  C   UNL     1      -0.829  11.046  20.741  0.00  0.00    +0.000 A 
ATOM     27  C   UNL     1      -1.119  11.393  22.074  0.00  0.00    +0.000 A 
ATOM     28  C   UNL     1      -0.888  10.492  23.117  0.00  0.00    +0.000 A 
ATOM     29  C   UNL     1      -0.365   9.230  22.848  0.00  0.00    +0.000 A 
ATOM     30  C   UNL     1      -0.076   8.865  21.535  0.00  0.00    +0.000 A 
ATOM     31  C   UNL     1      -0.316   9.761  20.491  0.00  0.00    +0.000 A 
ENDBRANCH  19  26
ENDBRANCH   6  19
TORSDOF 4
ENDMDL
