MODEL 1
REMARK VINA RESULT:      -8.7      0.000      0.000
REMARK  Name = 
REMARK  6 active torsions:
REMARK  status: ('A' for Active; 'I' for Inactive)
REMARK    1  A    between atoms: C_1  and  C_2
REMARK    2  A    between atoms: C_2  and  C_3
REMARK    3  A    between atoms: C_2  and  N_4
REMARK    4  A    between atoms: C_2  and  C_20
REMARK    5  A    between atoms: C_5  and  C_7
REMARK    6  A    between atoms: C_11  and  C_12
REMARK                            x       y       z     vdW  Elec       q    Type
REMARK                         _______ _______ _______ _____ _____    ______ ____
ROOT
ATOM      1  C   UNL     1       3.783   5.011  19.569  0.00  0.00    +0.000 A 
ATOM      2  C   UNL     1       3.104   3.871  19.993  0.00  0.00    +0.000 A 
ATOM      3  C   UNL     1       1.825   4.017  20.501  0.00  0.00    +0.000 A 
ATOM      4  C   UNL     1       1.276   5.293  20.581  0.00  0.00    +0.000 A 
ATOM      5  C   UNL     1       2.020   6.399  20.157  0.00  0.00    +0.000 A 
ATOM      6  N   UNL     1       3.269   6.269  19.633  0.00  0.00    +0.000 NA
ENDROOT
BRANCH   5   7
ATOM      7  C   UNL     1       1.497   7.776  20.271  0.00  0.00    +0.000 A 
ATOM      8  C   UNL     1       1.569   8.681  19.192  0.00  0.00    +0.000 A 
ATOM      9  C   UNL     1       1.093   9.990  19.299  0.00  0.00    +0.000 A 
ATOM     10  C   UNL     1       0.524  10.422  20.493  0.00  0.00    +0.000 A 
ATOM     11  C   UNL     1       0.429   9.541  21.567  0.00  0.00    +0.000 A 
ATOM     12 CL   UNL     1      -0.278  10.080  23.042  0.00  0.00    +0.000 Cl
ATOM     13  C   UNL     1       0.904   8.233  21.463  0.00  0.00    +0.000 A 
ENDBRANCH   5   7
BRANCH   1  15
ATOM     14  N   UNL     1       5.600   5.823  18.139  0.00  0.00    +0.000 N 
ATOM     15  C   UNL     1       5.165   4.851  19.016  0.00  0.00    +0.000 C 
ATOM     16  O   UNL     1       5.845   3.886  19.354  0.00  0.00    +0.000 OA
ATOM     17  H   UNL     1       4.974   6.602  17.939  0.00  0.00    +0.000 HD
BRANCH  14  19
ATOM     18  C   UNL     1       7.456   7.274  17.400  0.00  0.00    +0.000 C 
ATOM     19  C   UNL     1       6.933   5.827  17.503  0.00  0.00    +0.000 C 
ATOM     20  C   UNL     1       7.902   4.944  18.315  0.00  0.00    +0.000 C 
BRANCH  19  21
ATOM     21  C   UNL     1       6.782   5.237  16.087  0.00  0.00    +0.000 A 
ATOM     22  N   UNL     1       7.568   5.522  15.062  0.00  0.00    +0.000 NA
ATOM     23  C   UNL     1       7.136   4.845  13.934  0.00  0.00    +0.000 A 
ATOM     24  C   UNL     1       6.030   4.045  14.099  0.00  0.00    +0.000 A 
ATOM     25  S   UNL     1       5.504   4.119  15.721  0.00  0.00    +0.000 S 
ENDBRANCH  19  21
ENDBRANCH  14  19
ENDBRANCH   1  15
TORSDOF 4
ENDMDL
MODEL 2
REMARK VINA RESULT:      -8.3      2.067      3.421
REMARK  Name = 
REMARK  6 active torsions:
REMARK  status: ('A' for Active; 'I' for Inactive)
REMARK    1  A    between atoms: C_1  and  C_2
REMARK    2  A    between atoms: C_2  and  C_3
REMARK    3  A    between atoms: C_2  and  N_4
REMARK    4  A    between atoms: C_2  and  C_20
REMARK    5  A    between atoms: C_5  and  C_7
REMARK    6  A    between atoms: C_11  and  C_12
REMARK                            x       y       z     vdW  Elec       q    Type
REMARK                         _______ _______ _______ _____ _____    ______ ____
ROOT
ATOM      1  C   UNL     1       2.343   7.654  18.927  0.00  0.00    +0.000 A 
ATOM      2  C   UNL     1       2.467   8.331  17.716  0.00  0.00    +0.000 A 
ATOM      3  C   UNL     1       1.886   9.582  17.599  0.00  0.00    +0.000 A 
ATOM      4  C   UNL     1       1.195  10.106  18.686  0.00  0.00    +0.000 A 
ATOM      5  C   UNL     1       1.090   9.363  19.868  0.00  0.00    +0.000 A 
ATOM      6  N   UNL     1       1.675   8.143  20.006  0.00  0.00    +0.000 NA
ENDROOT
BRANCH   5   7
ATOM      7  C   UNL     1       0.321   9.857  21.029  0.00  0.00    +0.000 A 
ATOM      8  C   UNL     1       0.327   9.169  22.260  0.00  0.00    +0.000 A 
ATOM      9  C   UNL     1      -0.413   9.621  23.356  0.00  0.00    +0.000 A 
ATOM     10  C   UNL     1      -1.172  10.781  23.246  0.00  0.00    +0.000 A 
ATOM     11  C   UNL     1      -1.181  11.485  22.045  0.00  0.00    +0.000 A 
ATOM     12 CL   UNL     1      -2.121  12.922  21.914  0.00  0.00    +0.000 Cl
ATOM     13  C   UNL     1      -0.443  11.036  20.948  0.00  0.00    +0.000 A 
ENDBRANCH   5   7
BRANCH   1  15
ATOM     14  N   UNL     1       3.858   5.933  18.061  0.00  0.00    +0.000 N 
ATOM     15  C   UNL     1       2.975   6.302  19.054  0.00  0.00    +0.000 C 
ATOM     16  O   UNL     1       2.691   5.589  20.013  0.00  0.00    +0.000 OA
ATOM     17  H   UNL     1       4.052   6.603  17.318  0.00  0.00    +0.000 HD
BRANCH  14  19
ATOM     18  C   UNL     1       5.519   4.540  19.244  0.00  0.00    +0.000 C 
ATOM     19  C   UNL     1       4.573   4.641  18.029  0.00  0.00    +0.000 C 
ATOM     20  C   UNL     1       3.558   3.480  18.020  0.00  0.00    +0.000 C 
BRANCH  19  21
ATOM     21  C   UNL     1       5.404   4.593  16.732  0.00  0.00    +0.000 A 
ATOM     22  N   UNL     1       5.040   3.969  15.624  0.00  0.00    +0.000 NA
ATOM     23  C   UNL     1       6.027   4.098  14.662  0.00  0.00    +0.000 A 
ATOM     24  C   UNL     1       7.137   4.820  15.034  0.00  0.00    +0.000 A 
ATOM     25  S   UNL     1       6.951   5.377  16.636  0.00  0.00    +0.000 S 
ENDBRANCH  19  21
ENDBRANCH  14  19
ENDBRANCH   1  15
TORSDOF 4
ENDMDL
MODEL 3
REMARK VINA RESULT:      -8.3      1.039      1.429
REMARK  Name = 
REMARK  6 active torsions:
REMARK  status: ('A' for Active; 'I' for Inactive)
REMARK    1  A    between atoms: C_1  and  C_2
REMARK    2  A    between atoms: C_2  and  C_3
REMARK    3  A    between atoms: C_2  and  N_4
REMARK    4  A    between atoms: C_2  and  C_20
REMARK    5  A    between atoms: C_5  and  C_7
REMARK    6  A    between atoms: C_11  and  C_12
REMARK                            x       y       z     vdW  Elec       q    Type
REMARK                         _______ _______ _______ _____ _____    ______ ____
ROOT
ATOM      1  C   UNL     1       3.738   5.004  19.578  0.00  0.00    +0.000 A 
ATOM      2  C   UNL     1       3.022   3.856  19.907  0.00  0.00    +0.000 A 
ATOM      3  C   UNL     1       1.740   4.001  20.408  0.00  0.00    +0.000 A 
ATOM      4  C   UNL     1       1.225   5.282  20.576  0.00  0.00    +0.000 A 
ATOM      5  C   UNL     1       2.006   6.395  20.246  0.00  0.00    +0.000 A 
ATOM      6  N   UNL     1       3.258   6.268  19.730  0.00  0.00    +0.000 NA
ENDROOT
BRANCH   5   7
ATOM      7  C   UNL     1       1.520   7.774  20.457  0.00  0.00    +0.000 A 
ATOM      8  C   UNL     1       0.999   8.185  21.702  0.00  0.00    +0.000 A 
ATOM      9  C   UNL     1       0.520   9.483  21.903  0.00  0.00    +0.000 A 
ATOM     10  C   UNL     1       0.560  10.404  20.861  0.00  0.00    +0.000 A 
ATOM     11  C   UNL     1       1.085  10.023  19.629  0.00  0.00    +0.000 A 
ATOM     12 CL   UNL     1       1.134  11.167  18.342  0.00  0.00    +0.000 Cl
ATOM     13  C   UNL     1       1.563   8.727  19.424  0.00  0.00    +0.000 A 
ENDBRANCH   5   7
BRANCH   1  15
ATOM     14  N   UNL     1       5.571   5.832  18.178  0.00  0.00    +0.000 N 
ATOM     15  C   UNL     1       5.124   4.846  19.032  0.00  0.00    +0.000 C 
ATOM     16  O   UNL     1       5.794   3.869  19.356  0.00  0.00    +0.000 OA
ATOM     17  H   UNL     1       4.952   6.619  17.989  0.00  0.00    +0.000 HD
BRANCH  14  19
ATOM     18  C   UNL     1       7.423   7.289  17.442  0.00  0.00    +0.000 C 
ATOM     19  C   UNL     1       6.908   5.840  17.552  0.00  0.00    +0.000 C 
ATOM     20  C   UNL     1       7.877   4.968  18.378  0.00  0.00    +0.000 C 
BRANCH  19  21
ATOM     21  C   UNL     1       6.772   5.239  16.139  0.00  0.00    +0.000 A 
ATOM     22  N   UNL     1       7.542   5.547  15.109  0.00  0.00    +0.000 NA
ATOM     23  C   UNL     1       7.130   4.850  13.986  0.00  0.00    +0.000 A 
ATOM     24  C   UNL     1       6.053   4.013  14.160  0.00  0.00    +0.000 A 
ATOM     25  S   UNL     1       5.532   4.075  15.784  0.00  0.00    +0.000 S 
ENDBRANCH  19  21
ENDBRANCH  14  19
ENDBRANCH   1  15
TORSDOF 4
ENDMDL
MODEL 4
REMARK VINA RESULT:      -8.2      2.627      4.421
REMARK  Name = 
REMARK  6 active torsions:
REMARK  status: ('A' for Active; 'I' for Inactive)
REMARK    1  A    between atoms: C_1  and  C_2
REMARK    2  A    between atoms: C_2  and  C_3
REMARK    3  A    between atoms: C_2  and  N_4
REMARK    4  A    between atoms: C_2  and  C_20
REMARK    5  A    between atoms: C_5  and  C_7
REMARK    6  A    between atoms: C_11  and  C_12
REMARK                            x       y       z     vdW  Elec       q    Type
REMARK                         _______ _______ _______ _____ _____    ______ ____
ROOT
ATOM      1  C   UNL     1       2.259   7.800  18.950  0.00  0.00    +0.000 A 
ATOM      2  C   UNL     1       2.450   8.490  17.756  0.00  0.00    +0.000 A 
ATOM      3  C   UNL     1       1.913   9.760  17.637  0.00  0.00    +0.000 A 
ATOM      4  C   UNL     1       1.197  10.290  18.705  0.00  0.00    +0.000 A 
ATOM      5  C   UNL     1       1.025   9.534  19.871  0.00  0.00    +0.000 A 
ATOM      6  N   UNL     1       1.566   8.294  20.011  0.00  0.00    +0.000 NA
ENDROOT
BRANCH   5   7
ATOM      7  C   UNL     1       0.228  10.036  21.009  0.00  0.00    +0.000 A 
ATOM      8  C   UNL     1       0.188   9.344  22.238  0.00  0.00    +0.000 A 
ATOM      9  C   UNL     1      -0.579   9.803  23.313  0.00  0.00    +0.000 A 
ATOM     10  C   UNL     1      -1.318  10.974  23.184  0.00  0.00    +0.000 A 
ATOM     11  C   UNL     1      -1.282  11.681  21.985  0.00  0.00    +0.000 A 
ATOM     12 CL   UNL     1      -2.198  13.131  21.830  0.00  0.00    +0.000 Cl
ATOM     13  C   UNL     1      -0.517  11.225  20.909  0.00  0.00    +0.000 A 
ENDBRANCH   5   7
BRANCH   1  15
ATOM     14  N   UNL     1       3.508   5.927  17.979  0.00  0.00    +0.000 N 
ATOM     15  C   UNL     1       2.843   6.427  19.080  0.00  0.00    +0.000 C 
ATOM     16  O   UNL     1       2.713   5.811  20.135  0.00  0.00    +0.000 OA
ATOM     17  H   UNL     1       3.588   6.524  17.157  0.00  0.00    +0.000 HD
BRANCH  14  19
ATOM     18  C   UNL     1       4.616   4.295  16.495  0.00  0.00    +0.000 C 
ATOM     19  C   UNL     1       4.147   4.597  17.933  0.00  0.00    +0.000 C 
ATOM     20  C   UNL     1       5.328   4.549  18.924  0.00  0.00    +0.000 C 
BRANCH  19  21
ATOM     21  C   UNL     1       3.094   3.553  18.355  0.00  0.00    +0.000 A 
ATOM     22  N   UNL     1       1.916   3.389  17.775  0.00  0.00    +0.000 NA
ATOM     23  C   UNL     1       1.208   2.389  18.419  0.00  0.00    +0.000 A 
ATOM     24  C   UNL     1       1.843   1.790  19.481  0.00  0.00    +0.000 A 
ATOM     25  S   UNL     1       3.390   2.480  19.689  0.00  0.00    +0.000 S 
ENDBRANCH  19  21
ENDBRANCH  14  19
ENDBRANCH   1  15
TORSDOF 4
ENDMDL
MODEL 5
REMARK VINA RESULT:      -8.2      1.996      3.764
REMARK  Name = 
REMARK  6 active torsions:
REMARK  status: ('A' for Active; 'I' for Inactive)
REMARK    1  A    between atoms: C_1  and  C_2
REMARK    2  A    between atoms: C_2  and  C_3
REMARK    3  A    between atoms: C_2  and  N_4
REMARK    4  A    between atoms: C_2  and  C_20
REMARK    5  A    between atoms: C_5  and  C_7
REMARK    6  A    between atoms: C_11  and  C_12
REMARK                            x       y       z     vdW  Elec       q    Type
REMARK                         _______ _______ _______ _____ _____    ______ ____
ROOT
ATOM      1  C   UNL     1       2.122   7.662  19.087  0.00  0.00    +0.000 A 
ATOM      2  C   UNL     1       2.421   8.317  17.895  0.00  0.00    +0.000 A 
ATOM      3  C   UNL     1       1.994   9.624  17.736  0.00  0.00    +0.000 A 
ATOM      4  C   UNL     1       1.275  10.225  18.763  0.00  0.00    +0.000 A 
ATOM      5  C   UNL     1       0.989   9.503  19.928  0.00  0.00    +0.000 A 
ATOM      6  N   UNL     1       1.422   8.227  20.108  0.00  0.00    +0.000 NA
ENDROOT
BRANCH   5   7
ATOM      7  C   UNL     1       0.184  10.084  21.022  0.00  0.00    +0.000 A 
ATOM      8  C   UNL     1       0.043   9.424  22.260  0.00  0.00    +0.000 A 
ATOM      9  C   UNL     1      -0.732   9.958  23.293  0.00  0.00    +0.000 A 
ATOM     10  C   UNL     1      -1.381  11.175  23.111  0.00  0.00    +0.000 A 
ATOM     11  C   UNL     1      -1.244  11.852  21.901  0.00  0.00    +0.000 A 
ATOM     12 CL   UNL     1      -2.047  13.359  21.681  0.00  0.00    +0.000 Cl
ATOM     13  C   UNL     1      -0.470  11.320  20.868  0.00  0.00    +0.000 A 
ENDBRANCH   5   7
BRANCH   1  15
ATOM     14  N   UNL     1       3.390   5.733  18.264  0.00  0.00    +0.000 N 
ATOM     15  C   UNL     1       2.587   6.249  19.260  0.00  0.00    +0.000 C 
ATOM     16  O   UNL     1       2.246   5.617  20.256  0.00  0.00    +0.000 OA
ATOM     17  H   UNL     1       3.642   6.343  17.488  0.00  0.00    +0.000 HD
BRANCH  14  19
ATOM     18  C   UNL     1       4.045   3.854  19.726  0.00  0.00    +0.000 C 
ATOM     19  C   UNL     1       3.941   4.363  18.274  0.00  0.00    +0.000 C 
ATOM     20  C   UNL     1       3.051   3.435  17.423  0.00  0.00    +0.000 C 
BRANCH  19  21
ATOM     21  C   UNL     1       5.351   4.417  17.652  0.00  0.00    +0.000 A 
ATOM     22  N   UNL     1       6.479   4.471  18.340  0.00  0.00    +0.000 NA
ATOM     23  C   UNL     1       7.557   4.540  17.474  0.00  0.00    +0.000 A 
ATOM     24  C   UNL     1       7.253   4.534  16.133  0.00  0.00    +0.000 A 
ATOM     25  S   UNL     1       5.562   4.426  15.928  0.00  0.00    +0.000 S 
ENDBRANCH  19  21
ENDBRANCH  14  19
ENDBRANCH   1  15
TORSDOF 4
ENDMDL
MODEL 6
REMARK VINA RESULT:      -8.1      4.238      8.316
REMARK  Name = 
REMARK  6 active torsions:
REMARK  status: ('A' for Active; 'I' for Inactive)
REMARK    1  A    between atoms: C_1  and  C_2
REMARK    2  A    between atoms: C_2  and  C_3
REMARK    3  A    between atoms: C_2  and  N_4
REMARK    4  A    between atoms: C_2  and  C_20
REMARK    5  A    between atoms: C_5  and  C_7
REMARK    6  A    between atoms: C_11  and  C_12
REMARK                            x       y       z     vdW  Elec       q    Type
REMARK                         _______ _______ _______ _____ _____    ______ ____
ROOT
ATOM      1  C   UNL     1       2.436   7.309  18.983  0.00  0.00    +0.000 A 
ATOM      2  C   UNL     1       1.912   6.593  20.056  0.00  0.00    +0.000 A 
ATOM      3  C   UNL     1       2.490   5.378  20.382  0.00  0.00    +0.000 A 
ATOM      4  C   UNL     1       3.559   4.917  19.620  0.00  0.00    +0.000 A 
ATOM      5  C   UNL     1       4.023   5.677  18.540  0.00  0.00    +0.000 A 
ATOM      6  N   UNL     1       3.480   6.883  18.223  0.00  0.00    +0.000 NA
ENDROOT
BRANCH   5   7
ATOM      7  C   UNL     1       5.120   5.202  17.672  0.00  0.00    +0.000 A 
ATOM      8  C   UNL     1       6.432   5.049  18.165  0.00  0.00    +0.000 A 
ATOM      9  C   UNL     1       7.478   4.617  17.346  0.00  0.00    +0.000 A 
ATOM     10  C   UNL     1       7.231   4.320  16.009  0.00  0.00    +0.000 A 
ATOM     11  C   UNL     1       5.940   4.449  15.505  0.00  0.00    +0.000 A 
ATOM     12 CL   UNL     1       5.638   4.078  13.850  0.00  0.00    +0.000 Cl
ATOM     13  C   UNL     1       4.893   4.881  16.322  0.00  0.00    +0.000 A 
ENDBRANCH   5   7
BRANCH   1  15
ATOM     14  N   UNL     1       1.070   9.243  19.619  0.00  0.00    +0.000 N 
ATOM     15  C   UNL     1       1.812   8.625  18.634  0.00  0.00    +0.000 C 
ATOM     16  O   UNL     1       1.979   9.095  17.511  0.00  0.00    +0.000 OA
ATOM     17  H   UNL     1       1.011   8.789  20.529  0.00  0.00    +0.000 HD
BRANCH  14  19
ATOM     18  C   UNL     1       1.414  11.612  19.014  0.00  0.00    +0.000 C 
ATOM     19  C   UNL     1       0.391  10.543  19.450  0.00  0.00    +0.000 C 
ATOM     20  C   UNL     1      -0.746  10.409  18.416  0.00  0.00    +0.000 C 
BRANCH  19  21
ATOM     21  C   UNL     1      -0.213  10.941  20.811  0.00  0.00    +0.000 A 
ATOM     22  N   UNL     1      -0.307  10.140  21.860  0.00  0.00    +0.000 NA
ATOM     23  C   UNL     1      -0.925  10.803  22.906  0.00  0.00    +0.000 A 
ATOM     24  C   UNL     1      -1.297  12.103  22.658  0.00  0.00    +0.000 A 
ATOM     25  S   UNL     1      -0.854  12.535  21.068  0.00  0.00    +0.000 S 
ENDBRANCH  19  21
ENDBRANCH  14  19
ENDBRANCH   1  15
TORSDOF 4
ENDMDL
MODEL 7
REMARK VINA RESULT:      -7.9      1.157      1.216
REMARK  Name = 
REMARK  6 active torsions:
REMARK  status: ('A' for Active; 'I' for Inactive)
REMARK    1  A    between atoms: C_1  and  C_2
REMARK    2  A    between atoms: C_2  and  C_3
REMARK    3  A    between atoms: C_2  and  N_4
REMARK    4  A    between atoms: C_2  and  C_20
REMARK    5  A    between atoms: C_5  and  C_7
REMARK    6  A    between atoms: C_11  and  C_12
REMARK                            x       y       z     vdW  Elec       q    Type
REMARK                         _______ _______ _______ _____ _____    ______ ____
ROOT
ATOM      1  C   UNL     1       3.556   6.263  18.945  0.00  0.00    +0.000 A 
ATOM      2  C   UNL     1       3.255   5.035  19.526  0.00  0.00    +0.000 A 
ATOM      3  C   UNL     1       2.163   4.957  20.373  0.00  0.00    +0.000 A 
ATOM      4  C   UNL     1       1.421   6.107  20.619  0.00  0.00    +0.000 A 
ATOM      5  C   UNL     1       1.790   7.316  20.019  0.00  0.00    +0.000 A 
ATOM      6  N   UNL     1       2.846   7.403  19.166  0.00  0.00    +0.000 NA
ENDROOT
BRANCH   5   7
ATOM      7  C   UNL     1       1.063   8.572  20.293  0.00  0.00    +0.000 A 
ATOM      8  C   UNL     1       0.959   9.587  19.319  0.00  0.00    +0.000 A 
ATOM      9  C   UNL     1       0.288  10.786  19.578  0.00  0.00    +0.000 A 
ATOM     10  C   UNL     1      -0.303  10.992  20.820  0.00  0.00    +0.000 A 
ATOM     11  C   UNL     1      -0.226   9.997  21.791  0.00  0.00    +0.000 A 
ATOM     12 CL   UNL     1      -0.961  10.257  23.327  0.00  0.00    +0.000 Cl
ATOM     13  C   UNL     1       0.444   8.799  21.535  0.00  0.00    +0.000 A 
ENDBRANCH   5   7
BRANCH   1  15
ATOM     14  N   UNL     1       5.879   5.685  18.421  0.00  0.00    +0.000 N 
ATOM     15  C   UNL     1       4.735   6.346  18.025  0.00  0.00    +0.000 C 
ATOM     16  O   UNL     1       4.644   6.983  16.979  0.00  0.00    +0.000 OA
ATOM     17  H   UNL     1       5.851   5.159  19.293  0.00  0.00    +0.000 HD
BRANCH  14  19
ATOM     18  C   UNL     1       7.679   7.089  17.479  0.00  0.00    +0.000 C 
ATOM     19  C   UNL     1       7.130   5.656  17.637  0.00  0.00    +0.000 C 
ATOM     20  C   UNL     1       8.161   4.741  18.329  0.00  0.00    +0.000 C 
BRANCH  19  21
ATOM     21  C   UNL     1       6.802   5.080  16.245  0.00  0.00    +0.000 A 
ATOM     22  N   UNL     1       7.298   5.530  15.104  0.00  0.00    +0.000 NA
ATOM     23  C   UNL     1       6.774   4.810  14.045  0.00  0.00    +0.000 A 
ATOM     24  C   UNL     1       5.886   3.814  14.375  0.00  0.00    +0.000 A 
ATOM     25  S   UNL     1       5.697   3.751  16.070  0.00  0.00    +0.000 S 
ENDBRANCH  19  21
ENDBRANCH  14  19
ENDBRANCH   1  15
TORSDOF 4
ENDMDL
MODEL 8
REMARK VINA RESULT:      -7.8      1.812      3.057
REMARK  Name = 
REMARK  6 active torsions:
REMARK  status: ('A' for Active; 'I' for Inactive)
REMARK    1  A    between atoms: C_1  and  C_2
REMARK    2  A    between atoms: C_2  and  C_3
REMARK    3  A    between atoms: C_2  and  N_4
REMARK    4  A    between atoms: C_2  and  C_20
REMARK    5  A    between atoms: C_5  and  C_7
REMARK    6  A    between atoms: C_11  and  C_12
REMARK                            x       y       z     vdW  Elec       q    Type
REMARK                         _______ _______ _______ _____ _____    ______ ____
ROOT
ATOM      1  C   UNL     1       2.527   7.507  18.963  0.00  0.00    +0.000 A 
ATOM      2  C   UNL     1       2.423   8.009  17.669  0.00  0.00    +0.000 A 
ATOM      3  C   UNL     1       1.642   9.132  17.459  0.00  0.00    +0.000 A 
ATOM      4  C   UNL     1       0.983   9.704  18.543  0.00  0.00    +0.000 A 
ATOM      5  C   UNL     1       1.113   9.136  19.815  0.00  0.00    +0.000 A 
ATOM      6  N   UNL     1       1.896   8.047  20.040  0.00  0.00    +0.000 NA
ENDROOT
BRANCH   5   7
ATOM      7  C   UNL     1       0.391   9.679  20.984  0.00  0.00    +0.000 A 
ATOM      8  C   UNL     1       0.068   8.865  22.090  0.00  0.00    +0.000 A 
ATOM      9  C   UNL     1      -0.631   9.367  23.190  0.00  0.00    +0.000 A 
ATOM     10  C   UNL     1      -1.018  10.703  23.212  0.00  0.00    +0.000 A 
ATOM     11  C   UNL     1      -0.697  11.529  22.138  0.00  0.00    +0.000 A 
ATOM     12 CL   UNL     1      -1.176  13.182  22.170  0.00  0.00    +0.000 Cl
ATOM     13  C   UNL     1       0.001  11.029  21.037  0.00  0.00    +0.000 A 
ENDBRANCH   5   7
BRANCH   1  15
ATOM     14  N   UNL     1       4.419   6.092  18.311  0.00  0.00    +0.000 N 
ATOM     15  C   UNL     1       3.375   6.293  19.190  0.00  0.00    +0.000 C 
ATOM     16  O   UNL     1       3.118   5.541  20.126  0.00  0.00    +0.000 OA
ATOM     17  H   UNL     1       4.570   6.786  17.580  0.00  0.00    +0.000 HD
BRANCH  14  19
ATOM     18  C   UNL     1       6.476   5.269  19.401  0.00  0.00    +0.000 C 
ATOM     19  C   UNL     1       5.356   4.953  18.388  0.00  0.00    +0.000 C 
ATOM     20  C   UNL     1       4.593   3.673  18.785  0.00  0.00    +0.000 C 
BRANCH  19  21
ATOM     21  C   UNL     1       5.975   4.756  16.990  0.00  0.00    +0.000 A 
ATOM     22  N   UNL     1       7.159   5.212  16.616  0.00  0.00    +0.000 NA
ATOM     23  C   UNL     1       7.394   4.885  15.291  0.00  0.00    +0.000 A 
ATOM     24  C   UNL     1       6.396   4.181  14.660  0.00  0.00    +0.000 A 
ATOM     25  S   UNL     1       5.115   3.895  15.750  0.00  0.00    +0.000 S 
ENDBRANCH  19  21
ENDBRANCH  14  19
ENDBRANCH   1  15
TORSDOF 4
ENDMDL
MODEL 9
REMARK VINA RESULT:      -7.8      1.432      1.774
REMARK  Name = 
REMARK  6 active torsions:
REMARK  status: ('A' for Active; 'I' for Inactive)
REMARK    1  A    between atoms: C_1  and  C_2
REMARK    2  A    between atoms: C_2  and  C_3
REMARK    3  A    between atoms: C_2  and  N_4
REMARK    4  A    between atoms: C_2  and  C_20
REMARK    5  A    between atoms: C_5  and  C_7
REMARK    6  A    between atoms: C_11  and  C_12
REMARK                            x       y       z     vdW  Elec       q    Type
REMARK                         _______ _______ _______ _____ _____    ______ ____
ROOT
ATOM      1  C   UNL     1       3.444   6.174  18.942  0.00  0.00    +0.000 A 
ATOM      2  C   UNL     1       3.049   4.888  19.298  0.00  0.00    +0.000 A 
ATOM      3  C   UNL     1       1.947   4.743  20.123  0.00  0.00    +0.000 A 
ATOM      4  C   UNL     1       1.289   5.884  20.572  0.00  0.00    +0.000 A 
ATOM      5  C   UNL     1       1.752   7.149  20.192  0.00  0.00    +0.000 A 
ATOM      6  N   UNL     1       2.819   7.306  19.364  0.00  0.00    +0.000 NA
ENDROOT
BRANCH   5   7
ATOM      7  C   UNL     1       1.116   8.387  20.687  0.00  0.00    +0.000 A 
ATOM      8  C   UNL     1       0.639   8.489  22.011  0.00  0.00    +0.000 A 
ATOM      9  C   UNL     1       0.021   9.651  22.480  0.00  0.00    +0.000 A 
ATOM     10  C   UNL     1      -0.128  10.745  21.633  0.00  0.00    +0.000 A 
ATOM     11  C   UNL     1       0.349  10.672  20.327  0.00  0.00    +0.000 A 
ATOM     12 CL   UNL     1       0.165  12.029  19.283  0.00  0.00    +0.000 Cl
ATOM     13  C   UNL     1       0.968   9.512  19.855  0.00  0.00    +0.000 A 
ENDBRANCH   5   7
BRANCH   1  15
ATOM     14  N   UNL     1       5.786   5.670  18.422  0.00  0.00    +0.000 N 
ATOM     15  C   UNL     1       4.635   6.330  18.046  0.00  0.00    +0.000 C 
ATOM     16  O   UNL     1       4.545   7.022  17.035  0.00  0.00    +0.000 OA
ATOM     17  H   UNL     1       5.756   5.096  19.263  0.00  0.00    +0.000 HD
BRANCH  14  19
ATOM     18  C   UNL     1       7.523   7.169  17.509  0.00  0.00    +0.000 C 
ATOM     19  C   UNL     1       7.048   5.709  17.656  0.00  0.00    +0.000 C 
ATOM     20  C   UNL     1       8.115   4.847  18.362  0.00  0.00    +0.000 C 
BRANCH  19  21
ATOM     21  C   UNL     1       6.771   5.120  16.259  0.00  0.00    +0.000 A 
ATOM     22  N   UNL     1       7.309   5.559  15.133  0.00  0.00    +0.000 NA
ATOM     23  C   UNL     1       6.824   4.829  14.061  0.00  0.00    +0.000 A 
ATOM     24  C   UNL     1       5.924   3.836  14.369  0.00  0.00    +0.000 A 
ATOM     25  S   UNL     1       5.672   3.789  16.056  0.00  0.00    +0.000 S 
ENDBRANCH  19  21
ENDBRANCH  14  19
ENDBRANCH   1  15
TORSDOF 4
ENDMDL
