MODEL 1
REMARK VINA RESULT:      -9.7      0.000      0.000
REMARK  Name = 
REMARK  9 active torsions:
REMARK  status: ('A' for Active; 'I' for Inactive)
REMARK    1  A    between atoms: C_1  and  C_2
REMARK    2  A    between atoms: C_2  and  C_3
REMARK    3  A    between atoms: N_5  and  C_6
REMARK    4  A    between atoms: C_8  and  N_9
REMARK    5  A    between atoms: C_14  and  C_15
REMARK    6  A    between atoms: N_18  and  C_19
REMARK    7  A    between atoms: C_19  and  C_20
REMARK    8  A    between atoms: C_19  and  C_22
REMARK    9  A    between atoms: C_20  and  O_21
REMARK                            x       y       z     vdW  Elec       q    Type
REMARK                         _______ _______ _______ _____ _____    ______ ____
ROOT
ATOM      1  C   UNL     1       2.265   6.980  19.720  0.00  0.00    +0.000 A 
ATOM      2  C   UNL     1       1.476   7.663  20.728  0.00  0.00    +0.000 A 
ATOM      3  C   UNL     1       0.991   8.892  20.521  0.00  0.00    +0.000 A 
ATOM      4  N   UNL     1       1.179   9.550  19.318  0.00  0.00    +0.000 N 
ATOM      5  C   UNL     1       1.929   8.967  18.289  0.00  0.00    +0.000 A 
ATOM      6  O   UNL     1       2.100   9.472  17.182  0.00  0.00    +0.000 OA
ATOM      7  C   UNL     1       2.523   7.630  18.571  0.00  0.00    +0.000 A 
ENDROOT
BRANCH   1  13
ATOM      8  N   UNL     1       4.440   3.226  17.743  0.00  0.00    +0.000 N 
ATOM      9  C   UNL     1       3.645   3.761  18.767  0.00  0.00    +0.000 A 
ATOM     10  N   UNL     1       3.234   2.899  19.705  0.00  0.00    +0.000 NA
ATOM     11  C   UNL     1       2.577   3.424  20.761  0.00  0.00    +0.000 A 
ATOM     12  C   UNL     1       2.277   4.762  20.881  0.00  0.00    +0.000 A 
ATOM     13  C   UNL     1       2.675   5.558  19.840  0.00  0.00    +0.000 A 
ATOM     14  N   UNL     1       3.375   5.070  18.800  0.00  0.00    +0.000 NA
ATOM     15  H   UNL     1       4.477   2.222  17.885  0.00  0.00    +0.000 HD
BRANCH   8  21
ATOM     16  C   UNL     1       6.440   4.680  17.551  0.00  0.00    +0.000 A 
ATOM     17  N   UNL     1       7.180   5.212  16.562  0.00  0.00    +0.000 NA
ATOM     18  N   UNL     1       6.626   4.712  15.444  0.00  0.00    +0.000 N 
ATOM     19  C   UNL     1       7.168   5.020  14.143  0.00  0.00    +0.000 C 
ATOM     20  C   UNL     1       5.564   3.891  15.678  0.00  0.00    +0.000 A 
ATOM     21  C   UNL     1       5.400   3.861  17.041  0.00  0.00    +0.000 A 
BRANCH  16  23
ATOM     22  C   UNL     1       7.866   6.019  19.119  0.00  0.00    +0.000 C 
ATOM     23  C   UNL     1       6.746   5.002  18.973  0.00  0.00    +0.000 C 
ENDBRANCH  16  23
ENDBRANCH   8  21
ENDBRANCH   1  13
BRANCH   4  24
ATOM     24  C   UNL     1       0.563  10.883  19.076  0.00  0.00    +0.000 C 
BRANCH  24  25
ATOM     25  C   UNL     1      -0.937  10.871  18.724  0.00  0.00    +0.000 A 
ATOM     26  C   UNL     1      -1.411  10.078  17.661  0.00  0.00    +0.000 A 
ATOM     27  C   UNL     1      -2.744  10.168  17.241  0.00  0.00    +0.000 A 
ATOM     28  C   UNL     1      -3.622  11.049  17.868  0.00  0.00    +0.000 A 
ATOM     29 CL   UNL     1      -5.229  11.227  17.279  0.00  0.00    +0.000 Cl
ATOM     30  C   UNL     1      -3.182  11.800  18.950  0.00  0.00    +0.000 A 
ATOM     31  F   UNL     1      -4.003  12.647  19.586  0.00  0.00    +0.000 F 
ATOM     32  C   UNL     1      -1.862  11.709  19.375  0.00  0.00    +0.000 A 
ENDBRANCH  24  25
BRANCH  24  33
ATOM     33  C   UNL     1       0.921  11.892  20.205  0.00  0.00    +0.000 C 
BRANCH  33  34
ATOM     34  O   UNL     1       2.043  12.717  19.874  0.00  0.00    +0.000 OA
ATOM     35  H   UNL     1       1.706  13.469  19.358  0.00  0.00    +0.000 HD
ENDBRANCH  33  34
ENDBRANCH  24  33
ENDBRANCH   4  24
TORSDOF 7
ENDMDL
MODEL 2
REMARK VINA RESULT:      -9.4      0.866      1.204
REMARK  Name = 
REMARK  9 active torsions:
REMARK  status: ('A' for Active; 'I' for Inactive)
REMARK    1  A    between atoms: C_1  and  C_2
REMARK    2  A    between atoms: C_2  and  C_3
REMARK    3  A    between atoms: N_5  and  C_6
REMARK    4  A    between atoms: C_8  and  N_9
REMARK    5  A    between atoms: C_14  and  C_15
REMARK    6  A    between atoms: N_18  and  C_19
REMARK    7  A    between atoms: C_19  and  C_20
REMARK    8  A    between atoms: C_19  and  C_22
REMARK    9  A    between atoms: C_20  and  O_21
REMARK                            x       y       z     vdW  Elec       q    Type
REMARK                         _______ _______ _______ _____ _____    ______ ____
ROOT
ATOM      1  C   UNL     1       2.186   6.988  19.798  0.00  0.00    +0.000 A 
ATOM      2  C   UNL     1       1.443   7.640  20.861  0.00  0.00    +0.000 A 
ATOM      3  C   UNL     1       1.000   8.895  20.734  0.00  0.00    +0.000 A 
ATOM      4  N   UNL     1       1.187   9.614  19.565  0.00  0.00    +0.000 N 
ATOM      5  C   UNL     1       1.894   9.063  18.489  0.00  0.00    +0.000 A 
ATOM      6  O   UNL     1       2.062   9.624  17.408  0.00  0.00    +0.000 OA
ATOM      7  C   UNL     1       2.444   7.692  18.682  0.00  0.00    +0.000 A 
ENDROOT
BRANCH   1  13
ATOM      8  N   UNL     1       4.283   3.303  17.618  0.00  0.00    +0.000 N 
ATOM      9  C   UNL     1       3.480   3.795  18.657  0.00  0.00    +0.000 A 
ATOM     10  N   UNL     1       3.017   2.886  19.524  0.00  0.00    +0.000 NA
ATOM     11  C   UNL     1       2.352   3.360  20.599  0.00  0.00    +0.000 A 
ATOM     12  C   UNL     1       2.094   4.697  20.804  0.00  0.00    +0.000 A 
ATOM     13  C   UNL     1       2.544   5.547  19.830  0.00  0.00    +0.000 A 
ATOM     14  N   UNL     1       3.253   5.107  18.774  0.00  0.00    +0.000 NA
ATOM     15  H   UNL     1       4.283   2.292  17.691  0.00  0.00    +0.000 HD
BRANCH   8  21
ATOM     16  C   UNL     1       6.285   4.765  17.565  0.00  0.00    +0.000 A 
ATOM     17  N   UNL     1       7.081   5.312  16.630  0.00  0.00    +0.000 NA
ATOM     18  N   UNL     1       6.597   4.827  15.473  0.00  0.00    +0.000 N 
ATOM     19  C   UNL     1       7.213   5.155  14.212  0.00  0.00    +0.000 C 
ATOM     20  C   UNL     1       5.525   4.001  15.633  0.00  0.00    +0.000 A 
ATOM     21  C   UNL     1       5.281   3.950  16.983  0.00  0.00    +0.000 A 
BRANCH  16  23
ATOM     22  C   UNL     1       7.826   5.775  19.266  0.00  0.00    +0.000 C 
ATOM     23  C   UNL     1       6.506   5.067  19.008  0.00  0.00    +0.000 C 
ENDBRANCH  16  23
ENDBRANCH   8  21
ENDBRANCH   1  13
BRANCH   4  24
ATOM     24  C   UNL     1       0.617  10.980  19.412  0.00  0.00    +0.000 C 
BRANCH  24  25
ATOM     25  C   UNL     1      -0.812  11.046  18.841  0.00  0.00    +0.000 A 
ATOM     26  C   UNL     1      -1.758  11.932  19.393  0.00  0.00    +0.000 A 
ATOM     27  C   UNL     1      -3.095  11.899  18.980  0.00  0.00    +0.000 A 
ATOM     28  C   UNL     1      -3.512  10.984  18.015  0.00  0.00    +0.000 A 
ATOM     29 CL   UNL     1      -5.175  10.881  17.588  0.00  0.00    +0.000 Cl
ATOM     30  C   UNL     1      -2.581  10.139  17.426  0.00  0.00    +0.000 A 
ATOM     31  F   UNL     1      -2.943   9.255  16.485  0.00  0.00    +0.000 F 
ATOM     32  C   UNL     1      -1.252  10.172  17.828  0.00  0.00    +0.000 A 
ENDBRANCH  24  25
BRANCH  24  33
ATOM     33  C   UNL     1       0.800  11.824  20.705  0.00  0.00    +0.000 C 
BRANCH  33  34
ATOM     34  O   UNL     1       2.007  12.597  20.697  0.00  0.00    +0.000 OA
ATOM     35  H   UNL     1       2.564  12.266  21.421  0.00  0.00    +0.000 HD
ENDBRANCH  33  34
ENDBRANCH  24  33
ENDBRANCH   4  24
TORSDOF 7
ENDMDL
MODEL 3
REMARK VINA RESULT:      -9.1      1.135      2.108
REMARK  Name = 
REMARK  9 active torsions:
REMARK  status: ('A' for Active; 'I' for Inactive)
REMARK    1  A    between atoms: C_1  and  C_2
REMARK    2  A    between atoms: C_2  and  C_3
REMARK    3  A    between atoms: N_5  and  C_6
REMARK    4  A    between atoms: C_8  and  N_9
REMARK    5  A    between atoms: C_14  and  C_15
REMARK    6  A    between atoms: N_18  and  C_19
REMARK    7  A    between atoms: C_19  and  C_20
REMARK    8  A    between atoms: C_19  and  C_22
REMARK    9  A    between atoms: C_20  and  O_21
REMARK                            x       y       z     vdW  Elec       q    Type
REMARK                         _______ _______ _______ _____ _____    ______ ____
ROOT
ATOM      1  C   UNL     1       1.727   7.289  20.125  0.00  0.00    +0.000 A 
ATOM      2  C   UNL     1       0.837   7.856  21.122  0.00  0.00    +0.000 A 
ATOM      3  C   UNL     1       0.366   9.102  21.010  0.00  0.00    +0.000 A 
ATOM      4  N   UNL     1       0.667   9.893  19.914  0.00  0.00    +0.000 N 
ATOM      5  C   UNL     1       1.520   9.428  18.905  0.00  0.00    +0.000 A 
ATOM      6  O   UNL     1       1.797  10.056  17.885  0.00  0.00    +0.000 OA
ATOM      7  C   UNL     1       2.093   8.066  19.090  0.00  0.00    +0.000 A 
ENDROOT
BRANCH   1  13
ATOM      8  N   UNL     1       4.493   3.885  18.258  0.00  0.00    +0.000 N 
ATOM      9  C   UNL     1       3.425   4.254  19.088  0.00  0.00    +0.000 A 
ATOM     10  N   UNL     1       2.795   3.254  19.718  0.00  0.00    +0.000 NA
ATOM     11  C   UNL     1       1.851   3.606  20.616  0.00  0.00    +0.000 A 
ATOM     12  C   UNL     1       1.486   4.909  20.864  0.00  0.00    +0.000 A 
ATOM     13  C   UNL     1       2.133   5.861  20.122  0.00  0.00    +0.000 A 
ATOM     14  N   UNL     1       3.113   5.543  19.257  0.00  0.00    +0.000 NA
ATOM     15  H   UNL     1       4.522   2.871  18.239  0.00  0.00    +0.000 HD
BRANCH   8  21
ATOM     16  C   UNL     1       6.337   4.603  16.764  0.00  0.00    +0.000 A 
ATOM     17  N   UNL     1       7.414   5.403  16.843  0.00  0.00    +0.000 NA
ATOM     18  N   UNL     1       7.332   5.929  18.077  0.00  0.00    +0.000 N 
ATOM     19  C   UNL     1       8.303   6.888  18.544  0.00  0.00    +0.000 C 
ATOM     20  C   UNL     1       6.253   5.494  18.787  0.00  0.00    +0.000 A 
ATOM     21  C   UNL     1       5.590   4.613  17.970  0.00  0.00    +0.000 A 
BRANCH  16  23
ATOM     22  C   UNL     1       6.665   4.473  14.281  0.00  0.00    +0.000 C 
ATOM     23  C   UNL     1       6.069   3.825  15.521  0.00  0.00    +0.000 C 
ENDBRANCH  16  23
ENDBRANCH   8  21
ENDBRANCH   1  13
BRANCH   4  24
ATOM     24  C   UNL     1       0.069  11.248  19.766  0.00  0.00    +0.000 C 
BRANCH  24  25
ATOM     25  C   UNL     1      -1.336  11.291  19.135  0.00  0.00    +0.000 A 
ATOM     26  C   UNL     1      -2.313  12.172  19.637  0.00  0.00    +0.000 A 
ATOM     27  C   UNL     1      -3.632  12.120  19.169  0.00  0.00    +0.000 A 
ATOM     28  C   UNL     1      -3.998  11.189  18.198  0.00  0.00    +0.000 A 
ATOM     29 CL   UNL     1      -5.641  11.063  17.704  0.00  0.00    +0.000 Cl
ATOM     30  C   UNL     1      -3.034  10.348  17.659  0.00  0.00    +0.000 A 
ATOM     31  F   UNL     1      -3.348   9.450  16.714  0.00  0.00    +0.000 F 
ATOM     32  C   UNL     1      -1.724  10.401  18.115  0.00  0.00    +0.000 A 
ENDBRANCH  24  25
BRANCH  24  33
ATOM     33  C   UNL     1       0.174  12.067  21.084  0.00  0.00    +0.000 C 
BRANCH  33  34
ATOM     34  O   UNL     1       1.476  12.631  21.283  0.00  0.00    +0.000 OA
ATOM     35  H   UNL     1       1.829  12.255  22.107  0.00  0.00    +0.000 HD
ENDBRANCH  33  34
ENDBRANCH  24  33
ENDBRANCH   4  24
TORSDOF 7
ENDMDL
MODEL 4
REMARK VINA RESULT:      -8.9      0.996      1.814
REMARK  Name = 
REMARK  9 active torsions:
REMARK  status: ('A' for Active; 'I' for Inactive)
REMARK    1  A    between atoms: C_1  and  C_2
REMARK    2  A    between atoms: C_2  and  C_3
REMARK    3  A    between atoms: N_5  and  C_6
REMARK    4  A    between atoms: C_8  and  N_9
REMARK    5  A    between atoms: C_14  and  C_15
REMARK    6  A    between atoms: N_18  and  C_19
REMARK    7  A    between atoms: C_19  and  C_20
REMARK    8  A    between atoms: C_19  and  C_22
REMARK    9  A    between atoms: C_20  and  O_21
REMARK                            x       y       z     vdW  Elec       q    Type
REMARK                         _______ _______ _______ _____ _____    ______ ____
ROOT
ATOM      1  C   UNL     1       1.866   7.422  20.060  0.00  0.00    +0.000 A 
ATOM      2  C   UNL     1       1.003   7.907  21.121  0.00  0.00    +0.000 A 
ATOM      3  C   UNL     1       0.441   9.119  21.065  0.00  0.00    +0.000 A 
ATOM      4  N   UNL     1       0.618   9.948  19.971  0.00  0.00    +0.000 N 
ATOM      5  C   UNL     1       1.437   9.563  18.901  0.00  0.00    +0.000 A 
ATOM      6  O   UNL     1       1.606  10.226  17.881  0.00  0.00    +0.000 OA
ATOM      7  C   UNL     1       2.113   8.240  19.022  0.00  0.00    +0.000 A 
ENDROOT
BRANCH   1  13
ATOM      8  N   UNL     1       4.581   4.202  17.828  0.00  0.00    +0.000 N 
ATOM      9  C   UNL     1       3.615   4.503  18.798  0.00  0.00    +0.000 A 
ATOM     10  N   UNL     1       3.152   3.468  19.509  0.00  0.00    +0.000 NA
ATOM     11  C   UNL     1       2.319   3.761  20.530  0.00  0.00    +0.000 A 
ATOM     12  C   UNL     1       1.899   5.038  20.826  0.00  0.00    +0.000 A 
ATOM     13  C   UNL     1       2.368   6.026  20.001  0.00  0.00    +0.000 A 
ATOM     14  N   UNL     1       3.239   5.769  19.008  0.00  0.00    +0.000 NA
ATOM     15  H   UNL     1       4.679   3.192  17.804  0.00  0.00    +0.000 HD
BRANCH   8  21
ATOM     16  C   UNL     1       6.291   4.894  16.170  0.00  0.00    +0.000 A 
ATOM     17  N   UNL     1       7.262   5.820  16.085  0.00  0.00    +0.000 NA
ATOM     18  N   UNL     1       7.139   6.519  17.226  0.00  0.00    +0.000 N 
ATOM     19  C   UNL     1       7.992   7.648  17.503  0.00  0.00    +0.000 C 
ATOM     20  C   UNL     1       6.137   6.074  18.036  0.00  0.00    +0.000 A 
ATOM     21  C   UNL     1       5.573   5.003  17.389  0.00  0.00    +0.000 A 
BRANCH  16  23
ATOM     22  C   UNL     1       6.746   4.340  13.767  0.00  0.00    +0.000 C 
ATOM     23  C   UNL     1       6.099   3.905  15.072  0.00  0.00    +0.000 C 
ENDBRANCH  16  23
ENDBRANCH   8  21
ENDBRANCH   1  13
BRANCH   4  24
ATOM     24  C   UNL     1      -0.080  11.260  19.889  0.00  0.00    +0.000 C 
BRANCH  24  25
ATOM     25  C   UNL     1      -1.526  11.214  19.361  0.00  0.00    +0.000 A 
ATOM     26  C   UNL     1      -1.880  10.312  18.338  0.00  0.00    +0.000 A 
ATOM     27  C   UNL     1      -3.151  10.360  17.751  0.00  0.00    +0.000 A 
ATOM     28  C   UNL     1      -4.085  11.306  18.169  0.00  0.00    +0.000 A 
ATOM     29 CL   UNL     1      -5.605  11.423  17.373  0.00  0.00    +0.000 Cl
ATOM     30  C   UNL     1      -3.767  12.167  19.210  0.00  0.00    +0.000 A 
ATOM     31  F   UNL     1      -4.645  13.081  19.647  0.00  0.00    +0.000 F 
ATOM     32  C   UNL     1      -2.510  12.120  19.800  0.00  0.00    +0.000 A 
ENDBRANCH  24  25
BRANCH  24  33
ATOM     33  C   UNL     1       0.065  12.068  21.210  0.00  0.00    +0.000 C 
BRANCH  33  34
ATOM     34  O   UNL     1       1.316  12.761  21.301  0.00  0.00    +0.000 OA
ATOM     35  H   UNL     1       1.480  13.172  20.436  0.00  0.00    +0.000 HD
ENDBRANCH  33  34
ENDBRANCH  24  33
ENDBRANCH   4  24
TORSDOF 7
ENDMDL
MODEL 5
REMARK VINA RESULT:      -8.9      1.264      1.730
REMARK  Name = 
REMARK  9 active torsions:
REMARK  status: ('A' for Active; 'I' for Inactive)
REMARK    1  A    between atoms: C_1  and  C_2
REMARK    2  A    between atoms: C_2  and  C_3
REMARK    3  A    between atoms: N_5  and  C_6
REMARK    4  A    between atoms: C_8  and  N_9
REMARK    5  A    between atoms: C_14  and  C_15
REMARK    6  A    between atoms: N_18  and  C_19
REMARK    7  A    between atoms: C_19  and  C_20
REMARK    8  A    between atoms: C_19  and  C_22
REMARK    9  A    between atoms: C_20  and  O_21
REMARK                            x       y       z     vdW  Elec       q    Type
REMARK                         _______ _______ _______ _____ _____    ______ ____
ROOT
ATOM      1  C   UNL     1       2.426   6.781  19.085  0.00  0.00    +0.000 A 
ATOM      2  C   UNL     1       2.655   7.593  17.904  0.00  0.00    +0.000 A 
ATOM      3  C   UNL     1       2.165   8.833  17.803  0.00  0.00    +0.000 A 
ATOM      4  N   UNL     1       1.456   9.417  18.839  0.00  0.00    +0.000 N 
ATOM      5  C   UNL     1       1.186   8.707  20.015  0.00  0.00    +0.000 A 
ATOM      6  O   UNL     1       0.602   9.174  20.991  0.00  0.00    +0.000 OA
ATOM      7  C   UNL     1       1.677   7.301  20.074  0.00  0.00    +0.000 A 
ENDROOT
BRANCH   1  13
ATOM      8  N   UNL     1       5.161   3.294  17.331  0.00  0.00    +0.000 N 
ATOM      9  C   UNL     1       4.326   3.779  18.347  0.00  0.00    +0.000 A 
ATOM     10  N   UNL     1       4.119   2.956  19.383  0.00  0.00    +0.000 NA
ATOM     11  C   UNL     1       3.423   3.459  20.424  0.00  0.00    +0.000 A 
ATOM     12  C   UNL     1       2.890   4.728  20.440  0.00  0.00    +0.000 A 
ATOM     13  C   UNL     1       3.092   5.474  19.309  0.00  0.00    +0.000 A 
ATOM     14  N   UNL     1       3.824   5.016  18.277  0.00  0.00    +0.000 NA
ATOM     15  H   UNL     1       5.386   2.332  17.560  0.00  0.00    +0.000 HD
BRANCH   8  21
ATOM     16  C   UNL     1       6.879   5.027  16.891  0.00  0.00    +0.000 A 
ATOM     17  N   UNL     1       7.459   5.589  15.817  0.00  0.00    +0.000 NA
ATOM     18  N   UNL     1       6.928   4.920  14.779  0.00  0.00    +0.000 N 
ATOM     19  C   UNL     1       7.330   5.205  13.424  0.00  0.00    +0.000 C 
ATOM     20  C   UNL     1       6.031   3.962  15.147  0.00  0.00    +0.000 A 
ATOM     21  C   UNL     1       5.959   4.015  16.517  0.00  0.00    +0.000 A 
BRANCH  16  23
ATOM     22  C   UNL     1       7.819   6.901  18.266  0.00  0.00    +0.000 C 
ATOM     23  C   UNL     1       7.215   5.506  18.262  0.00  0.00    +0.000 C 
ENDBRANCH  16  23
ENDBRANCH   8  21
ENDBRANCH   1  13
BRANCH   4  24
ATOM     24  C   UNL     1       0.987  10.827  18.741  0.00  0.00    +0.000 C 
BRANCH  24  25
ATOM     25  C   UNL     1      -0.523  11.012  18.500  0.00  0.00    +0.000 A 
ATOM     26  C   UNL     1      -1.241  11.990  19.215  0.00  0.00    +0.000 A 
ATOM     27  C   UNL     1      -2.635  12.072  19.111  0.00  0.00    +0.000 A 
ATOM     28  C   UNL     1      -3.334  11.181  18.298  0.00  0.00    +0.000 A 
ATOM     29 CL   UNL     1      -5.053  11.223  18.256  0.00  0.00    +0.000 Cl
ATOM     30  C   UNL     1      -2.635  10.245  17.549  0.00  0.00    +0.000 A 
ATOM     31  F   UNL     1      -3.273   9.382  16.746  0.00  0.00    +0.000 F 
ATOM     32  C   UNL     1      -1.251  10.164  17.644  0.00  0.00    +0.000 A 
ENDBRANCH  24  25
BRANCH  24  33
ATOM     33  C   UNL     1       1.533  11.693  19.911  0.00  0.00    +0.000 C 
BRANCH  33  34
ATOM     34  O   UNL     1       2.245  12.851  19.459  0.00  0.00    +0.000 OA
ATOM     35  H   UNL     1       1.859  13.110  18.605  0.00  0.00    +0.000 HD
ENDBRANCH  33  34
ENDBRANCH  24  33
ENDBRANCH   4  24
TORSDOF 7
ENDMDL
MODEL 6
REMARK VINA RESULT:      -8.8      1.632      1.921
REMARK  Name = 
REMARK  9 active torsions:
REMARK  status: ('A' for Active; 'I' for Inactive)
REMARK    1  A    between atoms: C_1  and  C_2
REMARK    2  A    between atoms: C_2  and  C_3
REMARK    3  A    between atoms: N_5  and  C_6
REMARK    4  A    between atoms: C_8  and  N_9
REMARK    5  A    between atoms: C_14  and  C_15
REMARK    6  A    between atoms: N_18  and  C_19
REMARK    7  A    between atoms: C_19  and  C_20
REMARK    8  A    between atoms: C_19  and  C_22
REMARK    9  A    between atoms: C_20  and  O_21
REMARK                            x       y       z     vdW  Elec       q    Type
REMARK                         _______ _______ _______ _____ _____    ______ ____
ROOT
ATOM      1  C   UNL     1       2.252   7.150  19.684  0.00  0.00    +0.000 A 
ATOM      2  C   UNL     1       1.524   7.885  20.702  0.00  0.00    +0.000 A 
ATOM      3  C   UNL     1       1.082   9.128  20.485  0.00  0.00    +0.000 A 
ATOM      4  N   UNL     1       1.257   9.754  19.263  0.00  0.00    +0.000 N 
ATOM      5  C   UNL     1       1.950   9.120  18.223  0.00  0.00    +0.000 A 
ATOM      6  O   UNL     1       2.106   9.596  17.101  0.00  0.00    +0.000 OA
ATOM      7  C   UNL     1       2.499   7.766  18.515  0.00  0.00    +0.000 A 
ENDROOT
BRANCH   1  13
ATOM      8  N   UNL     1       4.323   3.306  17.772  0.00  0.00    +0.000 N 
ATOM      9  C   UNL     1       3.530   3.876  18.778  0.00  0.00    +0.000 A 
ATOM     10  N   UNL     1       3.073   3.037  19.714  0.00  0.00    +0.000 NA
ATOM     11  C   UNL     1       2.417   3.593  20.755  0.00  0.00    +0.000 A 
ATOM     12  C   UNL     1       2.164   4.942  20.861  0.00  0.00    +0.000 A 
ATOM     13  C   UNL     1       2.608   5.715  19.821  0.00  0.00    +0.000 A 
ATOM     14  N   UNL     1       3.307   5.195  18.797  0.00  0.00    +0.000 NA
ATOM     15  H   UNL     1       4.322   2.302  17.921  0.00  0.00    +0.000 HD
BRANCH   8  21
ATOM     16  C   UNL     1       6.375   4.689  17.604  0.00  0.00    +0.000 A 
ATOM     17  N   UNL     1       7.151   5.185  16.624  0.00  0.00    +0.000 NA
ATOM     18  N   UNL     1       6.602   4.692  15.500  0.00  0.00    +0.000 N 
ATOM     19  C   UNL     1       7.178   4.968  14.208  0.00  0.00    +0.000 C 
ATOM     20  C   UNL     1       5.508   3.911  15.722  0.00  0.00    +0.000 A 
ATOM     21  C   UNL     1       5.318   3.900  17.082  0.00  0.00    +0.000 A 
BRANCH  16  23
ATOM     22  C   UNL     1       7.895   5.893  19.193  0.00  0.00    +0.000 C 
ATOM     23  C   UNL     1       6.665   5.015  19.029  0.00  0.00    +0.000 C 
ENDBRANCH  16  23
ENDBRANCH   8  21
ENDBRANCH   1  13
BRANCH   4  24
ATOM     24  C   UNL     1       0.688  11.106  19.012  0.00  0.00    +0.000 C 
BRANCH  24  25
ATOM     25  C   UNL     1      -0.480  11.518  19.928  0.00  0.00    +0.000 A 
ATOM     26  C   UNL     1      -1.764  11.729  19.389  0.00  0.00    +0.000 A 
ATOM     27  C   UNL     1      -2.797  12.241  20.183  0.00  0.00    +0.000 A 
ATOM     28  C   UNL     1      -2.568  12.554  21.521  0.00  0.00    +0.000 A 
ATOM     29 CL   UNL     1      -3.814  13.278  22.461  0.00  0.00    +0.000 Cl
ATOM     30  C   UNL     1      -1.322  12.304  22.078  0.00  0.00    +0.000 A 
ATOM     31  F   UNL     1      -1.069  12.580  23.366  0.00  0.00    +0.000 F 
ATOM     32  C   UNL     1      -0.295  11.790  21.297  0.00  0.00    +0.000 A 
ENDBRANCH  24  25
BRANCH  24  33
ATOM     33  C   UNL     1       1.803  12.187  18.916  0.00  0.00    +0.000 C 
BRANCH  33  34
ATOM     34  O   UNL     1       2.175  12.480  17.564  0.00  0.00    +0.000 OA
ATOM     35  H   UNL     1       2.616  13.346  17.569  0.00  0.00    +0.000 HD
ENDBRANCH  33  34
ENDBRANCH  24  33
ENDBRANCH   4  24
TORSDOF 7
ENDMDL
MODEL 7
REMARK VINA RESULT:      -8.8      1.028      1.333
REMARK  Name = 
REMARK  9 active torsions:
REMARK  status: ('A' for Active; 'I' for Inactive)
REMARK    1  A    between atoms: C_1  and  C_2
REMARK    2  A    between atoms: C_2  and  C_3
REMARK    3  A    between atoms: N_5  and  C_6
REMARK    4  A    between atoms: C_8  and  N_9
REMARK    5  A    between atoms: C_14  and  C_15
REMARK    6  A    between atoms: N_18  and  C_19
REMARK    7  A    between atoms: C_19  and  C_20
REMARK    8  A    between atoms: C_19  and  C_22
REMARK    9  A    between atoms: C_20  and  O_21
REMARK                            x       y       z     vdW  Elec       q    Type
REMARK                         _______ _______ _______ _____ _____    ______ ____
ROOT
ATOM      1  C   UNL     1       2.441   6.642  19.096  0.00  0.00    +0.000 A 
ATOM      2  C   UNL     1       2.607   7.448  17.900  0.00  0.00    +0.000 A 
ATOM      3  C   UNL     1       2.099   8.681  17.812  0.00  0.00    +0.000 A 
ATOM      4  N   UNL     1       1.433   9.266  18.875  0.00  0.00    +0.000 N 
ATOM      5  C   UNL     1       1.225   8.562  20.068  0.00  0.00    +0.000 A 
ATOM      6  O   UNL     1       0.681   9.030  21.066  0.00  0.00    +0.000 OA
ATOM      7  C   UNL     1       1.733   7.162  20.114  0.00  0.00    +0.000 A 
ENDROOT
BRANCH   1  13
ATOM      8  N   UNL     1       5.214   3.220  17.274  0.00  0.00    +0.000 N 
ATOM      9  C   UNL     1       4.382   3.680  18.304  0.00  0.00    +0.000 A 
ATOM     10  N   UNL     1       4.200   2.843  19.332  0.00  0.00    +0.000 NA
ATOM     11  C   UNL     1       3.507   3.323  20.387  0.00  0.00    +0.000 A 
ATOM     12  C   UNL     1       2.954   4.582  20.423  0.00  0.00    +0.000 A 
ATOM     13  C   UNL     1       3.131   5.343  19.298  0.00  0.00    +0.000 A 
ATOM     14  N   UNL     1       3.859   4.909  18.253  0.00  0.00    +0.000 NA
ATOM     15  H   UNL     1       5.457   2.259  17.490  0.00  0.00    +0.000 HD
BRANCH   8  21
ATOM     16  C   UNL     1       6.922   4.964  16.838  0.00  0.00    +0.000 A 
ATOM     17  N   UNL     1       7.475   5.555  15.764  0.00  0.00    +0.000 NA
ATOM     18  N   UNL     1       6.915   4.915  14.723  0.00  0.00    +0.000 N 
ATOM     19  C   UNL     1       7.282   5.238  13.366  0.00  0.00    +0.000 C 
ATOM     20  C   UNL     1       6.027   3.948  15.087  0.00  0.00    +0.000 A 
ATOM     21  C   UNL     1       5.991   3.963  16.460  0.00  0.00    +0.000 A 
BRANCH  16  23
ATOM     22  C   UNL     1       7.785   6.843  18.256  0.00  0.00    +0.000 C 
ATOM     23  C   UNL     1       7.295   5.404  18.212  0.00  0.00    +0.000 C 
ENDBRANCH  16  23
ENDBRANCH   8  21
ENDBRANCH   1  13
BRANCH   4  24
ATOM     24  C   UNL     1       0.945  10.670  18.789  0.00  0.00    +0.000 C 
BRANCH  24  25
ATOM     25  C   UNL     1      -0.575  10.837  18.608  0.00  0.00    +0.000 A 
ATOM     26  C   UNL     1      -1.251  10.134  17.592  0.00  0.00    +0.000 A 
ATOM     27  C   UNL     1      -2.603  10.386  17.325  0.00  0.00    +0.000 A 
ATOM     28  C   UNL     1      -3.300  11.342  18.062  0.00  0.00    +0.000 A 
ATOM     29 CL   UNL     1      -4.930  11.718  17.660  0.00  0.00    +0.000 Cl
ATOM     30  C   UNL     1      -2.660  12.006  19.099  0.00  0.00    +0.000 A 
ATOM     31  F   UNL     1      -3.303  12.922  19.838  0.00  0.00    +0.000 F 
ATOM     32  C   UNL     1      -1.321  11.755  19.372  0.00  0.00    +0.000 A 
ENDBRANCH  24  25
BRANCH  24  33
ATOM     33  C   UNL     1       1.528  11.549  19.932  0.00  0.00    +0.000 C 
BRANCH  33  34
ATOM     34  O   UNL     1       2.199  12.717  19.445  0.00  0.00    +0.000 OA
ATOM     35  H   UNL     1       2.928  12.414  18.878  0.00  0.00    +0.000 HD
ENDBRANCH  33  34
ENDBRANCH  24  33
ENDBRANCH   4  24
TORSDOF 7
ENDMDL
MODEL 8
REMARK VINA RESULT:      -8.7      3.186      4.447
REMARK  Name = 
REMARK  9 active torsions:
REMARK  status: ('A' for Active; 'I' for Inactive)
REMARK    1  A    between atoms: C_1  and  C_2
REMARK    2  A    between atoms: C_2  and  C_3
REMARK    3  A    between atoms: N_5  and  C_6
REMARK    4  A    between atoms: C_8  and  N_9
REMARK    5  A    between atoms: C_14  and  C_15
REMARK    6  A    between atoms: N_18  and  C_19
REMARK    7  A    between atoms: C_19  and  C_20
REMARK    8  A    between atoms: C_19  and  C_22
REMARK    9  A    between atoms: C_20  and  O_21
REMARK                            x       y       z     vdW  Elec       q    Type
REMARK                         _______ _______ _______ _____ _____    ______ ____
ROOT
ATOM      1  C   UNL     1       1.716   7.940  19.733  0.00  0.00    +0.000 A 
ATOM      2  C   UNL     1       1.763   8.708  18.502  0.00  0.00    +0.000 A 
ATOM      3  C   UNL     1       1.399   9.994  18.467  0.00  0.00    +0.000 A 
ATOM      4  N   UNL     1       1.005  10.666  19.612  0.00  0.00    +0.000 N 
ATOM      5  C   UNL     1       0.929  10.003  20.844  0.00  0.00    +0.000 A 
ATOM      6  O   UNL     1       0.630  10.543  21.906  0.00  0.00    +0.000 OA
ATOM      7  C   UNL     1       1.266   8.552  20.843  0.00  0.00    +0.000 A 
ENDROOT
BRANCH   1  13
ATOM      8  N   UNL     1       4.695   4.632  18.029  0.00  0.00    +0.000 N 
ATOM      9  C   UNL     1       3.653   4.987  18.897  0.00  0.00    +0.000 A 
ATOM     10  N   UNL     1       3.178   4.010  19.679  0.00  0.00    +0.000 NA
ATOM     11  C   UNL     1       2.265   4.368  20.606  0.00  0.00    +0.000 A 
ATOM     12  C   UNL     1       1.780   5.649  20.740  0.00  0.00    +0.000 A 
ATOM     13  C   UNL     1       2.271   6.568  19.851  0.00  0.00    +0.000 A 
ATOM     14  N   UNL     1       3.218   6.250  18.950  0.00  0.00    +0.000 NA
ATOM     15  H   UNL     1       4.831   3.630  18.117  0.00  0.00    +0.000 HD
BRANCH   8  21
ATOM     16  C   UNL     1       6.520   5.205  16.452  0.00  0.00    +0.000 A 
ATOM     17  N   UNL     1       7.452   6.167  16.330  0.00  0.00    +0.000 NA
ATOM     18  N   UNL     1       7.190   6.997  17.355  0.00  0.00    +0.000 N 
ATOM     19  C   UNL     1       7.960   8.200  17.554  0.00  0.00    +0.000 C 
ATOM     20  C   UNL     1       6.137   6.602  18.125  0.00  0.00    +0.000 A 
ATOM     21  C   UNL     1       5.686   5.426  17.577  0.00  0.00    +0.000 A 
BRANCH  16  23
ATOM     22  C   UNL     1       5.611   4.373  14.268  0.00  0.00    +0.000 C 
ATOM     23  C   UNL     1       6.478   4.075  15.481  0.00  0.00    +0.000 C 
ENDBRANCH  16  23
ENDBRANCH   8  21
ENDBRANCH   1  13
BRANCH   4  24
ATOM     24  C   UNL     1       0.681  12.118  19.569  0.00  0.00    +0.000 C 
BRANCH  24  25
ATOM     25  C   UNL     1       1.890  13.068  19.473  0.00  0.00    +0.000 A 
ATOM     26  C   UNL     1       2.600  13.433  20.634  0.00  0.00    +0.000 A 
ATOM     27  C   UNL     1       3.607  14.405  20.580  0.00  0.00    +0.000 A 
ATOM     28  C   UNL     1       3.918  15.030  19.374  0.00  0.00    +0.000 A 
ATOM     29 CL   UNL     1       5.084  16.295  19.337  0.00  0.00    +0.000 Cl
ATOM     30  C   UNL     1       3.261  14.645  18.214  0.00  0.00    +0.000 A 
ATOM     31  F   UNL     1       3.544  15.216  17.034  0.00  0.00    +0.000 F 
ATOM     32  C   UNL     1       2.266  13.677  18.261  0.00  0.00    +0.000 A 
ENDBRANCH  24  25
BRANCH  24  33
ATOM     33  C   UNL     1      -0.426  12.426  18.521  0.00  0.00    +0.000 C 
BRANCH  33  34
ATOM     34  O   UNL     1      -1.233  13.553  18.883  0.00  0.00    +0.000 OA
ATOM     35  H   UNL     1      -1.818  13.267  19.604  0.00  0.00    +0.000 HD
ENDBRANCH  33  34
ENDBRANCH  24  33
ENDBRANCH   4  24
TORSDOF 7
ENDMDL
MODEL 9
REMARK VINA RESULT:      -8.6      1.583      2.011
REMARK  Name = 
REMARK  9 active torsions:
REMARK  status: ('A' for Active; 'I' for Inactive)
REMARK    1  A    between atoms: C_1  and  C_2
REMARK    2  A    between atoms: C_2  and  C_3
REMARK    3  A    between atoms: N_5  and  C_6
REMARK    4  A    between atoms: C_8  and  N_9
REMARK    5  A    between atoms: C_14  and  C_15
REMARK    6  A    between atoms: N_18  and  C_19
REMARK    7  A    between atoms: C_19  and  C_20
REMARK    8  A    between atoms: C_19  and  C_22
REMARK    9  A    between atoms: C_20  and  O_21
REMARK                            x       y       z     vdW  Elec       q    Type
REMARK                         _______ _______ _______ _____ _____    ______ ____
ROOT
ATOM      1  C   UNL     1       2.165   7.281  19.696  0.00  0.00    +0.000 A 
ATOM      2  C   UNL     1       1.476   8.027  20.733  0.00  0.00    +0.000 A 
ATOM      3  C   UNL     1       1.077   9.288  20.537  0.00  0.00    +0.000 A 
ATOM      4  N   UNL     1       1.260   9.924  19.321  0.00  0.00    +0.000 N 
ATOM      5  C   UNL     1       1.917   9.281  18.265  0.00  0.00    +0.000 A 
ATOM      6  O   UNL     1       2.077   9.766  17.148  0.00  0.00    +0.000 OA
ATOM      7  C   UNL     1       2.420   7.904  18.532  0.00  0.00    +0.000 A 
ENDROOT
BRANCH   1  13
ATOM      8  N   UNL     1       4.144   3.409  17.743  0.00  0.00    +0.000 N 
ATOM      9  C   UNL     1       3.351   3.985  18.745  0.00  0.00    +0.000 A 
ATOM     10  N   UNL     1       2.848   3.143  19.656  0.00  0.00    +0.000 NA
ATOM     11  C   UNL     1       2.192   3.700  20.695  0.00  0.00    +0.000 A 
ATOM     12  C   UNL     1       1.981   5.054  20.825  0.00  0.00    +0.000 A 
ATOM     13  C   UNL     1       2.471   5.832  19.810  0.00  0.00    +0.000 A 
ATOM     14  N   UNL     1       3.172   5.310  18.788  0.00  0.00    +0.000 NA
ATOM     15  H   UNL     1       4.106   2.403  17.871  0.00  0.00    +0.000 HD
BRANCH   8  21
ATOM     16  C   UNL     1       6.231   4.744  17.639  0.00  0.00    +0.000 A 
ATOM     17  N   UNL     1       7.045   5.227  16.684  0.00  0.00    +0.000 NA
ATOM     18  N   UNL     1       6.516   4.753  15.542  0.00  0.00    +0.000 N 
ATOM     19  C   UNL     1       7.133   5.022  14.268  0.00  0.00    +0.000 C 
ATOM     20  C   UNL     1       5.398   3.997  15.730  0.00  0.00    +0.000 A 
ATOM     21  C   UNL     1       5.170   3.983  17.084  0.00  0.00    +0.000 A 
BRANCH  16  23
ATOM     22  C   UNL     1       7.813   5.771  19.291  0.00  0.00    +0.000 C 
ATOM     23  C   UNL     1       6.490   5.055  19.073  0.00  0.00    +0.000 C 
ENDBRANCH  16  23
ENDBRANCH   8  21
ENDBRANCH   1  13
BRANCH   4  24
ATOM     24  C   UNL     1       0.737  11.300  19.096  0.00  0.00    +0.000 C 
BRANCH  24  25
ATOM     25  C   UNL     1      -0.326  11.782  20.100  0.00  0.00    +0.000 A 
ATOM     26  C   UNL     1       0.013  11.980  21.453  0.00  0.00    +0.000 A 
ATOM     27  C   UNL     1      -0.973  12.278  22.401  0.00  0.00    +0.000 A 
ATOM     28  C   UNL     1      -2.309  12.380  22.020  0.00  0.00    +0.000 A 
ATOM     29 CL   UNL     1      -3.525  12.644  23.207  0.00  0.00    +0.000 Cl
ATOM     30  C   UNL     1      -2.651  12.236  20.682  0.00  0.00    +0.000 A 
ATOM     31  F   UNL     1      -3.925  12.341  20.276  0.00  0.00    +0.000 F 
ATOM     32  C   UNL     1      -1.676  11.947  19.736  0.00  0.00    +0.000 A 
ENDBRANCH  24  25
BRANCH  24  33
ATOM     33  C   UNL     1       1.891  12.322  18.885  0.00  0.00    +0.000 C 
BRANCH  33  34
ATOM     34  O   UNL     1       2.115  12.627  17.503  0.00  0.00    +0.000 OA
ATOM     35  H   UNL     1       1.264  12.913  17.130  0.00  0.00    +0.000 HD
ENDBRANCH  33  34
ENDBRANCH  24  33
ENDBRANCH   4  24
TORSDOF 7
ENDMDL
