MODEL 1
REMARK VINA RESULT:      -7.8      0.000      0.000
REMARK  Name = 
REMARK  7 active torsions:
REMARK  status: ('A' for Active; 'I' for Inactive)
REMARK    1  A    between atoms: C_5  and  C_6
REMARK    2  A    between atoms: N_9  and  C_10
REMARK    3  A    between atoms: C_10  and  C_11
REMARK    4  A    between atoms: C_11  and  C_12
REMARK    5  A    between atoms: C_12  and  S_13
REMARK    6  A    between atoms: S_13  and  C_14
REMARK    7  A    between atoms: C_20  and  C_21
REMARK                            x       y       z     vdW  Elec       q    Type
REMARK                         _______ _______ _______ _____ _____    ______ ____
ROOT
ATOM      1  C   UNL     1       2.473   7.499  18.839  0.00  0.00    +0.000 A 
ATOM      2  N   UNL     1       3.165   8.145  17.842  0.00  0.00    +0.000 NA
ATOM      3  C   UNL     1       3.891   7.222  17.268  0.00  0.00    +0.000 A 
ATOM      4  N   UNL     1       3.696   5.991  17.830  0.00  0.00    +0.000 N 
ATOM      5  C   UNL     1       2.743   6.123  18.843  0.00  0.00    +0.000 A 
ENDROOT
BRANCH   1  10
ATOM      6  F   UNL     1      -1.113  10.322  22.070  0.00  0.00    +0.000 F 
ATOM      7  C   UNL     1      -0.231   9.663  21.304  0.00  0.00    +0.000 A 
ATOM      8  C   UNL     1      -0.033  10.055  19.987  0.00  0.00    +0.000 A 
ATOM      9  C   UNL     1       0.862   9.349  19.191  0.00  0.00    +0.000 A 
ATOM     10  C   UNL     1       1.569   8.248  19.707  0.00  0.00    +0.000 A 
ATOM     11  C   UNL     1       1.393   7.907  21.057  0.00  0.00    +0.000 A 
ATOM     12  C   UNL     1       0.472   8.596  21.847  0.00  0.00    +0.000 A 
ENDBRANCH   1  10
BRANCH   5  13
ATOM     13  C   UNL     1       2.171   5.014  19.645  0.00  0.00    +0.000 A 
ATOM     14  C   UNL     1       1.208   4.136  19.140  0.00  0.00    +0.000 A 
ATOM     15  C   UNL     1       0.736   3.102  19.936  0.00  0.00    +0.000 A 
ATOM     16  N   UNL     1       1.195   2.840  21.172  0.00  0.00    +0.000 NA
ATOM     17  C   UNL     1       2.144   3.671  21.644  0.00  0.00    +0.000 A 
ATOM     18  C   UNL     1       2.621   4.773  20.949  0.00  0.00    +0.000 A 
ENDBRANCH   5  13
BRANCH   4  19
ATOM     19  C   UNL     1       4.366   4.768  17.419  0.00  0.00    +0.000 C 
BRANCH  19  20
ATOM     20  C   UNL     1       5.677   4.417  18.121  0.00  0.00    +0.000 C 
BRANCH  20  21
ATOM     21  C   UNL     1       6.797   4.215  17.103  0.00  0.00    +0.000 C 
BRANCH  21  22
ATOM     22  S   UNL     1       6.900   5.702  16.055  0.00  0.00    +0.000 S 
BRANCH  22  23
ATOM     23  C   UNL     1       6.808   4.941  14.449  0.00  0.00    +0.000 A 
ATOM     24  C   UNL     1       5.845   3.969  14.164  0.00  0.00    +0.000 A 
ATOM     25  C   UNL     1       5.784   3.390  12.895  0.00  0.00    +0.000 A 
ATOM     26  C   UNL     1       6.683   3.786  11.904  0.00  0.00    +0.000 A 
ATOM     27  C   UNL     1       7.635   4.767  12.179  0.00  0.00    +0.000 A 
ATOM     28  C   UNL     1       7.694   5.347  13.447  0.00  0.00    +0.000 A 
ENDBRANCH  22  23
ENDBRANCH  21  22
ENDBRANCH  20  21
ENDBRANCH  19  20
ENDBRANCH   4  19
TORSDOF 7
ENDMDL
MODEL 2
REMARK VINA RESULT:      -7.7      1.474      2.857
REMARK  Name = 
REMARK  7 active torsions:
REMARK  status: ('A' for Active; 'I' for Inactive)
REMARK    1  A    between atoms: C_5  and  C_6
REMARK    2  A    between atoms: N_9  and  C_10
REMARK    3  A    between atoms: C_10  and  C_11
REMARK    4  A    between atoms: C_11  and  C_12
REMARK    5  A    between atoms: C_12  and  S_13
REMARK    6  A    between atoms: S_13  and  C_14
REMARK    7  A    between atoms: C_20  and  C_21
REMARK                            x       y       z     vdW  Elec       q    Type
REMARK                         _______ _______ _______ _____ _____    ______ ____
ROOT
ATOM      1  C   UNL     1       2.549   7.308  18.704  0.00  0.00    +0.000 A 
ATOM      2  N   UNL     1       3.274   7.895  17.694  0.00  0.00    +0.000 NA
ATOM      3  C   UNL     1       3.979   6.929  17.165  0.00  0.00    +0.000 A 
ATOM      4  N   UNL     1       3.740   5.727  17.771  0.00  0.00    +0.000 N 
ATOM      5  C   UNL     1       2.777   5.926  18.764  0.00  0.00    +0.000 A 
ENDROOT
BRANCH   1  10
ATOM      6  F   UNL     1      -0.736  10.452  21.959  0.00  0.00    +0.000 F 
ATOM      7  C   UNL     1       0.028   9.680  21.172  0.00  0.00    +0.000 A 
ATOM      8  C   UNL     1       0.692   8.587  21.712  0.00  0.00    +0.000 A 
ATOM      9  C   UNL     1       1.505   7.808  20.895  0.00  0.00    +0.000 A 
ATOM     10  C   UNL     1       1.658   8.116  19.531  0.00  0.00    +0.000 A 
ATOM     11  C   UNL     1       0.933   9.193  18.998  0.00  0.00    +0.000 A 
ATOM     12  C   UNL     1       0.142   9.992  19.824  0.00  0.00    +0.000 A 
ENDBRANCH   1  10
BRANCH   5  13
ATOM     13  C   UNL     1       2.162   4.865  19.598  0.00  0.00    +0.000 A 
ATOM     14  C   UNL     1       1.161   4.014  19.120  0.00  0.00    +0.000 A 
ATOM     15  C   UNL     1       0.648   3.025  19.946  0.00  0.00    +0.000 A 
ATOM     16  N   UNL     1       1.099   2.780  21.189  0.00  0.00    +0.000 NA
ATOM     17  C   UNL     1       2.083   3.583  21.635  0.00  0.00    +0.000 A 
ATOM     18  C   UNL     1       2.604   4.643  20.908  0.00  0.00    +0.000 A 
ENDBRANCH   5  13
BRANCH   4  19
ATOM     19  C   UNL     1       4.377   4.470  17.415  0.00  0.00    +0.000 C 
BRANCH  19  20
ATOM     20  C   UNL     1       4.455   4.120  15.929  0.00  0.00    +0.000 C 
BRANCH  20  21
ATOM     21  C   UNL     1       5.814   3.515  15.588  0.00  0.00    +0.000 C 
BRANCH  21  22
ATOM     22  S   UNL     1       6.899   4.842  14.968  0.00  0.00    +0.000 S 
BRANCH  22  23
ATOM     23  C   UNL     1       7.355   5.599  16.513  0.00  0.00    +0.000 A 
ATOM     24  C   UNL     1       7.430   6.989  16.642  0.00  0.00    +0.000 A 
ATOM     25  C   UNL     1       7.782   7.563  17.865  0.00  0.00    +0.000 A 
ATOM     26  C   UNL     1       8.055   6.750  18.965  0.00  0.00    +0.000 A 
ATOM     27  C   UNL     1       7.965   5.363  18.846  0.00  0.00    +0.000 A 
ATOM     28  C   UNL     1       7.612   4.790  17.623  0.00  0.00    +0.000 A 
ENDBRANCH  22  23
ENDBRANCH  21  22
ENDBRANCH  20  21
ENDBRANCH  19  20
ENDBRANCH   4  19
TORSDOF 7
ENDMDL
MODEL 3
REMARK VINA RESULT:      -7.7      1.450      2.791
REMARK  Name = 
REMARK  7 active torsions:
REMARK  status: ('A' for Active; 'I' for Inactive)
REMARK    1  A    between atoms: C_5  and  C_6
REMARK    2  A    between atoms: N_9  and  C_10
REMARK    3  A    between atoms: C_10  and  C_11
REMARK    4  A    between atoms: C_11  and  C_12
REMARK    5  A    between atoms: C_12  and  S_13
REMARK    6  A    between atoms: S_13  and  C_14
REMARK    7  A    between atoms: C_20  and  C_21
REMARK                            x       y       z     vdW  Elec       q    Type
REMARK                         _______ _______ _______ _____ _____    ______ ____
ROOT
ATOM      1  C   UNL     1       2.641   7.214  18.680  0.00  0.00    +0.000 A 
ATOM      2  N   UNL     1       3.327   7.799  17.642  0.00  0.00    +0.000 NA
ATOM      3  C   UNL     1       4.001   6.829  17.080  0.00  0.00    +0.000 A 
ATOM      4  N   UNL     1       3.778   5.627  17.691  0.00  0.00    +0.000 N 
ATOM      5  C   UNL     1       2.859   5.830  18.725  0.00  0.00    +0.000 A 
ENDROOT
BRANCH   1  10
ATOM      6  F   UNL     1      -0.742  10.285  21.904  0.00  0.00    +0.000 F 
ATOM      7  C   UNL     1       0.093   9.566  21.139  0.00  0.00    +0.000 A 
ATOM      8  C   UNL     1       0.305   9.931  19.817  0.00  0.00    +0.000 A 
ATOM      9  C   UNL     1       1.150   9.163  19.022  0.00  0.00    +0.000 A 
ATOM     10  C   UNL     1       1.791   8.026  19.546  0.00  0.00    +0.000 A 
ATOM     11  C   UNL     1       1.604   7.710  20.900  0.00  0.00    +0.000 A 
ATOM     12  C   UNL     1       0.732   8.462  21.689  0.00  0.00    +0.000 A 
ENDBRANCH   1  10
BRANCH   5  13
ATOM     13  C   UNL     1       2.271   4.771  19.581  0.00  0.00    +0.000 A 
ATOM     14  C   UNL     1       2.690   4.545  20.896  0.00  0.00    +0.000 A 
ATOM     15  C   UNL     1       2.077   3.555  21.651  0.00  0.00    +0.000 A 
ATOM     16  N   UNL     1       1.040   2.818  21.217  0.00  0.00    +0.000 NA
ATOM     17  C   UNL     1       0.620   3.059  19.961  0.00  0.00    +0.000 A 
ATOM     18  C   UNL     1       1.220   3.976  19.109  0.00  0.00    +0.000 A 
ENDBRANCH   5  13
BRANCH   4  19
ATOM     19  C   UNL     1       4.389   4.366  17.305  0.00  0.00    +0.000 C 
BRANCH  19  20
ATOM     20  C   UNL     1       4.511   4.076  15.809  0.00  0.00    +0.000 C 
BRANCH  20  21
ATOM     21  C   UNL     1       5.896   3.527  15.477  0.00  0.00    +0.000 C 
BRANCH  21  22
ATOM     22  S   UNL     1       6.961   4.916  14.969  0.00  0.00    +0.000 S 
BRANCH  22  23
ATOM     23  C   UNL     1       7.381   5.571  16.570  0.00  0.00    +0.000 A 
ATOM     24  C   UNL     1       7.667   4.723  17.645  0.00  0.00    +0.000 A 
ATOM     25  C   UNL     1       8.002   5.257  18.890  0.00  0.00    +0.000 A 
ATOM     26  C   UNL     1       8.057   6.640  19.065  0.00  0.00    +0.000 A 
ATOM     27  C   UNL     1       7.789   7.489  17.992  0.00  0.00    +0.000 A 
ATOM     28  C   UNL     1       7.455   6.955  16.746  0.00  0.00    +0.000 A 
ENDBRANCH  22  23
ENDBRANCH  21  22
ENDBRANCH  20  21
ENDBRANCH  19  20
ENDBRANCH   4  19
TORSDOF 7
ENDMDL
MODEL 4
REMARK VINA RESULT:      -7.7      0.446      1.358
REMARK  Name = 
REMARK  7 active torsions:
REMARK  status: ('A' for Active; 'I' for Inactive)
REMARK    1  A    between atoms: C_5  and  C_6
REMARK    2  A    between atoms: N_9  and  C_10
REMARK    3  A    between atoms: C_10  and  C_11
REMARK    4  A    between atoms: C_11  and  C_12
REMARK    5  A    between atoms: C_12  and  S_13
REMARK    6  A    between atoms: S_13  and  C_14
REMARK    7  A    between atoms: C_20  and  C_21
REMARK                            x       y       z     vdW  Elec       q    Type
REMARK                         _______ _______ _______ _____ _____    ______ ____
ROOT
ATOM      1  C   UNL     1       2.744   7.419  18.584  0.00  0.00    +0.000 A 
ATOM      2  N   UNL     1       3.573   7.997  17.650  0.00  0.00    +0.000 NA
ATOM      3  C   UNL     1       4.370   7.040  17.254  0.00  0.00    +0.000 A 
ATOM      4  N   UNL     1       4.094   5.852  17.871  0.00  0.00    +0.000 N 
ATOM      5  C   UNL     1       3.007   6.050  18.727  0.00  0.00    +0.000 A 
ENDROOT
BRANCH   1  10
ATOM      6  F   UNL     1      -1.026  10.566  21.258  0.00  0.00    +0.000 F 
ATOM      7  C   UNL     1      -0.144   9.791  20.611  0.00  0.00    +0.000 A 
ATOM      8  C   UNL     1       0.569   8.825  21.308  0.00  0.00    +0.000 A 
ATOM      9  C   UNL     1       1.503   8.044  20.635  0.00  0.00    +0.000 A 
ATOM     10  C   UNL     1       1.729   8.222  19.258  0.00  0.00    +0.000 A 
ATOM     11  C   UNL     1       0.956   9.167  18.565  0.00  0.00    +0.000 A 
ATOM     12  C   UNL     1       0.041   9.971  19.247  0.00  0.00    +0.000 A 
ENDBRANCH   1  10
BRANCH   5  13
ATOM     13  C   UNL     1       2.325   4.997  19.519  0.00  0.00    +0.000 A 
ATOM     14  C   UNL     1       1.327   4.178  18.983  0.00  0.00    +0.000 A 
ATOM     15  C   UNL     1       0.749   3.194  19.773  0.00  0.00    +0.000 A 
ATOM     16  N   UNL     1       1.133   2.925  21.032  0.00  0.00    +0.000 NA
ATOM     17  C   UNL     1       2.115   3.696  21.534  0.00  0.00    +0.000 A 
ATOM     18  C   UNL     1       2.698   4.750  20.845  0.00  0.00    +0.000 A 
ENDBRANCH   5  13
BRANCH   4  19
ATOM     19  C   UNL     1       4.812   4.607  17.649  0.00  0.00    +0.000 C 
BRANCH  19  20
ATOM     20  C   UNL     1       6.260   4.538  18.133  0.00  0.00    +0.000 C 
BRANCH  20  21
ATOM     21  C   UNL     1       7.209   4.297  16.962  0.00  0.00    +0.000 C 
BRANCH  21  22
ATOM     22  S   UNL     1       7.135   5.740  15.852  0.00  0.00    +0.000 S 
BRANCH  22  23
ATOM     23  C   UNL     1       6.839   4.911  14.305  0.00  0.00    +0.000 A 
ATOM     24  C   UNL     1       7.697   5.086  13.215  0.00  0.00    +0.000 A 
ATOM     25  C   UNL     1       7.451   4.420  12.013  0.00  0.00    +0.000 A 
ATOM     26  C   UNL     1       6.351   3.571  11.898  0.00  0.00    +0.000 A 
ATOM     27  C   UNL     1       5.502   3.380  12.988  0.00  0.00    +0.000 A 
ATOM     28  C   UNL     1       5.748   4.045  14.190  0.00  0.00    +0.000 A 
ENDBRANCH  22  23
ENDBRANCH  21  22
ENDBRANCH  20  21
ENDBRANCH  19  20
ENDBRANCH   4  19
TORSDOF 7
ENDMDL
MODEL 5
REMARK VINA RESULT:      -7.7      0.156      1.277
REMARK  Name = 
REMARK  7 active torsions:
REMARK  status: ('A' for Active; 'I' for Inactive)
REMARK    1  A    between atoms: C_5  and  C_6
REMARK    2  A    between atoms: N_9  and  C_10
REMARK    3  A    between atoms: C_10  and  C_11
REMARK    4  A    between atoms: C_11  and  C_12
REMARK    5  A    between atoms: C_12  and  S_13
REMARK    6  A    between atoms: S_13  and  C_14
REMARK    7  A    between atoms: C_20  and  C_21
REMARK                            x       y       z     vdW  Elec       q    Type
REMARK                         _______ _______ _______ _____ _____    ______ ____
ROOT
ATOM      1  C   UNL     1       2.425   7.578  18.825  0.00  0.00    +0.000 A 
ATOM      2  N   UNL     1       3.071   8.272  17.829  0.00  0.00    +0.000 NA
ATOM      3  C   UNL     1       3.819   7.390  17.219  0.00  0.00    +0.000 A 
ATOM      4  N   UNL     1       3.683   6.141  17.758  0.00  0.00    +0.000 N 
ATOM      5  C   UNL     1       2.748   6.214  18.793  0.00  0.00    +0.000 A 
ENDROOT
BRANCH   1  10
ATOM      6  F   UNL     1      -0.938  10.298  22.369  0.00  0.00    +0.000 F 
ATOM      7  C   UNL     1      -0.154   9.626  21.514  0.00  0.00    +0.000 A 
ATOM      8  C   UNL     1       0.634   8.580  21.974  0.00  0.00    +0.000 A 
ATOM      9  C   UNL     1       1.466   7.907  21.086  0.00  0.00    +0.000 A 
ATOM     10  C   UNL     1       1.513   8.273  19.729  0.00  0.00    +0.000 A 
ATOM     11  C   UNL     1       0.666   9.297  19.277  0.00  0.00    +0.000 A 
ATOM     12  C   UNL     1      -0.145   9.992  20.174  0.00  0.00    +0.000 A 
ENDBRANCH   1  10
BRANCH   5  13
ATOM     13  C   UNL     1       2.236   5.067  19.582  0.00  0.00    +0.000 A 
ATOM     14  C   UNL     1       2.625   4.827  20.904  0.00  0.00    +0.000 A 
ATOM     15  C   UNL     1       2.086   3.750  21.592  0.00  0.00    +0.000 A 
ATOM     16  N   UNL     1       1.146   2.933  21.087  0.00  0.00    +0.000 NA
ATOM     17  C   UNL     1       0.753   3.185  19.825  0.00  0.00    +0.000 A 
ATOM     18  C   UNL     1       1.290   4.193  19.035  0.00  0.00    +0.000 A 
ENDBRANCH   5  13
BRANCH   4  19
ATOM     19  C   UNL     1       4.390   4.954  17.306  0.00  0.00    +0.000 C 
BRANCH  19  20
ATOM     20  C   UNL     1       5.633   4.536  18.091  0.00  0.00    +0.000 C 
BRANCH  20  21
ATOM     21  C   UNL     1       6.796   4.245  17.146  0.00  0.00    +0.000 C 
BRANCH  21  22
ATOM     22  S   UNL     1       7.056   5.703  16.084  0.00  0.00    +0.000 S 
BRANCH  22  23
ATOM     23  C   UNL     1       6.906   4.937  14.485  0.00  0.00    +0.000 A 
ATOM     24  C   UNL     1       5.978   3.915  14.258  0.00  0.00    +0.000 A 
ATOM     25  C   UNL     1       5.870   3.333  12.993  0.00  0.00    +0.000 A 
ATOM     26  C   UNL     1       6.684   3.774  11.950  0.00  0.00    +0.000 A 
ATOM     27  C   UNL     1       7.599   4.804  12.168  0.00  0.00    +0.000 A 
ATOM     28  C   UNL     1       7.706   5.387  13.432  0.00  0.00    +0.000 A 
ENDBRANCH  22  23
ENDBRANCH  21  22
ENDBRANCH  20  21
ENDBRANCH  19  20
ENDBRANCH   4  19
TORSDOF 7
ENDMDL
MODEL 6
REMARK VINA RESULT:      -7.7      3.495      7.809
REMARK  Name = 
REMARK  7 active torsions:
REMARK  status: ('A' for Active; 'I' for Inactive)
REMARK    1  A    between atoms: C_5  and  C_6
REMARK    2  A    between atoms: N_9  and  C_10
REMARK    3  A    between atoms: C_10  and  C_11
REMARK    4  A    between atoms: C_11  and  C_12
REMARK    5  A    between atoms: C_12  and  S_13
REMARK    6  A    between atoms: S_13  and  C_14
REMARK    7  A    between atoms: C_20  and  C_21
REMARK                            x       y       z     vdW  Elec       q    Type
REMARK                         _______ _______ _______ _____ _____    ______ ____
ROOT
ATOM      1  C   UNL     1       3.213   6.735  18.155  0.00  0.00    +0.000 A 
ATOM      2  N   UNL     1       3.244   8.098  17.978  0.00  0.00    +0.000 NA
ATOM      3  C   UNL     1       2.411   8.583  18.862  0.00  0.00    +0.000 A 
ATOM      4  N   UNL     1       1.844   7.602  19.626  0.00  0.00    +0.000 N 
ATOM      5  C   UNL     1       2.373   6.374  19.218  0.00  0.00    +0.000 A 
ENDROOT
BRANCH   1  10
ATOM      6  F   UNL     1       6.171   3.347  14.832  0.00  0.00    +0.000 F 
ATOM      7  C   UNL     1       5.485   4.161  15.648  0.00  0.00    +0.000 A 
ATOM      8  C   UNL     1       4.698   3.624  16.657  0.00  0.00    +0.000 A 
ATOM      9  C   UNL     1       3.967   4.473  17.481  0.00  0.00    +0.000 A 
ATOM     10  C   UNL     1       4.021   5.867  17.304  0.00  0.00    +0.000 A 
ATOM     11  C   UNL     1       4.867   6.388  16.313  0.00  0.00    +0.000 A 
ATOM     12  C   UNL     1       5.576   5.535  15.467  0.00  0.00    +0.000 A 
ENDBRANCH   1  10
BRANCH   5  13
ATOM     13  C   UNL     1       2.097   5.060  19.847  0.00  0.00    +0.000 A 
ATOM     14  C   UNL     1       2.641   4.684  21.079  0.00  0.00    +0.000 A 
ATOM     15  C   UNL     1       2.319   3.449  21.624  0.00  0.00    +0.000 A 
ATOM     16  N   UNL     1       1.450   2.589  21.066  0.00  0.00    +0.000 NA
ATOM     17  C   UNL     1       0.906   2.967  19.895  0.00  0.00    +0.000 A 
ATOM     18  C   UNL     1       1.225   4.149  19.240  0.00  0.00    +0.000 A 
ENDBRANCH   5  13
BRANCH   4  19
ATOM     19  C   UNL     1       0.872   7.822  20.684  0.00  0.00    +0.000 C 
BRANCH  19  20
ATOM     20  C   UNL     1       0.953   9.146  21.444  0.00  0.00    +0.000 C 
BRANCH  20  21
ATOM     21  C   UNL     1      -0.359   9.917  21.326  0.00  0.00    +0.000 C 
BRANCH  21  22
ATOM     22  S   UNL     1      -0.081  11.372  20.265  0.00  0.00    +0.000 S 
BRANCH  22  23
ATOM     23  C   UNL     1      -1.311  11.068  19.014  0.00  0.00    +0.000 A 
ATOM     24  C   UNL     1      -2.528  11.757  19.015  0.00  0.00    +0.000 A 
ATOM     25  C   UNL     1      -3.475  11.510  18.021  0.00  0.00    +0.000 A 
ATOM     26  C   UNL     1      -3.208  10.578  17.018  0.00  0.00    +0.000 A 
ATOM     27  C   UNL     1      -1.989   9.901  17.004  0.00  0.00    +0.000 A 
ATOM     28  C   UNL     1      -1.041  10.149  17.998  0.00  0.00    +0.000 A 
ENDBRANCH  22  23
ENDBRANCH  21  22
ENDBRANCH  20  21
ENDBRANCH  19  20
ENDBRANCH   4  19
TORSDOF 7
ENDMDL
MODEL 7
REMARK VINA RESULT:      -7.6      1.221      1.712
REMARK  Name = 
REMARK  7 active torsions:
REMARK  status: ('A' for Active; 'I' for Inactive)
REMARK    1  A    between atoms: C_5  and  C_6
REMARK    2  A    between atoms: N_9  and  C_10
REMARK    3  A    between atoms: C_10  and  C_11
REMARK    4  A    between atoms: C_11  and  C_12
REMARK    5  A    between atoms: C_12  and  S_13
REMARK    6  A    between atoms: S_13  and  C_14
REMARK    7  A    between atoms: C_20  and  C_21
REMARK                            x       y       z     vdW  Elec       q    Type
REMARK                         _______ _______ _______ _____ _____    ______ ____
ROOT
ATOM      1  C   UNL     1       3.137   7.119  18.160  0.00  0.00    +0.000 A 
ATOM      2  N   UNL     1       4.027   7.606  17.232  0.00  0.00    +0.000 NA
ATOM      3  C   UNL     1       4.742   6.576  16.862  0.00  0.00    +0.000 A 
ATOM      4  N   UNL     1       4.353   5.427  17.492  0.00  0.00    +0.000 N 
ATOM      5  C   UNL     1       3.275   5.734  18.327  0.00  0.00    +0.000 A 
ENDROOT
BRANCH   1  10
ATOM      6  F   UNL     1      -0.621  10.508  20.541  0.00  0.00    +0.000 F 
ATOM      7  C   UNL     1       0.302   9.715  19.977  0.00  0.00    +0.000 A 
ATOM      8  C   UNL     1       0.617   9.868  18.634  0.00  0.00    +0.000 A 
ATOM      9  C   UNL     1       1.554   9.023  18.050  0.00  0.00    +0.000 A 
ATOM     10  C   UNL     1       2.187   8.020  18.806  0.00  0.00    +0.000 A 
ATOM     11  C   UNL     1       1.892   7.922  20.175  0.00  0.00    +0.000 A 
ATOM     12  C   UNL     1       0.929   8.749  20.753  0.00  0.00    +0.000 A 
ENDBRANCH   1  10
BRANCH   5  13
ATOM     13  C   UNL     1       2.491   4.759  19.123  0.00  0.00    +0.000 A 
ATOM     14  C   UNL     1       1.501   3.949  18.560  0.00  0.00    +0.000 A 
ATOM     15  C   UNL     1       0.823   3.038  19.358  0.00  0.00    +0.000 A 
ATOM     16  N   UNL     1       1.100   2.830  20.657  0.00  0.00    +0.000 NA
ATOM     17  C   UNL     1       2.075   3.592  21.188  0.00  0.00    +0.000 A 
ATOM     18  C   UNL     1       2.753   4.578  20.486  0.00  0.00    +0.000 A 
ENDBRANCH   5  13
BRANCH   4  19
ATOM     19  C   UNL     1       4.961   4.121  17.300  0.00  0.00    +0.000 C 
BRANCH  19  20
ATOM     20  C   UNL     1       5.254   3.690  15.863  0.00  0.00    +0.000 C 
BRANCH  20  21
ATOM     21  C   UNL     1       6.721   3.930  15.517  0.00  0.00    +0.000 C 
BRANCH  21  22
ATOM     22  S   UNL     1       6.799   4.969  14.021  0.00  0.00    +0.000 S 
BRANCH  22  23
ATOM     23  C   UNL     1       6.308   3.770  12.800  0.00  0.00    +0.000 A 
ATOM     24  C   UNL     1       7.241   2.902  12.225  0.00  0.00    +0.000 A 
ATOM     25  C   UNL     1       6.834   1.963  11.275  0.00  0.00    +0.000 A 
ATOM     26  C   UNL     1       5.493   1.885  10.901  0.00  0.00    +0.000 A 
ATOM     27  C   UNL     1       4.557   2.738  11.484  0.00  0.00    +0.000 A 
ATOM     28  C   UNL     1       4.963   3.676  12.435  0.00  0.00    +0.000 A 
ENDBRANCH  22  23
ENDBRANCH  21  22
ENDBRANCH  20  21
ENDBRANCH  19  20
ENDBRANCH   4  19
TORSDOF 7
ENDMDL
MODEL 8
REMARK VINA RESULT:      -7.5      1.033      1.604
REMARK  Name = 
REMARK  7 active torsions:
REMARK  status: ('A' for Active; 'I' for Inactive)
REMARK    1  A    between atoms: C_5  and  C_6
REMARK    2  A    between atoms: N_9  and  C_10
REMARK    3  A    between atoms: C_10  and  C_11
REMARK    4  A    between atoms: C_11  and  C_12
REMARK    5  A    between atoms: C_12  and  S_13
REMARK    6  A    between atoms: S_13  and  C_14
REMARK    7  A    between atoms: C_20  and  C_21
REMARK                            x       y       z     vdW  Elec       q    Type
REMARK                         _______ _______ _______ _____ _____    ______ ____
ROOT
ATOM      1  C   UNL     1       2.826   7.228  18.570  0.00  0.00    +0.000 A 
ATOM      2  N   UNL     1       3.588   7.820  17.590  0.00  0.00    +0.000 NA
ATOM      3  C   UNL     1       4.328   6.861  17.099  0.00  0.00    +0.000 A 
ATOM      4  N   UNL     1       4.078   5.659  17.699  0.00  0.00    +0.000 N 
ATOM      5  C   UNL     1       3.070   5.850  18.648  0.00  0.00    +0.000 A 
ENDROOT
BRANCH   1  10
ATOM      6  F   UNL     1      -0.887  10.249  21.460  0.00  0.00    +0.000 F 
ATOM      7  C   UNL     1       0.025   9.542  20.778  0.00  0.00    +0.000 A 
ATOM      8  C   UNL     1       0.340   9.898  19.473  0.00  0.00    +0.000 A 
ATOM      9  C   UNL     1       1.266   9.143  18.762  0.00  0.00    +0.000 A 
ATOM     10  C   UNL     1       1.888   8.028  19.352  0.00  0.00    +0.000 A 
ATOM     11  C   UNL     1       1.595   7.723  20.690  0.00  0.00    +0.000 A 
ATOM     12  C   UNL     1       0.643   8.462  21.393  0.00  0.00    +0.000 A 
ENDBRANCH   1  10
BRANCH   5  13
ATOM     13  C   UNL     1       2.432   4.785  19.460  0.00  0.00    +0.000 A 
ATOM     14  C   UNL     1       2.769   4.552  20.796  0.00  0.00    +0.000 A 
ATOM     15  C   UNL     1       2.112   3.556  21.506  0.00  0.00    +0.000 A 
ATOM     16  N   UNL     1       1.105   2.820  21.005  0.00  0.00    +0.000 NA
ATOM     17  C   UNL     1       0.763   3.068  19.727  0.00  0.00    +0.000 A 
ATOM     18  C   UNL     1       1.413   3.992  18.919  0.00  0.00    +0.000 A 
ENDBRANCH   5  13
BRANCH   4  19
ATOM     19  C   UNL     1       4.747   4.409  17.379  0.00  0.00    +0.000 C 
BRANCH  19  20
ATOM     20  C   UNL     1       4.939   4.076  15.900  0.00  0.00    +0.000 C 
BRANCH  20  21
ATOM     21  C   UNL     1       6.422   3.934  15.567  0.00  0.00    +0.000 C 
BRANCH  21  22
ATOM     22  S   UNL     1       6.776   4.921  14.076  0.00  0.00    +0.000 S 
BRANCH  22  23
ATOM     23  C   UNL     1       6.368   3.724  12.823  0.00  0.00    +0.000 A 
ATOM     24  C   UNL     1       5.038   3.473  12.470  0.00  0.00    +0.000 A 
ATOM     25  C   UNL     1       4.740   2.537  11.478  0.00  0.00    +0.000 A 
ATOM     26  C   UNL     1       5.769   1.852  10.833  0.00  0.00    +0.000 A 
ATOM     27  C   UNL     1       7.097   2.111  11.170  0.00  0.00    +0.000 A 
ATOM     28  C   UNL     1       7.396   3.049  12.160  0.00  0.00    +0.000 A 
ENDBRANCH  22  23
ENDBRANCH  21  22
ENDBRANCH  20  21
ENDBRANCH  19  20
ENDBRANCH   4  19
TORSDOF 7
ENDMDL
MODEL 9
REMARK VINA RESULT:      -7.3      3.561      7.753
REMARK  Name = 
REMARK  7 active torsions:
REMARK  status: ('A' for Active; 'I' for Inactive)
REMARK    1  A    between atoms: C_5  and  C_6
REMARK    2  A    between atoms: N_9  and  C_10
REMARK    3  A    between atoms: C_10  and  C_11
REMARK    4  A    between atoms: C_11  and  C_12
REMARK    5  A    between atoms: C_12  and  S_13
REMARK    6  A    between atoms: S_13  and  C_14
REMARK    7  A    between atoms: C_20  and  C_21
REMARK                            x       y       z     vdW  Elec       q    Type
REMARK                         _______ _______ _______ _____ _____    ______ ____
ROOT
ATOM      1  C   UNL     1       3.183   6.661  18.129  0.00  0.00    +0.000 A 
ATOM      2  N   UNL     1       3.095   8.012  17.885  0.00  0.00    +0.000 NA
ATOM      3  C   UNL     1       2.337   8.488  18.838  0.00  0.00    +0.000 A 
ATOM      4  N   UNL     1       1.934   7.515  19.709  0.00  0.00    +0.000 N 
ATOM      5  C   UNL     1       2.499   6.305  19.299  0.00  0.00    +0.000 A 
ENDROOT
BRANCH   1  10
ATOM      6  F   UNL     1       6.252   3.413  14.767  0.00  0.00    +0.000 F 
ATOM      7  C   UNL     1       5.495   4.195  15.551  0.00  0.00    +0.000 A 
ATOM      8  C   UNL     1       5.700   5.568  15.560  0.00  0.00    +0.000 A 
ATOM      9  C   UNL     1       4.931   6.369  16.397  0.00  0.00    +0.000 A 
ATOM     10  C   UNL     1       3.948   5.803  17.230  0.00  0.00    +0.000 A 
ATOM     11  C   UNL     1       3.723   4.420  17.161  0.00  0.00    +0.000 A 
ATOM     12  C   UNL     1       4.516   3.613  16.344  0.00  0.00    +0.000 A 
ENDBRANCH   1  10
BRANCH   5  13
ATOM     13  C   UNL     1       2.393   5.012  20.018  0.00  0.00    +0.000 A 
ATOM     14  C   UNL     1       1.165   4.431  20.349  0.00  0.00    +0.000 A 
ATOM     15  C   UNL     1       1.138   3.205  20.999  0.00  0.00    +0.000 A 
ATOM     16  N   UNL     1       2.237   2.487  21.287  0.00  0.00    +0.000 NA
ATOM     17  C   UNL     1       3.416   3.036  20.940  0.00  0.00    +0.000 A 
ATOM     18  C   UNL     1       3.543   4.289  20.356  0.00  0.00    +0.000 A 
ENDBRANCH   5  13
BRANCH   4  19
ATOM     19  C   UNL     1       1.077   7.730  20.864  0.00  0.00    +0.000 C 
BRANCH  19  20
ATOM     20  C   UNL     1       1.011   9.146  21.433  0.00  0.00    +0.000 C 
BRANCH  20  21
ATOM     21  C   UNL     1      -0.430   9.651  21.458  0.00  0.00    +0.000 C 
BRANCH  21  22
ATOM     22  S   UNL     1      -0.460  11.346  20.790  0.00  0.00    +0.000 S 
BRANCH  22  23
ATOM     23  C   UNL     1      -1.407  11.066  19.309  0.00  0.00    +0.000 A 
ATOM     24  C   UNL     1      -2.549  11.823  19.027  0.00  0.00    +0.000 A 
ATOM     25  C   UNL     1      -3.273  11.593  17.856  0.00  0.00    +0.000 A 
ATOM     26  C   UNL     1      -2.855  10.610  16.959  0.00  0.00    +0.000 A 
ATOM     27  C   UNL     1      -1.707   9.865  17.227  0.00  0.00    +0.000 A 
ATOM     28  C   UNL     1      -0.983  10.095  18.398  0.00  0.00    +0.000 A 
ENDBRANCH  22  23
ENDBRANCH  21  22
ENDBRANCH  20  21
ENDBRANCH  19  20
ENDBRANCH   4  19
TORSDOF 7
ENDMDL
