MODEL 1
REMARK VINA RESULT:      -8.0      0.000      0.000
REMARK  Name = 
REMARK  6 active torsions:
REMARK  status: ('A' for Active; 'I' for Inactive)
REMARK    1  A    between atoms: C_1  and  C_2
REMARK    2  A    between atoms: C_4  and  C_5
REMARK    3  A    between atoms: N_7  and  C_8
REMARK    4  A    between atoms: C_11  and  C_12
REMARK    5  A    between atoms: C_15  and  C_16
REMARK    6  A    between atoms: N_26  and  C_27
REMARK                            x       y       z     vdW  Elec       q    Type
REMARK                         _______ _______ _______ _____ _____    ______ ____
ROOT
ATOM      1  C   UNL     1       8.512   9.848  18.199  0.00  0.00    +0.000 A 
ATOM      2  C   UNL     1       9.249   9.614  19.337  0.00  0.00    +0.000 A 
ATOM      3  S   UNL     1       9.929  11.049  19.915  0.00  0.00    +0.000 S 
ATOM      4  C   UNL     1       9.187  11.974  18.578  0.00  0.00    +0.000 A 
ATOM      5  N   UNL     1       8.423  11.209  17.808  0.00  0.00    +0.000 NA
ENDROOT
BRANCH   4   6
ATOM      6  C   UNL     1       9.468  13.516  18.646  0.00  0.00    +0.000 C 
ATOM      7  C   UNL     1       8.032  14.139  19.017  0.00  0.00    +0.000 C 
ATOM      8  O   UNL     1       7.834  14.565  20.394  0.00  0.00    +0.000 OA
ATOM      9  C   UNL     1       8.829  15.495  20.821  0.00  0.00    +0.000 C 
ATOM     10  C   UNL     1       8.467  16.218  22.109  0.00  0.00    +0.000 C 
ATOM     11  C   UNL     1      10.127  14.704  20.925  0.00  0.00    +0.000 C 
ATOM     12  C   UNL     1      10.498  14.396  19.482  0.00  0.00    +0.000 C 
ATOM     13  C   UNL     1      12.018  14.475  19.205  0.00  0.00    +0.000 C 
ATOM     14  S   UNL     1      12.333  14.694  17.398  0.00  0.00    +0.000 S 
ATOM     15  C   UNL     1      11.124  13.480  17.033  0.00  0.00    +0.000 C 
ATOM     16  N   UNL     1      11.730  12.260  17.115  0.00  0.00    +0.000 N 
ATOM     17  N   UNL     1       9.912  13.877  17.246  0.00  0.00    +0.000 NA
ATOM     18  H   UNL     1      12.711  12.342  17.370  0.00  0.00    +0.000 HD
ATOM     19  H   UNL     1      11.274  11.557  17.688  0.00  0.00    +0.000 HD
ENDBRANCH   4   6
BRANCH   1  22
ATOM     20  C   UNL     1       7.926   7.508  18.010  0.00  0.00    +0.000 C 
ATOM     21  O   UNL     1       8.482   7.093  19.010  0.00  0.00    +0.000 OA
ATOM     22  N   UNL     1       7.924   8.785  17.552  0.00  0.00    +0.000 N 
ATOM     23  H   UNL     1       7.343   8.958  16.738  0.00  0.00    +0.000 HD
BRANCH  20  27
ATOM     24  C   UNL     1       4.403   4.144  16.574  0.00  0.00    +0.000 C 
ATOM     25  C   UNL     1       5.540   5.091  16.624  0.00  0.00    +0.000 A 
ATOM     26  C   UNL     1       5.910   5.963  17.614  0.00  0.00    +0.000 A 
ATOM     27  C   UNL     1       7.125   6.559  17.180  0.00  0.00    +0.000 A 
ATOM     28  N   UNL     1       7.451   6.138  15.937  0.00  0.00    +0.000 NA
ATOM     29  N   UNL     1       6.487   5.229  15.641  0.00  0.00    +0.000 N 
ATOM     30  C   UNL     1       6.543   4.465  14.411  0.00  0.00    +0.000 C 
ENDBRANCH  20  27
ENDBRANCH   1  22
TORSDOF 3
ENDMDL
MODEL 2
REMARK VINA RESULT:      -7.9      3.002      9.144
REMARK  Name = 
REMARK  6 active torsions:
REMARK  status: ('A' for Active; 'I' for Inactive)
REMARK    1  A    between atoms: C_1  and  C_2
REMARK    2  A    between atoms: C_4  and  C_5
REMARK    3  A    between atoms: N_7  and  C_8
REMARK    4  A    between atoms: C_11  and  C_12
REMARK    5  A    between atoms: C_15  and  C_16
REMARK    6  A    between atoms: N_26  and  C_27
REMARK                            x       y       z     vdW  Elec       q    Type
REMARK                         _______ _______ _______ _____ _____    ______ ____
ROOT
ATOM      1  C   UNL     1       8.000   8.178  18.068  0.00  0.00    +0.000 A 
ATOM      2  C   UNL     1       8.607   7.483  19.089  0.00  0.00    +0.000 A 
ATOM      3  S   UNL     1       7.966   5.924  19.215  0.00  0.00    +0.000 S 
ATOM      4  C   UNL     1       6.859   6.237  17.846  0.00  0.00    +0.000 A 
ATOM      5  N   UNL     1       7.050   7.439  17.316  0.00  0.00    +0.000 NA
ENDROOT
BRANCH   4   6
ATOM      6  C   UNL     1       5.977   5.000  17.453  0.00  0.00    +0.000 C 
ATOM      7  C   UNL     1       5.511   4.410  18.874  0.00  0.00    +0.000 C 
ATOM      8  O   UNL     1       4.144   4.690  19.288  0.00  0.00    +0.000 OA
ATOM      9  C   UNL     1       3.188   4.272  18.314  0.00  0.00    +0.000 C 
ATOM     10  C   UNL     1       1.763   4.227  18.847  0.00  0.00    +0.000 C 
ATOM     11  C   UNL     1       3.353   5.218  17.130  0.00  0.00    +0.000 C 
ATOM     12  C   UNL     1       4.695   4.833  16.524  0.00  0.00    +0.000 C 
ATOM     13  C   UNL     1       4.712   4.885  14.979  0.00  0.00    +0.000 C 
ATOM     14  S   UNL     1       6.099   3.862  14.315  0.00  0.00    +0.000 S 
ATOM     15  C   UNL     1       7.174   4.516  15.535  0.00  0.00    +0.000 C 
ATOM     16  N   UNL     1       7.659   5.700  15.061  0.00  0.00    +0.000 N 
ATOM     17  N   UNL     1       6.931   4.078  16.727  0.00  0.00    +0.000 NA
ATOM     18  H   UNL     1       7.285   5.921  14.141  0.00  0.00    +0.000 HD
ATOM     19  H   UNL     1       7.586   6.506  15.674  0.00  0.00    +0.000 HD
ENDBRANCH   4   6
BRANCH   1  22
ATOM     20  C   UNL     1       8.996  10.276  18.750  0.00  0.00    +0.000 C 
ATOM     21  O   UNL     1       9.301   9.978  19.890  0.00  0.00    +0.000 OA
ATOM     22  N   UNL     1       8.355   9.490  17.849  0.00  0.00    +0.000 N 
ATOM     23  H   UNL     1       8.248   9.884  16.920  0.00  0.00    +0.000 HD
BRANCH  20  27
ATOM     24  C   UNL     1      11.653  14.110  16.743  0.00  0.00    +0.000 C 
ATOM     25  C   UNL     1      10.597  13.257  17.334  0.00  0.00    +0.000 A 
ATOM     26  C   UNL     1      10.589  11.905  17.560  0.00  0.00    +0.000 A 
ATOM     27  C   UNL     1       9.366  11.626  18.230  0.00  0.00    +0.000 A 
ATOM     28  N   UNL     1       8.610  12.742  18.339  0.00  0.00    +0.000 NA
ATOM     29  N   UNL     1       9.396  13.716  17.813  0.00  0.00    +0.000 N 
ATOM     30  C   UNL     1       8.973  15.102  17.839  0.00  0.00    +0.000 C 
ENDBRANCH  20  27
ENDBRANCH   1  22
TORSDOF 3
ENDMDL
MODEL 3
REMARK VINA RESULT:      -7.4      7.506      8.894
REMARK  Name = 
REMARK  6 active torsions:
REMARK  status: ('A' for Active; 'I' for Inactive)
REMARK    1  A    between atoms: C_1  and  C_2
REMARK    2  A    between atoms: C_4  and  C_5
REMARK    3  A    between atoms: N_7  and  C_8
REMARK    4  A    between atoms: C_11  and  C_12
REMARK    5  A    between atoms: C_15  and  C_16
REMARK    6  A    between atoms: N_26  and  C_27
REMARK                            x       y       z     vdW  Elec       q    Type
REMARK                         _______ _______ _______ _____ _____    ______ ____
ROOT
ATOM      1  C   UNL     1       0.758   9.872  19.574  0.00  0.00    +0.000 A 
ATOM      2  C   UNL     1      -0.094  10.198  18.544  0.00  0.00    +0.000 A 
ATOM      3  S   UNL     1      -0.508  11.836  18.605  0.00  0.00    +0.000 S 
ATOM      4  C   UNL     1       0.506  12.068  20.059  0.00  0.00    +0.000 A 
ATOM      5  N   UNL     1       1.153  10.959  20.397  0.00  0.00    +0.000 NA
ENDROOT
BRANCH   4   6
ATOM      6  C   UNL     1       0.543  13.551  20.572  0.00  0.00    +0.000 C 
ATOM      7  C   UNL     1       1.986  14.074  20.092  0.00  0.00    +0.000 C 
ATOM      8  O   UNL     1       2.017  14.946  18.927  0.00  0.00    +0.000 OA
ATOM      9  C   UNL     1       1.176  16.088  19.084  0.00  0.00    +0.000 C 
ATOM     10  C   UNL     1       1.442  17.179  18.058  0.00  0.00    +0.000 C 
ATOM     11  C   UNL     1      -0.255  15.566  19.041  0.00  0.00    +0.000 C 
ATOM     12  C   UNL     1      -0.417  14.801  20.347  0.00  0.00    +0.000 C 
ATOM     13  C   UNL     1      -1.812  14.969  20.992  0.00  0.00    +0.000 C 
ATOM     14  S   UNL     1      -1.746  14.551  22.790  0.00  0.00    +0.000 S 
ATOM     15  C   UNL     1      -0.768  13.141  22.432  0.00  0.00    +0.000 C 
ATOM     16  N   UNL     1      -1.618  12.125  22.102  0.00  0.00    +0.000 N 
ATOM     17  N   UNL     1       0.442  13.428  22.076  0.00  0.00    +0.000 NA
ATOM     18  H   UNL     1      -2.590  12.422  22.132  0.00  0.00    +0.000 HD
ATOM     19  H   UNL     1      -1.427  11.628  21.237  0.00  0.00    +0.000 HD
ENDBRANCH   4   6
BRANCH   1  22
ATOM     20  C   UNL     1       2.137   7.973  18.985  0.00  0.00    +0.000 C 
ATOM     21  O   UNL     1       2.757   8.469  18.062  0.00  0.00    +0.000 OA
ATOM     22  N   UNL     1       1.162   8.565  19.719  0.00  0.00    +0.000 N 
ATOM     23  H   UNL     1       0.807   8.019  20.499  0.00  0.00    +0.000 HD
BRANCH  20  27
ATOM     24  C   UNL     1       2.225   3.628  21.611  0.00  0.00    +0.000 C 
ATOM     25  C   UNL     1       2.442   4.701  20.615  0.00  0.00    +0.000 A 
ATOM     26  C   UNL     1       1.795   5.900  20.466  0.00  0.00    +0.000 A 
ATOM     27  C   UNL     1       2.464   6.580  19.412  0.00  0.00    +0.000 A 
ATOM     28  N   UNL     1       3.430   5.802  18.873  0.00  0.00    +0.000 NA
ATOM     29  N   UNL     1       3.409   4.683  19.643  0.00  0.00    +0.000 N 
ATOM     30  C   UNL     1       4.385   3.630  19.443  0.00  0.00    +0.000 C 
ENDBRANCH  20  27
ENDBRANCH   1  22
TORSDOF 3
ENDMDL
MODEL 4
REMARK VINA RESULT:      -7.4      7.498      8.877
REMARK  Name = 
REMARK  6 active torsions:
REMARK  status: ('A' for Active; 'I' for Inactive)
REMARK    1  A    between atoms: C_1  and  C_2
REMARK    2  A    between atoms: C_4  and  C_5
REMARK    3  A    between atoms: N_7  and  C_8
REMARK    4  A    between atoms: C_11  and  C_12
REMARK    5  A    between atoms: C_15  and  C_16
REMARK    6  A    between atoms: N_26  and  C_27
REMARK                            x       y       z     vdW  Elec       q    Type
REMARK                         _______ _______ _______ _____ _____    ______ ____
ROOT
ATOM      1  C   UNL     1       0.725  10.308  19.259  0.00  0.00    +0.000 A 
ATOM      2  C   UNL     1      -0.339  10.598  18.437  0.00  0.00    +0.000 A 
ATOM      3  S   UNL     1      -0.812  12.211  18.617  0.00  0.00    +0.000 S 
ATOM      4  C   UNL     1       0.471  12.482  19.832  0.00  0.00    +0.000 A 
ATOM      5  N   UNL     1       1.229  11.405  20.004  0.00  0.00    +0.000 NA
ENDROOT
BRANCH   4   6
ATOM      6  C   UNL     1       0.540  13.959  20.358  0.00  0.00    +0.000 C 
ATOM      7  C   UNL     1       1.900  14.521  19.707  0.00  0.00    +0.000 C 
ATOM      8  O   UNL     1       1.765  15.406  18.560  0.00  0.00    +0.000 OA
ATOM      9  C   UNL     1       0.926  16.527  18.837  0.00  0.00    +0.000 C 
ATOM     10  C   UNL     1       1.038  17.636  17.802  0.00  0.00    +0.000 C 
ATOM     11  C   UNL     1      -0.487  15.972  18.968  0.00  0.00    +0.000 C 
ATOM     12  C   UNL     1      -0.466  15.190  20.273  0.00  0.00    +0.000 C 
ATOM     13  C   UNL     1      -1.772  15.318  21.091  0.00  0.00    +0.000 C 
ATOM     14  S   UNL     1      -1.471  14.881  22.860  0.00  0.00    +0.000 S 
ATOM     15  C   UNL     1      -0.516  13.498  22.361  0.00  0.00    +0.000 C 
ATOM     16  N   UNL     1      -1.379  12.467  22.127  0.00  0.00    +0.000 N 
ATOM     17  N   UNL     1       0.633  13.817  21.860  0.00  0.00    +0.000 NA
ATOM     18  H   UNL     1      -2.346  12.741  22.284  0.00  0.00    +0.000 HD
ATOM     19  H   UNL     1      -1.288  11.984  21.238  0.00  0.00    +0.000 HD
ENDBRANCH   4   6
BRANCH   1  22
ATOM     20  C   UNL     1       2.045   8.492  18.357  0.00  0.00    +0.000 C 
ATOM     21  O   UNL     1       2.433   9.030  17.336  0.00  0.00    +0.000 OA
ATOM     22  N   UNL     1       1.215   9.022  19.289  0.00  0.00    +0.000 N 
ATOM     23  H   UNL     1       1.058   8.450  20.113  0.00  0.00    +0.000 HD
BRANCH  20  27
ATOM     24  C   UNL     1       4.132   3.885  17.904  0.00  0.00    +0.000 C 
ATOM     25  C   UNL     1       3.465   5.110  18.400  0.00  0.00    +0.000 A 
ATOM     26  C   UNL     1       3.324   6.333  17.798  0.00  0.00    +0.000 A 
ATOM     27  C   UNL     1       2.522   7.113  18.676  0.00  0.00    +0.000 A 
ATOM     28  N   UNL     1       2.249   6.433  19.812  0.00  0.00    +0.000 NA
ATOM     29  N   UNL     1       2.810   5.214  19.600  0.00  0.00    +0.000 N 
ATOM     30  C   UNL     1       2.644   4.146  20.566  0.00  0.00    +0.000 C 
ENDBRANCH  20  27
ENDBRANCH   1  22
TORSDOF 3
ENDMDL
MODEL 5
REMARK VINA RESULT:      -7.3      8.788      9.878
REMARK  Name = 
REMARK  6 active torsions:
REMARK  status: ('A' for Active; 'I' for Inactive)
REMARK    1  A    between atoms: C_1  and  C_2
REMARK    2  A    between atoms: C_4  and  C_5
REMARK    3  A    between atoms: N_7  and  C_8
REMARK    4  A    between atoms: C_11  and  C_12
REMARK    5  A    between atoms: C_15  and  C_16
REMARK    6  A    between atoms: N_26  and  C_27
REMARK                            x       y       z     vdW  Elec       q    Type
REMARK                         _______ _______ _______ _____ _____    ______ ____
ROOT
ATOM      1  C   UNL     1      -0.247  10.162  19.082  0.00  0.00    +0.000 A 
ATOM      2  C   UNL     1      -1.125  10.419  18.054  0.00  0.00    +0.000 A 
ATOM      3  S   UNL     1      -2.139  11.715  18.444  0.00  0.00    +0.000 S 
ATOM      4  C   UNL     1      -1.340  11.901  20.032  0.00  0.00    +0.000 A 
ATOM      5  N   UNL     1      -0.328  11.055  20.182  0.00  0.00    +0.000 NA
ENDROOT
BRANCH   4   6
ATOM      6  C   UNL     1      -1.893  13.100  20.880  0.00  0.00    +0.000 C 
ATOM      7  C   UNL     1      -3.462  12.771  21.008  0.00  0.00    +0.000 C 
ATOM      8  O   UNL     1      -3.923  12.238  22.281  0.00  0.00    +0.000 OA
ATOM      9  C   UNL     1      -3.569  13.079  23.379  0.00  0.00    +0.000 C 
ATOM     10  C   UNL     1      -4.318  12.746  24.661  0.00  0.00    +0.000 C 
ATOM     11  C   UNL     1      -2.057  12.965  23.525  0.00  0.00    +0.000 C 
ATOM     12  C   UNL     1      -1.505  13.691  22.307  0.00  0.00    +0.000 C 
ATOM     13  C   UNL     1      -0.228  14.511  22.602  0.00  0.00    +0.000 C 
ATOM     14  S   UNL     1       0.026  15.800  21.305  0.00  0.00    +0.000 S 
ATOM     15  C   UNL     1      -0.370  14.632  20.059  0.00  0.00    +0.000 C 
ATOM     16  N   UNL     1       0.770  13.941  19.768  0.00  0.00    +0.000 N 
ATOM     17  N   UNL     1      -1.624  14.317  20.025  0.00  0.00    +0.000 NA
ATOM     18  H   UNL     1       1.556  14.253  20.334  0.00  0.00    +0.000 HD
ATOM     19  H   UNL     1       0.709  12.928  19.777  0.00  0.00    +0.000 HD
ENDBRANCH   4   6
BRANCH   1  22
ATOM     20  C   UNL     1       1.757   9.113  18.224  0.00  0.00    +0.000 C 
ATOM     21  O   UNL     1       2.150  10.015  17.507  0.00  0.00    +0.000 OA
ATOM     22  N   UNL     1       0.623   9.102  18.968  0.00  0.00    +0.000 N 
ATOM     23  H   UNL     1       0.496   8.289  19.562  0.00  0.00    +0.000 HD
BRANCH  20  27
ATOM     24  C   UNL     1       5.057   5.389  17.208  0.00  0.00    +0.000 C 
ATOM     25  C   UNL     1       4.059   6.283  17.838  0.00  0.00    +0.000 A 
ATOM     26  C   UNL     1       3.605   7.511  17.433  0.00  0.00    +0.000 A 
ATOM     27  C   UNL     1       2.587   7.879  18.354  0.00  0.00    +0.000 A 
ATOM     28  N   UNL     1       2.472   6.958  19.338  0.00  0.00    +0.000 NA
ATOM     29  N   UNL     1       3.356   5.992  18.979  0.00  0.00    +0.000 N 
ATOM     30  C   UNL     1       3.458   4.763  19.741  0.00  0.00    +0.000 C 
ENDBRANCH  20  27
ENDBRANCH   1  22
TORSDOF 3
ENDMDL
MODEL 6
REMARK VINA RESULT:      -7.3      7.990      9.061
REMARK  Name = 
REMARK  6 active torsions:
REMARK  status: ('A' for Active; 'I' for Inactive)
REMARK    1  A    between atoms: C_1  and  C_2
REMARK    2  A    between atoms: C_4  and  C_5
REMARK    3  A    between atoms: N_7  and  C_8
REMARK    4  A    between atoms: C_11  and  C_12
REMARK    5  A    between atoms: C_15  and  C_16
REMARK    6  A    between atoms: N_26  and  C_27
REMARK                            x       y       z     vdW  Elec       q    Type
REMARK                         _______ _______ _______ _____ _____    ______ ____
ROOT
ATOM      1  C   UNL     1       0.547  10.007  18.574  0.00  0.00    +0.000 A 
ATOM      2  C   UNL     1      -0.577   9.999  17.782  0.00  0.00    +0.000 A 
ATOM      3  S   UNL     1      -1.627  11.250  18.219  0.00  0.00    +0.000 S 
ATOM      4  C   UNL     1      -0.501  11.785  19.501  0.00  0.00    +0.000 A 
ATOM      5  N   UNL     1       0.618  11.071  19.511  0.00  0.00    +0.000 NA
ENDROOT
BRANCH   4   6
ATOM      6  C   UNL     1      -0.985  13.063  20.272  0.00  0.00    +0.000 C 
ATOM      7  C   UNL     1      -2.566  12.819  20.438  0.00  0.00    +0.000 C 
ATOM      8  O   UNL     1      -3.034  12.395  21.750  0.00  0.00    +0.000 OA
ATOM      9  C   UNL     1      -2.626  13.289  22.784  0.00  0.00    +0.000 C 
ATOM     10  C   UNL     1      -3.373  13.079  24.093  0.00  0.00    +0.000 C 
ATOM     11  C   UNL     1      -1.119  13.113  22.922  0.00  0.00    +0.000 C 
ATOM     12  C   UNL     1      -0.550  13.728  21.652  0.00  0.00    +0.000 C 
ATOM     13  C   UNL     1       0.768  14.504  21.878  0.00  0.00    +0.000 C 
ATOM     14  S   UNL     1       1.064  15.690  20.494  0.00  0.00    +0.000 S 
ATOM     15  C   UNL     1       0.597  14.462  19.334  0.00  0.00    +0.000 C 
ATOM     16  N   UNL     1       1.699  13.700  19.078  0.00  0.00    +0.000 N 
ATOM     17  N   UNL     1      -0.671  14.206  19.335  0.00  0.00    +0.000 NA
ATOM     18  H   UNL     1       2.506  14.010  19.613  0.00  0.00    +0.000 HD
ATOM     19  H   UNL     1       1.591  12.693  19.156  0.00  0.00    +0.000 HD
ENDBRANCH   4   6
BRANCH   1  22
ATOM     20  C   UNL     1       1.862   8.130  19.353  0.00  0.00    +0.000 C 
ATOM     21  O   UNL     1       1.468   8.088  20.504  0.00  0.00    +0.000 OA
ATOM     22  N   UNL     1       1.495   9.024  18.401  0.00  0.00    +0.000 N 
ATOM     23  H   UNL     1       1.875   8.858  17.474  0.00  0.00    +0.000 HD
BRANCH  20  27
ATOM     24  C   UNL     1       5.103   5.533  16.431  0.00  0.00    +0.000 C 
ATOM     25  C   UNL     1       4.248   6.016  17.539  0.00  0.00    +0.000 A 
ATOM     26  C   UNL     1       3.553   7.190  17.660  0.00  0.00    +0.000 A 
ATOM     27  C   UNL     1       2.830   7.096  18.881  0.00  0.00    +0.000 A 
ATOM     28  N   UNL     1       3.130   5.948  19.531  0.00  0.00    +0.000 NA
ATOM     29  N   UNL     1       3.969   5.305  18.679  0.00  0.00    +0.000 N 
ATOM     30  C   UNL     1       4.442   3.968  18.976  0.00  0.00    +0.000 C 
ENDBRANCH  20  27
ENDBRANCH   1  22
TORSDOF 3
ENDMDL
MODEL 7
REMARK VINA RESULT:      -7.3      7.950      9.095
REMARK  Name = 
REMARK  6 active torsions:
REMARK  status: ('A' for Active; 'I' for Inactive)
REMARK    1  A    between atoms: C_1  and  C_2
REMARK    2  A    between atoms: C_4  and  C_5
REMARK    3  A    between atoms: N_7  and  C_8
REMARK    4  A    between atoms: C_11  and  C_12
REMARK    5  A    between atoms: C_15  and  C_16
REMARK    6  A    between atoms: N_26  and  C_27
REMARK                            x       y       z     vdW  Elec       q    Type
REMARK                         _______ _______ _______ _____ _____    ______ ____
ROOT
ATOM      1  C   UNL     1       0.972   9.384  19.953  0.00  0.00    +0.000 A 
ATOM      2  C   UNL     1       0.778   9.570  21.302  0.00  0.00    +0.000 A 
ATOM      3  S   UNL     1      -0.100  10.986  21.590  0.00  0.00    +0.000 S 
ATOM      4  C   UNL     1      -0.198  11.317  19.836  0.00  0.00    +0.000 A 
ATOM      5  N   UNL     1       0.355  10.349  19.115  0.00  0.00    +0.000 NA
ENDROOT
BRANCH   4   6
ATOM      6  C   UNL     1      -1.024  12.604  19.483  0.00  0.00    +0.000 C 
ATOM      7  C   UNL     1      -2.471  12.020  19.093  0.00  0.00    +0.000 C 
ATOM      8  O   UNL     1      -3.526  12.156  20.086  0.00  0.00    +0.000 OA
ATOM      9  C   UNL     1      -3.706  13.509  20.502  0.00  0.00    +0.000 C 
ATOM     10  C   UNL     1      -5.005  13.740  21.260  0.00  0.00    +0.000 C 
ATOM     11  C   UNL     1      -2.469  13.867  21.315  0.00  0.00    +0.000 C 
ATOM     12  C   UNL     1      -1.349  13.940  20.286  0.00  0.00    +0.000 C 
ATOM     13  C   UNL     1      -0.335  15.075  20.556  0.00  0.00    +0.000 C 
ATOM     14  S   UNL     1       0.596  15.487  19.015  0.00  0.00    +0.000 S 
ATOM     15  C   UNL     1       0.793  13.780  18.671  0.00  0.00    +0.000 C 
ATOM     16  N   UNL     1       1.887  13.346  19.361  0.00  0.00    +0.000 N 
ATOM     17  N   UNL     1      -0.300  13.198  18.297  0.00  0.00    +0.000 NA
ATOM     18  H   UNL     1       2.312  14.094  19.905  0.00  0.00    +0.000 HD
ATOM     19  H   UNL     1       1.771  12.516  19.935  0.00  0.00    +0.000 HD
ENDBRANCH   4   6
BRANCH   1  22
ATOM     20  C   UNL     1       2.334   8.226  18.321  0.00  0.00    +0.000 C 
ATOM     21  O   UNL     1       2.284   9.043  17.420  0.00  0.00    +0.000 OA
ATOM     22  N   UNL     1       1.716   8.307  19.526  0.00  0.00    +0.000 N 
ATOM     23  H   UNL     1       1.932   7.562  20.182  0.00  0.00    +0.000 HD
BRANCH  20  27
ATOM     24  C   UNL     1       5.487   4.788  16.317  0.00  0.00    +0.000 C 
ATOM     25  C   UNL     1       4.569   5.543  17.198  0.00  0.00    +0.000 A 
ATOM     26  C   UNL     1       4.076   6.815  17.065  0.00  0.00    +0.000 A 
ATOM     27  C   UNL     1       3.169   7.001  18.144  0.00  0.00    +0.000 A 
ATOM     28  N   UNL     1       3.163   5.923  18.960  0.00  0.00    +0.000 NA
ATOM     29  N   UNL     1       3.999   5.048  18.344  0.00  0.00    +0.000 N 
ATOM     30  C   UNL     1       4.183   3.708  18.866  0.00  0.00    +0.000 C 
ENDBRANCH  20  27
ENDBRANCH   1  22
TORSDOF 3
ENDMDL
MODEL 8
REMARK VINA RESULT:      -7.3      7.120      8.537
REMARK  Name = 
REMARK  6 active torsions:
REMARK  status: ('A' for Active; 'I' for Inactive)
REMARK    1  A    between atoms: C_1  and  C_2
REMARK    2  A    between atoms: C_4  and  C_5
REMARK    3  A    between atoms: N_7  and  C_8
REMARK    4  A    between atoms: C_11  and  C_12
REMARK    5  A    between atoms: C_15  and  C_16
REMARK    6  A    between atoms: N_26  and  C_27
REMARK                            x       y       z     vdW  Elec       q    Type
REMARK                         _______ _______ _______ _____ _____    ______ ____
ROOT
ATOM      1  C   UNL     1       1.059   9.810  18.301  0.00  0.00    +0.000 A 
ATOM      2  C   UNL     1      -0.232  10.000  17.868  0.00  0.00    +0.000 A 
ATOM      3  S   UNL     1      -0.861  11.447  18.474  0.00  0.00    +0.000 S 
ATOM      4  C   UNL     1       0.672  11.790  19.327  0.00  0.00    +0.000 A 
ATOM      5  N   UNL     1       1.596  10.869  19.079  0.00  0.00    +0.000 NA
ENDROOT
BRANCH   4   6
ATOM      6  C   UNL     1       0.678  13.162  20.087  0.00  0.00    +0.000 C 
ATOM      7  C   UNL     1       1.950  13.925  19.465  0.00  0.00    +0.000 C 
ATOM      8  O   UNL     1       1.679  14.972  18.491  0.00  0.00    +0.000 OA
ATOM      9  C   UNL     1       0.788  15.965  18.998  0.00  0.00    +0.000 C 
ATOM     10  C   UNL     1       0.756  17.233  18.158  0.00  0.00    +0.000 C 
ATOM     11  C   UNL     1      -0.573  15.290  19.112  0.00  0.00    +0.000 C 
ATOM     12  C   UNL     1      -0.412  14.309  20.265  0.00  0.00    +0.000 C 
ATOM     13  C   UNL     1      -1.666  14.202  21.164  0.00  0.00    +0.000 C 
ATOM     14  S   UNL     1      -1.218  13.508  22.815  0.00  0.00    +0.000 S 
ATOM     15  C   UNL     1      -0.208  12.302  22.041  0.00  0.00    +0.000 C 
ATOM     16  N   UNL     1      -1.014  11.259  21.686  0.00  0.00    +0.000 N 
ATOM     17  N   UNL     1       0.880  12.785  21.537  0.00  0.00    +0.000 NA
ATOM     18  H   UNL     1      -1.985  11.429  21.939  0.00  0.00    +0.000 HD
ATOM     19  H   UNL     1      -0.952  10.936  20.725  0.00  0.00    +0.000 HD
ENDBRANCH   4   6
BRANCH   1  22
ATOM     20  C   UNL     1       2.138   7.710  18.830  0.00  0.00    +0.000 C 
ATOM     21  O   UNL     1       2.055   7.756  20.044  0.00  0.00    +0.000 OA
ATOM     22  N   UNL     1       1.720   8.655  17.951  0.00  0.00    +0.000 N 
ATOM     23  H   UNL     1       1.807   8.410  16.970  0.00  0.00    +0.000 HD
BRANCH  20  27
ATOM     24  C   UNL     1       2.941   2.891  17.448  0.00  0.00    +0.000 C 
ATOM     25  C   UNL     1       3.012   4.359  17.622  0.00  0.00    +0.000 A 
ATOM     26  C   UNL     1       2.125   5.212  18.224  0.00  0.00    +0.000 A 
ATOM     27  C   UNL     1       2.731   6.498  18.190  0.00  0.00    +0.000 A 
ATOM     28  N   UNL     1       3.905   6.460  17.520  0.00  0.00    +0.000 NA
ATOM     29  N   UNL     1       4.059   5.146  17.215  0.00  0.00    +0.000 N 
ATOM     30  C   UNL     1       5.269   4.673  16.571  0.00  0.00    +0.000 C 
ENDBRANCH  20  27
ENDBRANCH   1  22
TORSDOF 3
ENDMDL
MODEL 9
REMARK VINA RESULT:      -7.2      7.830      8.935
REMARK  Name = 
REMARK  6 active torsions:
REMARK  status: ('A' for Active; 'I' for Inactive)
REMARK    1  A    between atoms: C_1  and  C_2
REMARK    2  A    between atoms: C_4  and  C_5
REMARK    3  A    between atoms: N_7  and  C_8
REMARK    4  A    between atoms: C_11  and  C_12
REMARK    5  A    between atoms: C_15  and  C_16
REMARK    6  A    between atoms: N_26  and  C_27
REMARK                            x       y       z     vdW  Elec       q    Type
REMARK                         _______ _______ _______ _____ _____    ______ ____
ROOT
ATOM      1  C   UNL     1       0.987   9.381  19.833  0.00  0.00    +0.000 A 
ATOM      2  C   UNL     1       0.845   9.516  21.194  0.00  0.00    +0.000 A 
ATOM      3  S   UNL     1       0.019  10.942  21.570  0.00  0.00    +0.000 S 
ATOM      4  C   UNL     1      -0.131  11.348  19.836  0.00  0.00    +0.000 A 
ATOM      5  N   UNL     1       0.369  10.395  19.057  0.00  0.00    +0.000 NA
ENDROOT
BRANCH   4   6
ATOM      6  C   UNL     1      -0.932  12.670  19.564  0.00  0.00    +0.000 C 
ATOM      7  C   UNL     1      -2.420  12.144  19.255  0.00  0.00    +0.000 C 
ATOM      8  O   UNL     1      -3.405  12.292  20.315  0.00  0.00    +0.000 OA
ATOM      9  C   UNL     1      -3.511  13.640  20.771  0.00  0.00    +0.000 C 
ATOM     10  C   UNL     1      -4.750  13.896  21.616  0.00  0.00    +0.000 C 
ATOM     11  C   UNL     1      -2.213  13.937  21.511  0.00  0.00    +0.000 C 
ATOM     12  C   UNL     1      -1.159  13.996  20.415  0.00  0.00    +0.000 C 
ATOM     13  C   UNL     1      -0.090  15.090  20.643  0.00  0.00    +0.000 C 
ATOM     14  S   UNL     1       0.756  15.507  19.056  0.00  0.00    +0.000 S 
ATOM     15  C   UNL     1       0.870  13.803  18.663  0.00  0.00    +0.000 C 
ATOM     16  N   UNL     1       1.990  13.316  19.272  0.00  0.00    +0.000 N 
ATOM     17  N   UNL     1      -0.264  13.267  18.346  0.00  0.00    +0.000 NA
ATOM     18  H   UNL     1       2.474  14.036  19.804  0.00  0.00    +0.000 HD
ATOM     19  H   UNL     1       1.881  12.477  19.834  0.00  0.00    +0.000 HD
ENDBRANCH   4   6
BRANCH   1  22
ATOM     20  C   UNL     1       2.307   8.275  18.132  0.00  0.00    +0.000 C 
ATOM     21  O   UNL     1       2.300   9.152  17.288  0.00  0.00    +0.000 OA
ATOM     22  N   UNL     1       1.685   8.303  19.337  0.00  0.00    +0.000 N 
ATOM     23  H   UNL     1       1.863   7.506  19.941  0.00  0.00    +0.000 HD
BRANCH  20  27
ATOM     24  C   UNL     1       3.674   3.388  17.965  0.00  0.00    +0.000 C 
ATOM     25  C   UNL     1       3.613   4.860  17.832  0.00  0.00    +0.000 A 
ATOM     26  C   UNL     1       2.574   5.719  18.079  0.00  0.00    +0.000 A 
ATOM     27  C   UNL     1       3.088   7.029  17.875  0.00  0.00    +0.000 A 
ATOM     28  N   UNL     1       4.367   6.982  17.438  0.00  0.00    +0.000 NA
ATOM     29  N   UNL     1       4.663   5.656  17.450  0.00  0.00    +0.000 N 
ATOM     30  C   UNL     1       6.000   5.195  17.136  0.00  0.00    +0.000 C 
ENDBRANCH  20  27
ENDBRANCH   1  22
TORSDOF 3
ENDMDL
