MODEL 1
REMARK VINA RESULT:      -8.3      0.000      0.000
REMARK  Name = 
REMARK  12 active torsions:
REMARK  status: ('A' for Active; 'I' for Inactive)
REMARK    1  A    between atoms: C_1  and  O_2
REMARK    2  A    between atoms: O_2  and  C_3
REMARK    3  A    between atoms: C_5  and  C_6
REMARK    4  A    between atoms: C_6  and  S_7
REMARK    5  A    between atoms: S_7  and  C_10
REMARK    6  A    between atoms: C_21  and  O_22
REMARK    7  A    between atoms: O_22  and  C_23
REMARK    8  A    between atoms: C_23  and  C_24
REMARK    9  A    between atoms: C_27  and  C_28
REMARK   10  A    between atoms: C_29  and  O_30
REMARK   11  A    between atoms: O_30  and  C_31
REMARK   12  A    between atoms: C_32  and  C_33
REMARK                            x       y       z     vdW  Elec       q    Type
REMARK                         _______ _______ _______ _____ _____    ______ ____
ROOT
ATOM      1  C   UNL     1       2.412   7.320  18.892  0.00  0.00    +0.000 A 
ATOM      2  C   UNL     1       2.527   5.987  18.456  0.00  0.00    +0.000 A 
ATOM      3  C   UNL     1       2.031   4.926  19.224  0.00  0.00    +0.000 A 
ATOM      4  C   UNL     1       1.515   5.206  20.494  0.00  0.00    +0.000 A 
ATOM      5  C   UNL     1       1.478   6.521  20.969  0.00  0.00    +0.000 A 
ATOM      6  C   UNL     1       1.933   7.586  20.182  0.00  0.00    +0.000 A 
ENDROOT
BRANCH   1   8
ATOM      7  C   UNL     1       1.636   9.176  17.637  0.00  0.00    +0.000 C 
ATOM      8  O   UNL     1       2.732   8.366  18.066  0.00  0.00    +0.000 OA
ENDBRANCH   1   8
BRANCH   3   9
ATOM      9  C   UNL     1       1.927   3.548  18.617  0.00  0.00    +0.000 C 
BRANCH   9  10
ATOM     10  S   UNL     1       3.345   2.531  18.920  0.00  0.00    +0.000 S 
ATOM     11  O   UNL     1       3.444   2.193  20.325  0.00  0.00    +0.000 OA
ATOM     12  O   UNL     1       3.383   1.494  17.905  0.00  0.00    +0.000 OA
BRANCH  10  13
ATOM     13  C   UNL     1       4.771   3.517  18.597  0.00  0.00    +0.000 A 
ATOM     14  N   UNL     1       5.633   4.000  19.477  0.00  0.00    +0.000 NA
ATOM     15  C   UNL     1       6.361   4.942  18.783  0.00  0.00    +0.000 A 
ATOM     16  C   UNL     1       7.321   5.855  19.243  0.00  0.00    +0.000 A 
ATOM     17  C   UNL     1       7.872   6.772  18.336  0.00  0.00    +0.000 A 
ATOM     18  C   UNL     1       7.492   6.762  16.992  0.00  0.00    +0.000 A 
ATOM     19  C   UNL     1       6.551   5.847  16.508  0.00  0.00    +0.000 A 
ATOM     20  C   UNL     1       6.001   4.962  17.439  0.00  0.00    +0.000 A 
ATOM     21  N   UNL     1       5.031   4.001  17.337  0.00  0.00    +0.000 N 
ATOM     22  H   UNL     1       4.491   3.766  16.515  0.00  0.00    +0.000 HD
ENDBRANCH  10  13
ENDBRANCH   9  10
ENDBRANCH   3   9
BRANCH   6  23
ATOM     23  O   UNL     1       1.782   8.808  20.792  0.00  0.00    +0.000 OA
BRANCH  23  24
ATOM     24  C   UNL     1       0.465   9.165  21.219  0.00  0.00    +0.000 C 
BRANCH  24  25
ATOM     25  C   UNL     1       0.273  10.679  21.233  0.00  0.00    +0.000 A 
ATOM     26  N   UNL     1       0.983  11.370  20.309  0.00  0.00    +0.000 NA
ATOM     27  C   UNL     1       0.946  12.718  20.364  0.00  0.00    +0.000 A 
ATOM     28  C   UNL     1       0.252  13.464  21.313  0.00  0.00    +0.000 A 
ATOM     29  C   UNL     1       0.394  14.958  21.252  0.00  0.00    +0.000 C 
ATOM     30  C   UNL     1      -0.484  12.747  22.262  0.00  0.00    +0.000 A 
ATOM     31  C   UNL     1      -0.499  11.329  22.213  0.00  0.00    +0.000 A 
ATOM     32  C   UNL     1      -1.305  10.525  23.200  0.00  0.00    +0.000 C 
BRANCH  30  33
ATOM     33  O   UNL     1      -1.118  13.275  23.358  0.00  0.00    +0.000 OA
ATOM     34  C   UNL     1      -2.384  13.898  23.213  0.00  0.00    +0.000 C 
ENDBRANCH  30  33
ENDBRANCH  24  25
ENDBRANCH  23  24
ENDBRANCH   6  23
TORSDOF 8
ENDMDL
MODEL 2
REMARK VINA RESULT:      -8.2      2.867      4.196
REMARK  Name = 
REMARK  12 active torsions:
REMARK  status: ('A' for Active; 'I' for Inactive)
REMARK    1  A    between atoms: C_1  and  O_2
REMARK    2  A    between atoms: O_2  and  C_3
REMARK    3  A    between atoms: C_5  and  C_6
REMARK    4  A    between atoms: C_6  and  S_7
REMARK    5  A    between atoms: S_7  and  C_10
REMARK    6  A    between atoms: C_21  and  O_22
REMARK    7  A    between atoms: O_22  and  C_23
REMARK    8  A    between atoms: C_23  and  C_24
REMARK    9  A    between atoms: C_27  and  C_28
REMARK   10  A    between atoms: C_29  and  O_30
REMARK   11  A    between atoms: O_30  and  C_31
REMARK   12  A    between atoms: C_32  and  C_33
REMARK                            x       y       z     vdW  Elec       q    Type
REMARK                         _______ _______ _______ _____ _____    ______ ____
ROOT
ATOM      1  C   UNL     1       2.533   5.757  19.285  0.00  0.00    +0.000 A 
ATOM      2  C   UNL     1       3.661   4.916  19.303  0.00  0.00    +0.000 A 
ATOM      3  C   UNL     1       4.808   5.219  18.559  0.00  0.00    +0.000 A 
ATOM      4  C   UNL     1       4.771   6.324  17.700  0.00  0.00    +0.000 A 
ATOM      5  C   UNL     1       3.622   7.115  17.612  0.00  0.00    +0.000 A 
ATOM      6  C   UNL     1       2.492   6.836  18.390  0.00  0.00    +0.000 A 
ENDROOT
BRANCH   1   8
ATOM      7  C   UNL     1       1.392   4.253  20.718  0.00  0.00    +0.000 C 
ATOM      8  O   UNL     1       1.485   5.558  20.145  0.00  0.00    +0.000 OA
ENDBRANCH   1   8
BRANCH   3   9
ATOM      9  C   UNL     1       6.084   4.453  18.804  0.00  0.00    +0.000 C 
BRANCH   9  10
ATOM     10  S   UNL     1       7.448   5.015  17.824  0.00  0.00    +0.000 S 
ATOM     11  O   UNL     1       7.652   6.439  17.997  0.00  0.00    +0.000 OA
ATOM     12  O   UNL     1       8.547   4.084  18.002  0.00  0.00    +0.000 OA
BRANCH  10  13
ATOM     13  C   UNL     1       6.984   4.833  16.133  0.00  0.00    +0.000 A 
ATOM     14  N   UNL     1       6.119   3.970  15.624  0.00  0.00    +0.000 NA
ATOM     15  C   UNL     1       6.340   4.007  14.263  0.00  0.00    +0.000 A 
ATOM     16  C   UNL     1       5.803   3.208  13.243  0.00  0.00    +0.000 A 
ATOM     17  C   UNL     1       6.249   3.401  11.928  0.00  0.00    +0.000 A 
ATOM     18  C   UNL     1       7.194   4.386  11.631  0.00  0.00    +0.000 A 
ATOM     19  C   UNL     1       7.728   5.207  12.631  0.00  0.00    +0.000 A 
ATOM     20  C   UNL     1       7.283   4.976  13.935  0.00  0.00    +0.000 A 
ATOM     21  N   UNL     1       7.629   5.528  15.140  0.00  0.00    +0.000 N 
ATOM     22  H   UNL     1       8.335   6.234  15.304  0.00  0.00    +0.000 HD
ENDBRANCH  10  13
ENDBRANCH   9  10
ENDBRANCH   3   9
BRANCH   6  23
ATOM     23  O   UNL     1       1.473   7.740  18.204  0.00  0.00    +0.000 OA
BRANCH  23  24
ATOM     24  C   UNL     1       1.773   9.117  18.442  0.00  0.00    +0.000 C 
BRANCH  24  25
ATOM     25  C   UNL     1       1.063   9.637  19.688  0.00  0.00    +0.000 A 
ATOM     26  N   UNL     1       1.295   8.944  20.828  0.00  0.00    +0.000 NA
ATOM     27  C   UNL     1       0.592   9.286  21.928  0.00  0.00    +0.000 A 
ATOM     28  C   UNL     1      -0.378  10.284  21.984  0.00  0.00    +0.000 A 
ATOM     29  C   UNL     1      -1.105  10.465  23.285  0.00  0.00    +0.000 C 
ATOM     30  C   UNL     1      -0.611  11.001  20.806  0.00  0.00    +0.000 A 
ATOM     31  C   UNL     1       0.136  10.695  19.639  0.00  0.00    +0.000 A 
ATOM     32  C   UNL     1      -0.066  11.466  18.360  0.00  0.00    +0.000 C 
BRANCH  30  33
ATOM     33  O   UNL     1      -1.610  11.919  20.605  0.00  0.00    +0.000 OA
ATOM     34  C   UNL     1      -1.404  13.278  20.953  0.00  0.00    +0.000 C 
ENDBRANCH  30  33
ENDBRANCH  24  25
ENDBRANCH  23  24
ENDBRANCH   6  23
TORSDOF 8
ENDMDL
MODEL 3
REMARK VINA RESULT:      -8.2      2.709      3.446
REMARK  Name = 
REMARK  12 active torsions:
REMARK  status: ('A' for Active; 'I' for Inactive)
REMARK    1  A    between atoms: C_1  and  O_2
REMARK    2  A    between atoms: O_2  and  C_3
REMARK    3  A    between atoms: C_5  and  C_6
REMARK    4  A    between atoms: C_6  and  S_7
REMARK    5  A    between atoms: S_7  and  C_10
REMARK    6  A    between atoms: C_21  and  O_22
REMARK    7  A    between atoms: O_22  and  C_23
REMARK    8  A    between atoms: C_23  and  C_24
REMARK    9  A    between atoms: C_27  and  C_28
REMARK   10  A    between atoms: C_29  and  O_30
REMARK   11  A    between atoms: O_30  and  C_31
REMARK   12  A    between atoms: C_32  and  C_33
REMARK                            x       y       z     vdW  Elec       q    Type
REMARK                         _______ _______ _______ _____ _____    ______ ____
ROOT
ATOM      1  C   UNL     1       1.307   8.321  20.746  0.00  0.00    +0.000 A 
ATOM      2  C   UNL     1       1.530   6.959  21.016  0.00  0.00    +0.000 A 
ATOM      3  C   UNL     1       2.157   6.125  20.083  0.00  0.00    +0.000 A 
ATOM      4  C   UNL     1       2.460   6.647  18.820  0.00  0.00    +0.000 A 
ATOM      5  C   UNL     1       2.162   7.978  18.514  0.00  0.00    +0.000 A 
ATOM      6  C   UNL     1       1.575   8.824  19.464  0.00  0.00    +0.000 A 
ENDROOT
BRANCH   1   8
ATOM      7  C   UNL     1      -0.506   9.012  22.108  0.00  0.00    +0.000 C 
ATOM      8  O   UNL     1       0.860   9.175  21.721  0.00  0.00    +0.000 OA
ENDBRANCH   1   8
BRANCH   3   9
ATOM      9  C   UNL     1       2.621   4.750  20.499  0.00  0.00    +0.000 C 
BRANCH   9  10
ATOM     10  S   UNL     1       2.455   3.530  19.226  0.00  0.00    +0.000 S 
ATOM     11  O   UNL     1       2.541   2.194  19.781  0.00  0.00    +0.000 OA
ATOM     12  O   UNL     1       1.340   3.908  18.379  0.00  0.00    +0.000 OA
BRANCH  10  13
ATOM     13  C   UNL     1       3.870   3.671  18.183  0.00  0.00    +0.000 A 
ATOM     14  N   UNL     1       5.118   3.918  18.548  0.00  0.00    +0.000 NA
ATOM     15  C   UNL     1       5.773   4.241  17.378  0.00  0.00    +0.000 A 
ATOM     16  C   UNL     1       7.078   4.715  17.180  0.00  0.00    +0.000 A 
ATOM     17  C   UNL     1       7.487   5.043  15.879  0.00  0.00    +0.000 A 
ATOM     18  C   UNL     1       6.623   4.878  14.795  0.00  0.00    +0.000 A 
ATOM     19  C   UNL     1       5.323   4.388  14.969  0.00  0.00    +0.000 A 
ATOM     20  C   UNL     1       4.935   4.093  16.278  0.00  0.00    +0.000 A 
ATOM     21  N   UNL     1       3.748   3.669  16.815  0.00  0.00    +0.000 N 
ATOM     22  H   UNL     1       2.881   3.507  16.321  0.00  0.00    +0.000 HD
ENDBRANCH  10  13
ENDBRANCH   9  10
ENDBRANCH   3   9
BRANCH   6  23
ATOM     23  O   UNL     1       1.392  10.105  19.004  0.00  0.00    +0.000 OA
BRANCH  23  24
ATOM     24  C   UNL     1       0.439  10.290  17.954  0.00  0.00    +0.000 C 
BRANCH  24  25
ATOM     25  C   UNL     1      -0.796  11.039  18.444  0.00  0.00    +0.000 A 
ATOM     26  N   UNL     1      -0.611  11.833  19.525  0.00  0.00    +0.000 NA
ATOM     27  C   UNL     1      -1.698  12.416  20.074  0.00  0.00    +0.000 A 
ATOM     28  C   UNL     1      -3.008  12.248  19.633  0.00  0.00    +0.000 A 
ATOM     29  C   UNL     1      -4.092  12.922  20.422  0.00  0.00    +0.000 C 
ATOM     30  C   UNL     1      -3.195  11.431  18.512  0.00  0.00    +0.000 A 
ATOM     31  C   UNL     1      -2.071  10.832  17.886  0.00  0.00    +0.000 A 
ATOM     32  C   UNL     1      -2.231   9.971  16.661  0.00  0.00    +0.000 C 
BRANCH  30  33
ATOM     33  O   UNL     1      -4.401  11.022  18.004  0.00  0.00    +0.000 OA
ATOM     34  C   UNL     1      -5.134  11.878  17.143  0.00  0.00    +0.000 C 
ENDBRANCH  30  33
ENDBRANCH  24  25
ENDBRANCH  23  24
ENDBRANCH   6  23
TORSDOF 8
ENDMDL
MODEL 4
REMARK VINA RESULT:      -8.0      1.316      1.758
REMARK  Name = 
REMARK  12 active torsions:
REMARK  status: ('A' for Active; 'I' for Inactive)
REMARK    1  A    between atoms: C_1  and  O_2
REMARK    2  A    between atoms: O_2  and  C_3
REMARK    3  A    between atoms: C_5  and  C_6
REMARK    4  A    between atoms: C_6  and  S_7
REMARK    5  A    between atoms: S_7  and  C_10
REMARK    6  A    between atoms: C_21  and  O_22
REMARK    7  A    between atoms: O_22  and  C_23
REMARK    8  A    between atoms: C_23  and  C_24
REMARK    9  A    between atoms: C_27  and  C_28
REMARK   10  A    between atoms: C_29  and  O_30
REMARK   11  A    between atoms: O_30  and  C_31
REMARK   12  A    between atoms: C_32  and  C_33
REMARK                            x       y       z     vdW  Elec       q    Type
REMARK                         _______ _______ _______ _____ _____    ______ ____
ROOT
ATOM      1  C   UNL     1       2.087   7.479  19.345  0.00  0.00    +0.000 A 
ATOM      2  C   UNL     1       2.365   6.280  18.665  0.00  0.00    +0.000 A 
ATOM      3  C   UNL     1       2.003   5.038  19.201  0.00  0.00    +0.000 A 
ATOM      4  C   UNL     1       1.453   5.003  20.488  0.00  0.00    +0.000 A 
ATOM      5  C   UNL     1       1.253   6.185  21.205  0.00  0.00    +0.000 A 
ATOM      6  C   UNL     1       1.576   7.430  20.650  0.00  0.00    +0.000 A 
ENDROOT
BRANCH   1   8
ATOM      7  C   UNL     1       2.846   8.659  17.434  0.00  0.00    +0.000 C 
ATOM      8  O   UNL     1       2.278   8.696  18.745  0.00  0.00    +0.000 OA
ENDBRANCH   1   8
BRANCH   3   9
ATOM      9  C   UNL     1       2.070   3.801  18.338  0.00  0.00    +0.000 C 
BRANCH   9  10
ATOM     10  S   UNL     1       3.501   2.802  18.641  0.00  0.00    +0.000 S 
ATOM     11  O   UNL     1       3.570   2.414  20.035  0.00  0.00    +0.000 OA
ATOM     12  O   UNL     1       3.587   1.805  17.591  0.00  0.00    +0.000 OA
BRANCH  10  13
ATOM     13  C   UNL     1       4.914   3.828  18.393  0.00  0.00    +0.000 A 
ATOM     14  N   UNL     1       5.907   4.050  19.239  0.00  0.00    +0.000 NA
ATOM     15  C   UNL     1       6.576   5.139  18.724  0.00  0.00    +0.000 A 
ATOM     16  C   UNL     1       7.629   5.888  19.269  0.00  0.00    +0.000 A 
ATOM     17  C   UNL     1       8.095   7.010  18.569  0.00  0.00    +0.000 A 
ATOM     18  C   UNL     1       7.539   7.365  17.338  0.00  0.00    +0.000 A 
ATOM     19  C   UNL     1       6.501   6.620  16.766  0.00  0.00    +0.000 A 
ATOM     20  C   UNL     1       6.041   5.522  17.498  0.00  0.00    +0.000 A 
ATOM     21  N   UNL     1       5.024   4.630  17.283  0.00  0.00    +0.000 N 
ATOM     22  H   UNL     1       4.369   4.629  16.513  0.00  0.00    +0.000 HD
ENDBRANCH  10  13
ENDBRANCH   9  10
ENDBRANCH   3   9
BRANCH   6  23
ATOM     23  O   UNL     1       1.275   8.484  21.479  0.00  0.00    +0.000 OA
BRANCH  23  24
ATOM     24  C   UNL     1      -0.109   8.795  21.662  0.00  0.00    +0.000 C 
BRANCH  24  25
ATOM     25  C   UNL     1      -0.360  10.297  21.584  0.00  0.00    +0.000 A 
ATOM     26  N   UNL     1      -0.418  10.945  22.772  0.00  0.00    +0.000 NA
ATOM     27  C   UNL     1      -0.765  12.250  22.763  0.00  0.00    +0.000 A 
ATOM     28  C   UNL     1      -1.093  12.985  21.627  0.00  0.00    +0.000 A 
ATOM     29  C   UNL     1      -1.525  14.409  21.830  0.00  0.00    +0.000 C 
ATOM     30  C   UNL     1      -1.027  12.314  20.402  0.00  0.00    +0.000 A 
ATOM     31  C   UNL     1      -0.630  10.952  20.368  0.00  0.00    +0.000 A 
ATOM     32  C   UNL     1      -0.518  10.206  19.065  0.00  0.00    +0.000 C 
BRANCH  30  33
ATOM     33  O   UNL     1      -1.441  12.805  19.189  0.00  0.00    +0.000 OA
ATOM     34  C   UNL     1      -0.570  13.613  18.417  0.00  0.00    +0.000 C 
ENDBRANCH  30  33
ENDBRANCH  24  25
ENDBRANCH  23  24
ENDBRANCH   6  23
TORSDOF 8
ENDMDL
MODEL 5
REMARK VINA RESULT:      -7.9      2.282      2.975
REMARK  Name = 
REMARK  12 active torsions:
REMARK  status: ('A' for Active; 'I' for Inactive)
REMARK    1  A    between atoms: C_1  and  O_2
REMARK    2  A    between atoms: O_2  and  C_3
REMARK    3  A    between atoms: C_5  and  C_6
REMARK    4  A    between atoms: C_6  and  S_7
REMARK    5  A    between atoms: S_7  and  C_10
REMARK    6  A    between atoms: C_21  and  O_22
REMARK    7  A    between atoms: O_22  and  C_23
REMARK    8  A    between atoms: C_23  and  C_24
REMARK    9  A    between atoms: C_27  and  C_28
REMARK   10  A    between atoms: C_29  and  O_30
REMARK   11  A    between atoms: O_30  and  C_31
REMARK   12  A    between atoms: C_32  and  C_33
REMARK                            x       y       z     vdW  Elec       q    Type
REMARK                         _______ _______ _______ _____ _____    ______ ____
ROOT
ATOM      1  C   UNL     1       1.583   7.511  20.552  0.00  0.00    +0.000 A 
ATOM      2  C   UNL     1       1.715   6.121  20.725  0.00  0.00    +0.000 A 
ATOM      3  C   UNL     1       2.128   5.293  19.674  0.00  0.00    +0.000 A 
ATOM      4  C   UNL     1       2.301   5.862  18.406  0.00  0.00    +0.000 A 
ATOM      5  C   UNL     1       2.088   7.229  18.208  0.00  0.00    +0.000 A 
ATOM      6  C   UNL     1       1.718   8.063  19.270  0.00  0.00    +0.000 A 
ENDROOT
BRANCH   1   8
ATOM      7  C   UNL     1      -0.016   8.644  21.886  0.00  0.00    +0.000 C 
ATOM      8  O   UNL     1       1.355   8.340  21.619  0.00  0.00    +0.000 OA
ENDBRANCH   1   8
BRANCH   3   9
ATOM      9  C   UNL     1       2.516   3.862  19.956  0.00  0.00    +0.000 C 
BRANCH   9  10
ATOM     10  S   UNL     1       3.439   3.107  18.647  0.00  0.00    +0.000 S 
ATOM     11  O   UNL     1       3.938   1.808  19.053  0.00  0.00    +0.000 OA
ATOM     12  O   UNL     1       2.686   3.258  17.416  0.00  0.00    +0.000 OA
BRANCH  10  13
ATOM     13  C   UNL     1       4.887   4.083  18.401  0.00  0.00    +0.000 A 
ATOM     14  N   UNL     1       5.933   4.190  19.205  0.00  0.00    +0.000 NA
ATOM     15  C   UNL     1       6.629   5.285  18.740  0.00  0.00    +0.000 A 
ATOM     16  C   UNL     1       7.745   5.938  19.282  0.00  0.00    +0.000 A 
ATOM     17  C   UNL     1       8.229   7.090  18.646  0.00  0.00    +0.000 A 
ATOM     18  C   UNL     1       7.629   7.568  17.480  0.00  0.00    +0.000 A 
ATOM     19  C   UNL     1       6.527   6.920  16.911  0.00  0.00    +0.000 A 
ATOM     20  C   UNL     1       6.051   5.789  17.579  0.00  0.00    +0.000 A 
ATOM     21  N   UNL     1       4.980   4.966  17.353  0.00  0.00    +0.000 N 
ATOM     22  H   UNL     1       4.287   5.057  16.622  0.00  0.00    +0.000 HD
ENDBRANCH  10  13
ENDBRANCH   9  10
ENDBRANCH   3   9
BRANCH   6  23
ATOM     23  O   UNL     1       1.592   9.381  18.901  0.00  0.00    +0.000 OA
BRANCH  23  24
ATOM     24  C   UNL     1       0.591   9.692  17.928  0.00  0.00    +0.000 C 
BRANCH  24  25
ATOM     25  C   UNL     1      -0.427  10.690  18.471  0.00  0.00    +0.000 A 
ATOM     26  N   UNL     1      -0.085  11.307  19.628  0.00  0.00    +0.000 NA
ATOM     27  C   UNL     1      -1.005  12.101  20.215  0.00  0.00    +0.000 A 
ATOM     28  C   UNL     1      -2.295  12.323  19.740  0.00  0.00    +0.000 A 
ATOM     29  C   UNL     1      -3.198  13.183  20.576  0.00  0.00    +0.000 C 
ATOM     30  C   UNL     1      -2.642  11.688  18.543  0.00  0.00    +0.000 A 
ATOM     31  C   UNL     1      -1.689  10.875  17.877  0.00  0.00    +0.000 A 
ATOM     32  C   UNL     1      -2.017  10.201  16.571  0.00  0.00    +0.000 C 
BRANCH  30  33
ATOM     33  O   UNL     1      -3.893  11.658  17.979  0.00  0.00    +0.000 OA
ATOM     34  C   UNL     1      -4.870  10.756  18.472  0.00  0.00    +0.000 C 
ENDBRANCH  30  33
ENDBRANCH  24  25
ENDBRANCH  23  24
ENDBRANCH   6  23
TORSDOF 8
ENDMDL
MODEL 6
REMARK VINA RESULT:      -7.8      2.760      3.843
REMARK  Name = 
REMARK  12 active torsions:
REMARK  status: ('A' for Active; 'I' for Inactive)
REMARK    1  A    between atoms: C_1  and  O_2
REMARK    2  A    between atoms: O_2  and  C_3
REMARK    3  A    between atoms: C_5  and  C_6
REMARK    4  A    between atoms: C_6  and  S_7
REMARK    5  A    between atoms: S_7  and  C_10
REMARK    6  A    between atoms: C_21  and  O_22
REMARK    7  A    between atoms: O_22  and  C_23
REMARK    8  A    between atoms: C_23  and  C_24
REMARK    9  A    between atoms: C_27  and  C_28
REMARK   10  A    between atoms: C_29  and  O_30
REMARK   11  A    between atoms: O_30  and  C_31
REMARK   12  A    between atoms: C_32  and  C_33
REMARK                            x       y       z     vdW  Elec       q    Type
REMARK                         _______ _______ _______ _____ _____    ______ ____
ROOT
ATOM      1  C   UNL     1       2.536   4.853  20.046  0.00  0.00    +0.000 A 
ATOM      2  C   UNL     1       3.666   4.114  19.652  0.00  0.00    +0.000 A 
ATOM      3  C   UNL     1       4.705   4.706  18.924  0.00  0.00    +0.000 A 
ATOM      4  C   UNL     1       4.549   6.029  18.495  0.00  0.00    +0.000 A 
ATOM      5  C   UNL     1       3.389   6.743  18.810  0.00  0.00    +0.000 A 
ATOM      6  C   UNL     1       2.370   6.163  19.575  0.00  0.00    +0.000 A 
ENDROOT
BRANCH   1   8
ATOM      7  C   UNL     1       0.703   3.379  20.337  0.00  0.00    +0.000 C 
ATOM      8  O   UNL     1       1.608   4.326  20.906  0.00  0.00    +0.000 OA
ENDBRANCH   1   8
BRANCH   3   9
ATOM      9  C   UNL     1       6.011   3.969  18.749  0.00  0.00    +0.000 C 
BRANCH   9  10
ATOM     10  S   UNL     1       7.239   4.900  17.876  0.00  0.00    +0.000 S 
ATOM     11  O   UNL     1       7.133   6.311  18.190  0.00  0.00    +0.000 OA
ATOM     12  O   UNL     1       8.508   4.208  18.004  0.00  0.00    +0.000 OA
BRANCH  10  13
ATOM     13  C   UNL     1       6.849   4.794  16.160  0.00  0.00    +0.000 A 
ATOM     14  N   UNL     1       5.934   4.028  15.588  0.00  0.00    +0.000 NA
ATOM     15  C   UNL     1       6.229   4.068  14.241  0.00  0.00    +0.000 A 
ATOM     16  C   UNL     1       5.672   3.343  13.177  0.00  0.00    +0.000 A 
ATOM     17  C   UNL     1       6.204   3.516  11.891  0.00  0.00    +0.000 A 
ATOM     18  C   UNL     1       7.252   4.409  11.665  0.00  0.00    +0.000 A 
ATOM     19  C   UNL     1       7.809   5.157  12.709  0.00  0.00    +0.000 A 
ATOM     20  C   UNL     1       7.276   4.947  13.983  0.00  0.00    +0.000 A 
ATOM     21  N   UNL     1       7.609   5.442  15.216  0.00  0.00    +0.000 N 
ATOM     22  H   UNL     1       8.369   6.073  15.433  0.00  0.00    +0.000 HD
ENDBRANCH  10  13
ENDBRANCH   9  10
ENDBRANCH   3   9
BRANCH   6  23
ATOM     23  O   UNL     1       1.326   7.023  19.821  0.00  0.00    +0.000 OA
BRANCH  23  24
ATOM     24  C   UNL     1       1.424   7.851  20.983  0.00  0.00    +0.000 C 
BRANCH  24  25
ATOM     25  C   UNL     1       0.893   9.255  20.715  0.00  0.00    +0.000 A 
ATOM     26  N   UNL     1       1.091   9.729  19.461  0.00  0.00    +0.000 NA
ATOM     27  C   UNL     1       0.754  11.012  19.211  0.00  0.00    +0.000 A 
ATOM     28  C   UNL     1       0.239  11.905  20.148  0.00  0.00    +0.000 A 
ATOM     29  C   UNL     1      -0.003  13.315  19.694  0.00  0.00    +0.000 C 
ATOM     30  C   UNL     1       0.031  11.410  21.439  0.00  0.00    +0.000 A 
ATOM     31  C   UNL     1       0.338  10.056  21.730  0.00  0.00    +0.000 A 
ATOM     32  C   UNL     1       0.099   9.481  23.102  0.00  0.00    +0.000 C 
BRANCH  30  33
ATOM     33  O   UNL     1      -0.331  12.149  22.537  0.00  0.00    +0.000 OA
ATOM     34  C   UNL     1      -1.694  12.472  22.756  0.00  0.00    +0.000 C 
ENDBRANCH  30  33
ENDBRANCH  24  25
ENDBRANCH  23  24
ENDBRANCH   6  23
TORSDOF 8
ENDMDL
MODEL 7
REMARK VINA RESULT:      -7.8      2.883      4.219
REMARK  Name = 
REMARK  12 active torsions:
REMARK  status: ('A' for Active; 'I' for Inactive)
REMARK    1  A    between atoms: C_1  and  O_2
REMARK    2  A    between atoms: O_2  and  C_3
REMARK    3  A    between atoms: C_5  and  C_6
REMARK    4  A    between atoms: C_6  and  S_7
REMARK    5  A    between atoms: S_7  and  C_10
REMARK    6  A    between atoms: C_21  and  O_22
REMARK    7  A    between atoms: O_22  and  C_23
REMARK    8  A    between atoms: C_23  and  C_24
REMARK    9  A    between atoms: C_27  and  C_28
REMARK   10  A    between atoms: C_29  and  O_30
REMARK   11  A    between atoms: O_30  and  C_31
REMARK   12  A    between atoms: C_32  and  C_33
REMARK                            x       y       z     vdW  Elec       q    Type
REMARK                         _______ _______ _______ _____ _____    ______ ____
ROOT
ATOM      1  C   UNL     1       2.740   4.734  20.474  0.00  0.00    +0.000 A 
ATOM      2  C   UNL     1       3.744   3.967  19.856  0.00  0.00    +0.000 A 
ATOM      3  C   UNL     1       4.631   4.537  18.933  0.00  0.00    +0.000 A 
ATOM      4  C   UNL     1       4.429   5.867  18.549  0.00  0.00    +0.000 A 
ATOM      5  C   UNL     1       3.379   6.610  19.096  0.00  0.00    +0.000 A 
ATOM      6  C   UNL     1       2.520   6.052  20.051  0.00  0.00    +0.000 A 
ENDROOT
BRANCH   1   8
ATOM      7  C   UNL     1       1.330   2.987  21.236  0.00  0.00    +0.000 C 
ATOM      8  O   UNL     1       1.991   4.225  21.503  0.00  0.00    +0.000 OA
ENDBRANCH   1   8
BRANCH   3   9
ATOM      9  C   UNL     1       5.852   3.766  18.495  0.00  0.00    +0.000 C 
BRANCH   9  10
ATOM     10  S   UNL     1       7.075   4.770  17.698  0.00  0.00    +0.000 S 
ATOM     11  O   UNL     1       6.908   6.164  18.056  0.00  0.00    +0.000 OA
ATOM     12  O   UNL     1       8.363   4.117  17.847  0.00  0.00    +0.000 OA
BRANCH  10  13
ATOM     13  C   UNL     1       6.748   4.711  15.966  0.00  0.00    +0.000 A 
ATOM     14  N   UNL     1       5.866   3.950  15.338  0.00  0.00    +0.000 NA
ATOM     15  C   UNL     1       6.208   4.036  14.005  0.00  0.00    +0.000 A 
ATOM     16  C   UNL     1       5.701   3.337  12.900  0.00  0.00    +0.000 A 
ATOM     17  C   UNL     1       6.275   3.557  11.640  0.00  0.00    +0.000 A 
ATOM     18  C   UNL     1       7.316   4.473  11.479  0.00  0.00    +0.000 A 
ATOM     19  C   UNL     1       7.824   5.196  12.565  0.00  0.00    +0.000 A 
ATOM     20  C   UNL     1       7.249   4.938  13.812  0.00  0.00    +0.000 A 
ATOM     21  N   UNL     1       7.531   5.399  15.071  0.00  0.00    +0.000 N 
ATOM     22  H   UNL     1       8.273   6.034  15.334  0.00  0.00    +0.000 HD
ENDBRANCH  10  13
ENDBRANCH   9  10
ENDBRANCH   3   9
BRANCH   6  23
ATOM     23  O   UNL     1       1.573   6.938  20.507  0.00  0.00    +0.000 OA
BRANCH  23  24
ATOM     24  C   UNL     1       1.473   8.192  19.827  0.00  0.00    +0.000 C 
BRANCH  24  25
ATOM     25  C   UNL     1       0.780   9.243  20.689  0.00  0.00    +0.000 A 
ATOM     26  N   UNL     1       0.246   8.791  21.849  0.00  0.00    +0.000 NA
ATOM     27  C   UNL     1      -0.487   9.655  22.583  0.00  0.00    +0.000 A 
ATOM     28  C   UNL     1      -0.762  10.974  22.234  0.00  0.00    +0.000 A 
ATOM     29  C   UNL     1      -1.661  11.755  23.149  0.00  0.00    +0.000 C 
ATOM     30  C   UNL     1      -0.204  11.438  21.038  0.00  0.00    +0.000 A 
ATOM     31  C   UNL     1       0.603  10.570  20.258  0.00  0.00    +0.000 A 
ATOM     32  C   UNL     1       1.244  11.044  18.980  0.00  0.00    +0.000 C 
BRANCH  30  33
ATOM     33  O   UNL     1      -0.463  12.647  20.443  0.00  0.00    +0.000 OA
ATOM     34  C   UNL     1      -1.691  12.855  19.767  0.00  0.00    +0.000 C 
ENDBRANCH  30  33
ENDBRANCH  24  25
ENDBRANCH  23  24
ENDBRANCH   6  23
TORSDOF 8
ENDMDL
MODEL 8
REMARK VINA RESULT:      -7.7      2.905      4.100
REMARK  Name = 
REMARK  12 active torsions:
REMARK  status: ('A' for Active; 'I' for Inactive)
REMARK    1  A    between atoms: C_1  and  O_2
REMARK    2  A    between atoms: O_2  and  C_3
REMARK    3  A    between atoms: C_5  and  C_6
REMARK    4  A    between atoms: C_6  and  S_7
REMARK    5  A    between atoms: S_7  and  C_10
REMARK    6  A    between atoms: C_21  and  O_22
REMARK    7  A    between atoms: O_22  and  C_23
REMARK    8  A    between atoms: C_23  and  C_24
REMARK    9  A    between atoms: C_27  and  C_28
REMARK   10  A    between atoms: C_29  and  O_30
REMARK   11  A    between atoms: O_30  and  C_31
REMARK   12  A    between atoms: C_32  and  C_33
REMARK                            x       y       z     vdW  Elec       q    Type
REMARK                         _______ _______ _______ _____ _____    ______ ____
ROOT
ATOM      1  C   UNL     1       2.417   5.307  19.045  0.00  0.00    +0.000 A 
ATOM      2  C   UNL     1       3.583   4.524  18.967  0.00  0.00    +0.000 A 
ATOM      3  C   UNL     1       4.802   5.074  18.549  0.00  0.00    +0.000 A 
ATOM      4  C   UNL     1       4.816   6.399  18.099  0.00  0.00    +0.000 A 
ATOM      5  C   UNL     1       3.641   7.157  18.092  0.00  0.00    +0.000 A 
ATOM      6  C   UNL     1       2.432   6.619  18.552  0.00  0.00    +0.000 A 
ENDROOT
BRANCH   1   8
ATOM      7  C   UNL     1       1.462   3.963  20.748  0.00  0.00    +0.000 C 
ATOM      8  O   UNL     1       1.273   4.819  19.621  0.00  0.00    +0.000 OA
ENDBRANCH   1   8
BRANCH   3   9
ATOM      9  C   UNL     1       6.078   4.290  18.731  0.00  0.00    +0.000 C 
BRANCH   9  10
ATOM     10  S   UNL     1       7.432   4.906  17.769  0.00  0.00    +0.000 S 
ATOM     11  O   UNL     1       7.615   6.326  17.991  0.00  0.00    +0.000 OA
ATOM     12  O   UNL     1       8.545   3.985  17.912  0.00  0.00    +0.000 OA
BRANCH  10  13
ATOM     13  C   UNL     1       6.967   4.775  16.073  0.00  0.00    +0.000 A 
ATOM     14  N   UNL     1       6.065   3.964  15.546  0.00  0.00    +0.000 NA
ATOM     15  C   UNL     1       6.293   4.013  14.187  0.00  0.00    +0.000 A 
ATOM     16  C   UNL     1       5.723   3.259  13.151  0.00  0.00    +0.000 A 
ATOM     17  C   UNL     1       6.184   3.453  11.841  0.00  0.00    +0.000 A 
ATOM     18  C   UNL     1       7.175   4.397  11.565  0.00  0.00    +0.000 A 
ATOM     19  C   UNL     1       7.743   5.174  12.581  0.00  0.00    +0.000 A 
ATOM     20  C   UNL     1       7.282   4.942  13.879  0.00  0.00    +0.000 A 
ATOM     21  N   UNL     1       7.649   5.456  15.094  0.00  0.00    +0.000 N 
ATOM     22  H   UNL     1       8.387   6.124  15.274  0.00  0.00    +0.000 HD
ENDBRANCH  10  13
ENDBRANCH   9  10
ENDBRANCH   3   9
BRANCH   6  23
ATOM     23  O   UNL     1       1.393   7.518  18.510  0.00  0.00    +0.000 OA
BRANCH  23  24
ATOM     24  C   UNL     1       1.734   8.906  18.463  0.00  0.00    +0.000 C 
BRANCH  24  25
ATOM     25  C   UNL     1       0.659   9.768  19.118  0.00  0.00    +0.000 A 
ATOM     26  N   UNL     1      -0.148  10.447  18.268  0.00  0.00    +0.000 NA
ATOM     27  C   UNL     1      -1.029  11.322  18.798  0.00  0.00    +0.000 A 
ATOM     28  C   UNL     1      -1.163  11.604  20.155  0.00  0.00    +0.000 A 
ATOM     29  C   UNL     1      -2.153  12.664  20.542  0.00  0.00    +0.000 C 
ATOM     30  C   UNL     1      -0.332  10.897  21.030  0.00  0.00    +0.000 A 
ATOM     31  C   UNL     1       0.581   9.942  20.512  0.00  0.00    +0.000 A 
ATOM     32  C   UNL     1       1.470   9.140  21.426  0.00  0.00    +0.000 C 
BRANCH  30  33
ATOM     33  O   UNL     1      -0.203  11.120  22.377  0.00  0.00    +0.000 OA
ATOM     34  C   UNL     1      -0.775  10.213  23.304  0.00  0.00    +0.000 C 
ENDBRANCH  30  33
ENDBRANCH  24  25
ENDBRANCH  23  24
ENDBRANCH   6  23
TORSDOF 8
ENDMDL
MODEL 9
REMARK VINA RESULT:      -7.7      2.834      4.105
REMARK  Name = 
REMARK  12 active torsions:
REMARK  status: ('A' for Active; 'I' for Inactive)
REMARK    1  A    between atoms: C_1  and  O_2
REMARK    2  A    between atoms: O_2  and  C_3
REMARK    3  A    between atoms: C_5  and  C_6
REMARK    4  A    between atoms: C_6  and  S_7
REMARK    5  A    between atoms: S_7  and  C_10
REMARK    6  A    between atoms: C_21  and  O_22
REMARK    7  A    between atoms: O_22  and  C_23
REMARK    8  A    between atoms: C_23  and  C_24
REMARK    9  A    between atoms: C_27  and  C_28
REMARK   10  A    between atoms: C_29  and  O_30
REMARK   11  A    between atoms: O_30  and  C_31
REMARK   12  A    between atoms: C_32  and  C_33
REMARK                            x       y       z     vdW  Elec       q    Type
REMARK                         _______ _______ _______ _____ _____    ______ ____
ROOT
ATOM      1  C   UNL     1       1.782   4.839  20.134  0.00  0.00    +0.000 A 
ATOM      2  C   UNL     1       2.663   4.144  19.285  0.00  0.00    +0.000 A 
ATOM      3  C   UNL     1       3.663   4.813  18.568  0.00  0.00    +0.000 A 
ATOM      4  C   UNL     1       3.700   6.211  18.624  0.00  0.00    +0.000 A 
ATOM      5  C   UNL     1       2.772   6.914  19.398  0.00  0.00    +0.000 A 
ATOM      6  C   UNL     1       1.800   6.241  20.149  0.00  0.00    +0.000 A 
ENDROOT
BRANCH   1   8
ATOM      7  C   UNL     1       1.398   2.919  21.470  0.00  0.00    +0.000 C 
ATOM      8  O   UNL     1       0.925   4.170  20.968  0.00  0.00    +0.000 OA
ENDBRANCH   1   8
BRANCH   3   9
ATOM      9  C   UNL     1       4.751   4.022  17.885  0.00  0.00    +0.000 C 
BRANCH   9  10
ATOM     10  S   UNL     1       6.236   4.948  17.612  0.00  0.00    +0.000 S 
ATOM     11  O   UNL     1       5.971   6.372  17.669  0.00  0.00    +0.000 OA
ATOM     12  O   UNL     1       7.291   4.359  18.415  0.00  0.00    +0.000 OA
BRANCH  10  13
ATOM     13  C   UNL     1       6.733   4.654  15.946  0.00  0.00    +0.000 A 
ATOM     14  N   UNL     1       7.573   5.372  15.217  0.00  0.00    +0.000 NA
ATOM     15  C   UNL     1       7.387   4.933  13.924  0.00  0.00    +0.000 A 
ATOM     16  C   UNL     1       7.915   5.426  12.722  0.00  0.00    +0.000 A 
ATOM     17  C   UNL     1       7.508   4.839  11.514  0.00  0.00    +0.000 A 
ATOM     18  C   UNL     1       6.613   3.768  11.506  0.00  0.00    +0.000 A 
ATOM     19  C   UNL     1       6.090   3.248  12.695  0.00  0.00    +0.000 A 
ATOM     20  C   UNL     1       6.493   3.867  13.881  0.00  0.00    +0.000 A 
ATOM     21  N   UNL     1       6.141   3.672  15.190  0.00  0.00    +0.000 N 
ATOM     22  H   UNL     1       5.462   3.012  15.545  0.00  0.00    +0.000 HD
ENDBRANCH  10  13
ENDBRANCH   9  10
ENDBRANCH   3   9
BRANCH   6  23
ATOM     23  O   UNL     1       1.001   7.088  20.878  0.00  0.00    +0.000 OA
BRANCH  23  24
ATOM     24  C   UNL     1       1.645   8.173  21.550  0.00  0.00    +0.000 C 
BRANCH  24  25
ATOM     25  C   UNL     1       0.685   9.336  21.782  0.00  0.00    +0.000 A 
ATOM     26  N   UNL     1       0.083   9.368  22.995  0.00  0.00    +0.000 NA
ATOM     27  C   UNL     1      -0.869  10.302  23.203  0.00  0.00    +0.000 A 
ATOM     28  C   UNL     1      -1.305  11.228  22.259  0.00  0.00    +0.000 A 
ATOM     29  C   UNL     1      -2.430  12.139  22.657  0.00  0.00    +0.000 C 
ATOM     30  C   UNL     1      -0.677  11.195  21.009  0.00  0.00    +0.000 A 
ATOM     31  C   UNL     1       0.354  10.252  20.766  0.00  0.00    +0.000 A 
ATOM     32  C   UNL     1       1.073  10.207  19.444  0.00  0.00    +0.000 C 
BRANCH  30  33
ATOM     33  O   UNL     1      -1.047  11.916  19.902  0.00  0.00    +0.000 OA
ATOM     34  C   UNL     1      -2.199  11.543  19.166  0.00  0.00    +0.000 C 
ENDBRANCH  30  33
ENDBRANCH  24  25
ENDBRANCH  23  24
ENDBRANCH   6  23
TORSDOF 8
ENDMDL
