MODEL 1
REMARK VINA RESULT:      -6.4      0.000      0.000
REMARK  Name = 
REMARK  6 active torsions:
REMARK  status: ('A' for Active; 'I' for Inactive)
REMARK    1  A    between atoms: C_1  and  N_2
REMARK    2  A    between atoms: N_2  and  C_3
REMARK    3  A    between atoms: C_4  and  C_6
REMARK    4  A    between atoms: C_6  and  C_7
REMARK    5  A    between atoms: C_10  and  N_11
REMARK    6  A    between atoms: C_12  and  C_14
REMARK                            x       y       z     vdW  Elec       q    Type
REMARK                         _______ _______ _______ _____ _____    ______ ____
ROOT
ATOM      1  C   UNL     1       3.674   4.286  17.343  0.00  0.00    +0.000 A 
ATOM      2  C   UNL     1       4.838   4.147  16.591  0.00  0.00    +0.000 A 
ATOM      3  C   UNL     1       5.744   5.199  16.512  0.00  0.00    +0.000 A 
ATOM      4  C   UNL     1       5.517   6.414  17.161  0.00  0.00    +0.000 A 
ATOM      5  C   UNL     1       4.334   6.563  17.895  0.00  0.00    +0.000 A 
ATOM      6  C   UNL     1       3.416   5.506  17.976  0.00  0.00    +0.000 A 
ENDROOT
BRANCH   4   7
ATOM      7  N   UNL     1       6.469   7.454  17.092  0.00  0.00    +0.000 N 
ATOM      8  C   UNL     1       7.618   7.553  17.868  0.00  0.00    +0.000 C 
ATOM      9  O   UNL     1       8.011   6.790  18.730  0.00  0.00    +0.000 OA
ATOM     10  H   UNL     1       6.272   8.208  16.439  0.00  0.00    +0.000 HD
BRANCH   8  11
ATOM     11  C   UNL     1       8.454   8.757  17.651  0.00  0.00    +0.000 C 
ATOM     12  C   UNL     1       8.048  10.195  17.842  0.00  0.00    +0.000 C 
ATOM     13  C   UNL     1       8.913   9.526  18.868  0.00  0.00    +0.000 C 
ENDBRANCH   8  11
ENDBRANCH   4   7
BRANCH   1  14
ATOM     14  C   UNL     1       2.770   3.103  17.574  0.00  0.00    +0.000 C 
BRANCH  14  18
ATOM     15  C   UNL     1       2.054   2.293  21.240  0.00  0.00    +0.000 C 
ATOM     16  N   UNL     1       1.910   2.837  19.903  0.00  0.00    +0.000 N 
ATOM     17  C   UNL     1       0.751   3.662  19.606  0.00  0.00    +0.000 C 
ATOM     18  C   UNL     1       2.920   2.550  18.991  0.00  0.00    +0.000 C 
ATOM     19  O   UNL     1       3.902   1.877  19.311  0.00  0.00    +0.000 OA
ENDBRANCH  14  18
ENDBRANCH   1  14
TORSDOF 4
ENDMDL
MODEL 2
REMARK VINA RESULT:      -6.3      3.850      5.850
REMARK  Name = 
REMARK  6 active torsions:
REMARK  status: ('A' for Active; 'I' for Inactive)
REMARK    1  A    between atoms: C_1  and  N_2
REMARK    2  A    between atoms: N_2  and  C_3
REMARK    3  A    between atoms: C_4  and  C_6
REMARK    4  A    between atoms: C_6  and  C_7
REMARK    5  A    between atoms: C_10  and  N_11
REMARK    6  A    between atoms: C_12  and  C_14
REMARK                            x       y       z     vdW  Elec       q    Type
REMARK                         _______ _______ _______ _____ _____    ______ ____
ROOT
ATOM      1  C   UNL     1       5.643   5.329  16.948  0.00  0.00    +0.000 A 
ATOM      2  C   UNL     1       4.702   4.488  16.358  0.00  0.00    +0.000 A 
ATOM      3  C   UNL     1       4.997   3.849  15.160  0.00  0.00    +0.000 A 
ATOM      4  C   UNL     1       6.219   4.032  14.511  0.00  0.00    +0.000 A 
ATOM      5  C   UNL     1       7.154   4.898  15.089  0.00  0.00    +0.000 A 
ATOM      6  C   UNL     1       6.862   5.548  16.296  0.00  0.00    +0.000 A 
ENDROOT
BRANCH   4   7
ATOM      7  N   UNL     1       6.505   3.344  13.312  0.00  0.00    +0.000 N 
ATOM      8  C   UNL     1       5.623   3.159  12.253  0.00  0.00    +0.000 C 
ATOM      9  O   UNL     1       4.472   3.539  12.159  0.00  0.00    +0.000 OA
ATOM     10  H   UNL     1       7.428   2.922  13.239  0.00  0.00    +0.000 HD
BRANCH   8  11
ATOM     11  C   UNL     1       6.130   2.367  11.107  0.00  0.00    +0.000 C 
ATOM     12  C   UNL     1       7.370   1.512  11.068  0.00  0.00    +0.000 C 
ATOM     13  C   UNL     1       6.023   0.863  11.188  0.00  0.00    +0.000 C 
ENDBRANCH   8  11
ENDBRANCH   4   7
BRANCH   1  14
ATOM     14  C   UNL     1       5.405   5.894  18.324  0.00  0.00    +0.000 C 
BRANCH  14  18
ATOM     15  C   UNL     1       2.733   4.271  20.523  0.00  0.00    +0.000 C 
ATOM     16  N   UNL     1       3.416   5.236  19.683  0.00  0.00    +0.000 N 
ATOM     17  C   UNL     1       2.760   6.501  19.398  0.00  0.00    +0.000 C 
ATOM     18  C   UNL     1       4.683   4.892  19.225  0.00  0.00    +0.000 C 
ATOM     19  O   UNL     1       5.208   3.819  19.532  0.00  0.00    +0.000 OA
ENDBRANCH  14  18
ENDBRANCH   1  14
TORSDOF 4
ENDMDL
MODEL 3
REMARK VINA RESULT:      -6.3      4.268      6.136
REMARK  Name = 
REMARK  6 active torsions:
REMARK  status: ('A' for Active; 'I' for Inactive)
REMARK    1  A    between atoms: C_1  and  N_2
REMARK    2  A    between atoms: N_2  and  C_3
REMARK    3  A    between atoms: C_4  and  C_6
REMARK    4  A    between atoms: C_6  and  C_7
REMARK    5  A    between atoms: C_10  and  N_11
REMARK    6  A    between atoms: C_12  and  C_14
REMARK                            x       y       z     vdW  Elec       q    Type
REMARK                         _______ _______ _______ _____ _____    ______ ____
ROOT
ATOM      1  C   UNL     1       2.871   5.207  18.517  0.00  0.00    +0.000 A 
ATOM      2  C   UNL     1       2.964   6.570  18.246  0.00  0.00    +0.000 A 
ATOM      3  C   UNL     1       2.483   7.496  19.164  0.00  0.00    +0.000 A 
ATOM      4  C   UNL     1       1.891   7.100  20.364  0.00  0.00    +0.000 A 
ATOM      5  C   UNL     1       1.773   5.730  20.626  0.00  0.00    +0.000 A 
ATOM      6  C   UNL     1       2.254   4.792  19.702  0.00  0.00    +0.000 A 
ENDROOT
BRANCH   4   7
ATOM      7  N   UNL     1       1.442   8.062  21.295  0.00  0.00    +0.000 N 
ATOM      8  C   UNL     1       0.760   9.233  20.985  0.00  0.00    +0.000 C 
ATOM      9  O   UNL     1       0.432   9.643  19.888  0.00  0.00    +0.000 OA
ATOM     10  H   UNL     1       1.670   7.891  22.272  0.00  0.00    +0.000 HD
BRANCH   8  11
ATOM     11  C   UNL     1       0.421  10.117  22.125  0.00  0.00    +0.000 C 
ATOM     12  C   UNL     1      -0.941  10.344  22.728  0.00  0.00    +0.000 C 
ATOM     13  C   UNL     1       0.048   9.465  23.436  0.00  0.00    +0.000 C 
ENDBRANCH   8  11
ENDBRANCH   4   7
BRANCH   1  14
ATOM     14  C   UNL     1       3.536   4.202  17.613  0.00  0.00    +0.000 C 
BRANCH  14  18
ATOM     15  C   UNL     1       7.290   4.525  16.975  0.00  0.00    +0.000 C 
ATOM     16  N   UNL     1       5.856   4.543  16.756  0.00  0.00    +0.000 N 
ATOM     17  C   UNL     1       5.354   4.915  15.444  0.00  0.00    +0.000 C 
ATOM     18  C   UNL     1       5.049   4.170  17.826  0.00  0.00    +0.000 C 
ATOM     19  O   UNL     1       5.532   3.825  18.906  0.00  0.00    +0.000 OA
ENDBRANCH  14  18
ENDBRANCH   1  14
TORSDOF 4
ENDMDL
MODEL 4
REMARK VINA RESULT:      -6.2      3.869      5.795
REMARK  Name = 
REMARK  6 active torsions:
REMARK  status: ('A' for Active; 'I' for Inactive)
REMARK    1  A    between atoms: C_1  and  N_2
REMARK    2  A    between atoms: N_2  and  C_3
REMARK    3  A    between atoms: C_4  and  C_6
REMARK    4  A    between atoms: C_6  and  C_7
REMARK    5  A    between atoms: C_10  and  N_11
REMARK    6  A    between atoms: C_12  and  C_14
REMARK                            x       y       z     vdW  Elec       q    Type
REMARK                         _______ _______ _______ _____ _____    ______ ____
ROOT
ATOM      1  C   UNL     1       4.996   5.492  16.716  0.00  0.00    +0.000 A 
ATOM      2  C   UNL     1       5.269   6.178  15.535  0.00  0.00    +0.000 A 
ATOM      3  C   UNL     1       5.720   5.486  14.417  0.00  0.00    +0.000 A 
ATOM      4  C   UNL     1       5.922   4.105  14.440  0.00  0.00    +0.000 A 
ATOM      5  C   UNL     1       5.673   3.419  15.634  0.00  0.00    +0.000 A 
ATOM      6  C   UNL     1       5.221   4.112  16.766  0.00  0.00    +0.000 A 
ENDROOT
BRANCH   4   7
ATOM      7  N   UNL     1       6.348   3.422  13.281  0.00  0.00    +0.000 N 
ATOM      8  C   UNL     1       5.559   3.139  12.172  0.00  0.00    +0.000 C 
ATOM      9  O   UNL     1       4.389   3.414  11.993  0.00  0.00    +0.000 OA
ATOM     10  H   UNL     1       7.307   3.082  13.280  0.00  0.00    +0.000 HD
BRANCH   8  11
ATOM     11  C   UNL     1       6.210   2.372  11.082  0.00  0.00    +0.000 C 
ATOM     12  C   UNL     1       7.452   1.526  11.179  0.00  0.00    +0.000 C 
ATOM     13  C   UNL     1       6.106   0.866  11.121  0.00  0.00    +0.000 C 
ENDBRANCH   8  11
ENDBRANCH   4   7
BRANCH   1  14
ATOM     14  C   UNL     1       4.350   6.200  17.877  0.00  0.00    +0.000 C 
BRANCH  14  18
ATOM     15  C   UNL     1       2.871   3.710  20.371  0.00  0.00    +0.000 C 
ATOM     16  N   UNL     1       2.996   4.597  19.230  0.00  0.00    +0.000 N 
ATOM     17  C   UNL     1       1.861   4.745  18.334  0.00  0.00    +0.000 C 
ATOM     18  C   UNL     1       4.201   5.276  19.086  0.00  0.00    +0.000 C 
ATOM     19  O   UNL     1       5.116   5.141  19.900  0.00  0.00    +0.000 OA
ENDBRANCH  14  18
ENDBRANCH   1  14
TORSDOF 4
ENDMDL
MODEL 5
REMARK VINA RESULT:      -6.2      1.021      1.680
REMARK  Name = 
REMARK  6 active torsions:
REMARK  status: ('A' for Active; 'I' for Inactive)
REMARK    1  A    between atoms: C_1  and  N_2
REMARK    2  A    between atoms: N_2  and  C_3
REMARK    3  A    between atoms: C_4  and  C_6
REMARK    4  A    between atoms: C_6  and  C_7
REMARK    5  A    between atoms: C_10  and  N_11
REMARK    6  A    between atoms: C_12  and  C_14
REMARK                            x       y       z     vdW  Elec       q    Type
REMARK                         _______ _______ _______ _____ _____    ______ ____
ROOT
ATOM      1  C   UNL     1       3.701   4.237  17.363  0.00  0.00    +0.000 A 
ATOM      2  C   UNL     1       3.373   5.504  17.842  0.00  0.00    +0.000 A 
ATOM      3  C   UNL     1       4.304   6.534  17.777  0.00  0.00    +0.000 A 
ATOM      4  C   UNL     1       5.581   6.337  17.248  0.00  0.00    +0.000 A 
ATOM      5  C   UNL     1       5.920   5.058  16.791  0.00  0.00    +0.000 A 
ATOM      6  C   UNL     1       4.986   4.015  16.857  0.00  0.00    +0.000 A 
ENDROOT
BRANCH   4   7
ATOM      7  N   UNL     1       6.496   7.409  17.162  0.00  0.00    +0.000 N 
ATOM      8  C   UNL     1       7.665   7.537  17.903  0.00  0.00    +0.000 C 
ATOM      9  O   UNL     1       8.109   6.779  18.742  0.00  0.00    +0.000 OA
ATOM     10  H   UNL     1       6.254   8.163  16.524  0.00  0.00    +0.000 HD
BRANCH   8  11
ATOM     11  C   UNL     1       8.455   8.771  17.675  0.00  0.00    +0.000 C 
ATOM     12  C   UNL     1       8.009  10.192  17.898  0.00  0.00    +0.000 C 
ATOM     13  C   UNL     1       8.930   9.538  18.885  0.00  0.00    +0.000 C 
ENDBRANCH   8  11
ENDBRANCH   4   7
BRANCH   1  14
ATOM     14  C   UNL     1       2.651   3.161  17.274  0.00  0.00    +0.000 C 
BRANCH  14  18
ATOM     15  C   UNL     1       1.705   2.548  20.926  0.00  0.00    +0.000 C 
ATOM     16  N   UNL     1       2.486   2.618  19.705  0.00  0.00    +0.000 N 
ATOM     17  C   UNL     1       3.876   2.193  19.740  0.00  0.00    +0.000 C 
ATOM     18  C   UNL     1       1.834   3.066  18.562  0.00  0.00    +0.000 C 
ATOM     19  O   UNL     1       0.640   3.376  18.583  0.00  0.00    +0.000 OA
ENDBRANCH  14  18
ENDBRANCH   1  14
TORSDOF 4
ENDMDL
MODEL 6
REMARK VINA RESULT:      -6.1      5.238      6.383
REMARK  Name = 
REMARK  6 active torsions:
REMARK  status: ('A' for Active; 'I' for Inactive)
REMARK    1  A    between atoms: C_1  and  N_2
REMARK    2  A    between atoms: N_2  and  C_3
REMARK    3  A    between atoms: C_4  and  C_6
REMARK    4  A    between atoms: C_6  and  C_7
REMARK    5  A    between atoms: C_10  and  N_11
REMARK    6  A    between atoms: C_12  and  C_14
REMARK                            x       y       z     vdW  Elec       q    Type
REMARK                         _______ _______ _______ _____ _____    ______ ____
ROOT
ATOM      1  C   UNL     1       2.654   6.713  18.617  0.00  0.00    +0.000 A 
ATOM      2  C   UNL     1       2.213   6.878  19.929  0.00  0.00    +0.000 A 
ATOM      3  C   UNL     1       1.609   8.069  20.315  0.00  0.00    +0.000 A 
ATOM      4  C   UNL     1       1.437   9.128  19.421  0.00  0.00    +0.000 A 
ATOM      5  C   UNL     1       1.903   8.973  18.111  0.00  0.00    +0.000 A 
ATOM      6  C   UNL     1       2.516   7.775  17.717  0.00  0.00    +0.000 A 
ENDROOT
BRANCH   4   7
ATOM      7  N   UNL     1       0.790  10.314  19.830  0.00  0.00    +0.000 N 
ATOM      8  C   UNL     1      -0.516  10.674  19.517  0.00  0.00    +0.000 C 
ATOM      9  O   UNL     1      -1.325  10.058  18.851  0.00  0.00    +0.000 OA
ATOM     10  H   UNL     1       1.345  10.972  20.373  0.00  0.00    +0.000 HD
BRANCH   8  11
ATOM     11  C   UNL     1      -0.974  11.990  20.023  0.00  0.00    +0.000 C 
ATOM     12  C   UNL     1      -2.393  12.425  20.276  0.00  0.00    +0.000 C 
ATOM     13  C   UNL     1      -1.513  12.054  21.433  0.00  0.00    +0.000 C 
ENDBRANCH   8  11
ENDBRANCH   4   7
BRANCH   1  14
ATOM     14  C   UNL     1       3.154   5.374  18.144  0.00  0.00    +0.000 C 
BRANCH  14  18
ATOM     15  C   UNL     1       0.968   2.362  19.013  0.00  0.00    +0.000 C 
ATOM     16  N   UNL     1       2.049   3.330  19.055  0.00  0.00    +0.000 N 
ATOM     17  C   UNL     1       3.087   3.174  20.060  0.00  0.00    +0.000 C 
ATOM     18  C   UNL     1       2.031   4.339  18.098  0.00  0.00    +0.000 C 
ATOM     19  O   UNL     1       1.145   4.399  17.244  0.00  0.00    +0.000 OA
ENDBRANCH  14  18
ENDBRANCH   1  14
TORSDOF 4
ENDMDL
MODEL 7
REMARK VINA RESULT:      -6.0      5.313      6.437
REMARK  Name = 
REMARK  6 active torsions:
REMARK  status: ('A' for Active; 'I' for Inactive)
REMARK    1  A    between atoms: C_1  and  N_2
REMARK    2  A    between atoms: N_2  and  C_3
REMARK    3  A    between atoms: C_4  and  C_6
REMARK    4  A    between atoms: C_6  and  C_7
REMARK    5  A    between atoms: C_10  and  N_11
REMARK    6  A    between atoms: C_12  and  C_14
REMARK                            x       y       z     vdW  Elec       q    Type
REMARK                         _______ _______ _______ _____ _____    ______ ____
ROOT
ATOM      1  C   UNL     1       2.510   6.795  18.504  0.00  0.00    +0.000 A 
ATOM      2  C   UNL     1       2.236   7.985  17.835  0.00  0.00    +0.000 A 
ATOM      3  C   UNL     1       1.692   9.062  18.527  0.00  0.00    +0.000 A 
ATOM      4  C   UNL     1       1.396   8.985  19.889  0.00  0.00    +0.000 A 
ATOM      5  C   UNL     1       1.647   7.781  20.556  0.00  0.00    +0.000 A 
ATOM      6  C   UNL     1       2.193   6.691  19.863  0.00  0.00    +0.000 A 
ENDROOT
BRANCH   4   7
ATOM      7  N   UNL     1       0.876  10.104  20.574  0.00  0.00    +0.000 N 
ATOM      8  C   UNL     1      -0.376  10.672  20.365  0.00  0.00    +0.000 C 
ATOM      9  O   UNL     1      -1.234  10.329  19.576  0.00  0.00    +0.000 OA
ATOM     10  H   UNL     1       1.489  10.547  21.255  0.00  0.00    +0.000 HD
BRANCH   8  11
ATOM     11  C   UNL     1      -0.696  11.872  21.175  0.00  0.00    +0.000 C 
ATOM     12  C   UNL     1      -2.058  12.329  21.627  0.00  0.00    +0.000 C 
ATOM     13  C   UNL     1      -1.136  11.661  22.604  0.00  0.00    +0.000 C 
ENDBRANCH   8  11
ENDBRANCH   4   7
BRANCH   1  14
ATOM     14  C   UNL     1       3.252   5.683  17.809  0.00  0.00    +0.000 C 
BRANCH  14  18
ATOM     15  C   UNL     1       2.361   2.090  18.759  0.00  0.00    +0.000 C 
ATOM     16  N   UNL     1       3.091   3.339  18.653  0.00  0.00    +0.000 N 
ATOM     17  C   UNL     1       4.392   3.443  19.292  0.00  0.00    +0.000 C 
ATOM     18  C   UNL     1       2.500   4.356  17.913  0.00  0.00    +0.000 C 
ATOM     19  O   UNL     1       1.410   4.198  17.359  0.00  0.00    +0.000 OA
ENDBRANCH  14  18
ENDBRANCH   1  14
TORSDOF 4
ENDMDL
MODEL 8
REMARK VINA RESULT:      -6.0      3.888      5.794
REMARK  Name = 
REMARK  6 active torsions:
REMARK  status: ('A' for Active; 'I' for Inactive)
REMARK    1  A    between atoms: C_1  and  N_2
REMARK    2  A    between atoms: N_2  and  C_3
REMARK    3  A    between atoms: C_4  and  C_6
REMARK    4  A    between atoms: C_6  and  C_7
REMARK    5  A    between atoms: C_10  and  N_11
REMARK    6  A    between atoms: C_12  and  C_14
REMARK                            x       y       z     vdW  Elec       q    Type
REMARK                         _______ _______ _______ _____ _____    ______ ____
ROOT
ATOM      1  C   UNL     1       4.946   5.184  16.958  0.00  0.00    +0.000 A 
ATOM      2  C   UNL     1       4.817   3.815  16.736  0.00  0.00    +0.000 A 
ATOM      3  C   UNL     1       5.269   3.259  15.544  0.00  0.00    +0.000 A 
ATOM      4  C   UNL     1       5.848   4.040  14.543  0.00  0.00    +0.000 A 
ATOM      5  C   UNL     1       5.954   5.419  14.755  0.00  0.00    +0.000 A 
ATOM      6  C   UNL     1       5.497   5.986  15.953  0.00  0.00    +0.000 A 
ENDROOT
BRANCH   4   7
ATOM      7  N   UNL     1       6.330   3.445  13.356  0.00  0.00    +0.000 N 
ATOM      8  C   UNL     1       5.578   3.190  12.215  0.00  0.00    +0.000 C 
ATOM      9  O   UNL     1       4.400   3.420  12.025  0.00  0.00    +0.000 OA
ATOM     10  H   UNL     1       7.303   3.151  13.358  0.00  0.00    +0.000 HD
BRANCH   8  11
ATOM     11  C   UNL     1       6.286   2.519  11.099  0.00  0.00    +0.000 C 
ATOM     12  C   UNL     1       7.592   1.770  11.168  0.00  0.00    +0.000 C 
ATOM     13  C   UNL     1       6.302   1.009  11.081  0.00  0.00    +0.000 C 
ENDBRANCH   8  11
ENDBRANCH   4   7
BRANCH   1  14
ATOM     14  C   UNL     1       4.616   5.771  18.305  0.00  0.00    +0.000 C 
BRANCH  14  18
ATOM     15  C   UNL     1       1.376   4.440  19.834  0.00  0.00    +0.000 C 
ATOM     16  N   UNL     1       2.783   4.576  19.508  0.00  0.00    +0.000 N 
ATOM     17  C   UNL     1       3.726   3.626  20.073  0.00  0.00    +0.000 C 
ATOM     18  C   UNL     1       3.134   5.606  18.642  0.00  0.00    +0.000 C 
ATOM     19  O   UNL     1       2.285   6.360  18.162  0.00  0.00    +0.000 OA
ENDBRANCH  14  18
ENDBRANCH   1  14
TORSDOF 4
ENDMDL
MODEL 9
REMARK VINA RESULT:      -6.0      3.837      5.794
REMARK  Name = 
REMARK  6 active torsions:
REMARK  status: ('A' for Active; 'I' for Inactive)
REMARK    1  A    between atoms: C_1  and  N_2
REMARK    2  A    between atoms: N_2  and  C_3
REMARK    3  A    between atoms: C_4  and  C_6
REMARK    4  A    between atoms: C_6  and  C_7
REMARK    5  A    between atoms: C_10  and  N_11
REMARK    6  A    between atoms: C_12  and  C_14
REMARK                            x       y       z     vdW  Elec       q    Type
REMARK                         _______ _______ _______ _____ _____    ______ ____
ROOT
ATOM      1  C   UNL     1       5.164   5.358  16.997  0.00  0.00    +0.000 A 
ATOM      2  C   UNL     1       5.211   6.089  15.812  0.00  0.00    +0.000 A 
ATOM      3  C   UNL     1       5.634   5.481  14.636  0.00  0.00    +0.000 A 
ATOM      4  C   UNL     1       6.030   4.143  14.603  0.00  0.00    +0.000 A 
ATOM      5  C   UNL     1       6.009   3.415  15.799  0.00  0.00    +0.000 A 
ATOM      6  C   UNL     1       5.586   4.024  16.988  0.00  0.00    +0.000 A 
ENDROOT
BRANCH   4   7
ATOM      7  N   UNL     1       6.423   3.540  13.389  0.00  0.00    +0.000 N 
ATOM      8  C   UNL     1       5.582   3.246  12.322  0.00  0.00    +0.000 C 
ATOM      9  O   UNL     1       4.385   3.441  12.232  0.00  0.00    +0.000 OA
ATOM     10  H   UNL     1       7.401   3.271  13.309  0.00  0.00    +0.000 HD
BRANCH   8  11
ATOM     11  C   UNL     1       6.208   2.573  11.158  0.00  0.00    +0.000 C 
ATOM     12  C   UNL     1       7.490   1.784  11.144  0.00  0.00    +0.000 C 
ATOM     13  C   UNL     1       6.175   1.064  11.114  0.00  0.00    +0.000 C 
ENDBRANCH   8  11
ENDBRANCH   4   7
BRANCH   1  14
ATOM     14  C   UNL     1       4.552   5.954  18.238  0.00  0.00    +0.000 C 
BRANCH  14  18
ATOM     15  C   UNL     1       1.363   4.145  19.317  0.00  0.00    +0.000 C 
ATOM     16  N   UNL     1       2.766   4.486  19.181  0.00  0.00    +0.000 N 
ATOM     17  C   UNL     1       3.753   3.664  19.861  0.00  0.00    +0.000 C 
ATOM     18  C   UNL     1       3.077   5.575  18.374  0.00  0.00    +0.000 C 
ATOM     19  O   UNL     1       2.199   6.212  17.789  0.00  0.00    +0.000 OA
ENDBRANCH  14  18
ENDBRANCH   1  14
TORSDOF 4
ENDMDL
