MODEL 1
REMARK VINA RESULT:      -7.3      0.000      0.000
REMARK  Name = 
REMARK  7 active torsions:
REMARK  status: ('A' for Active; 'I' for Inactive)
REMARK    1  A    between atoms: C_1  and  C_2
REMARK    2  A    between atoms: C_8  and  C_9
REMARK    3  A    between atoms: C_9  and  S_10
REMARK    4  A    between atoms: S_10  and  N_13
REMARK    5  A    between atoms: N_13  and  C_14
REMARK    6  A    between atoms: C_14  and  C_15
REMARK    7  A    between atoms: C_14  and  C_16
REMARK                            x       y       z     vdW  Elec       q    Type
REMARK                         _______ _______ _______ _____ _____    ______ ____
ROOT
ATOM      1  S   UNL     1       4.349   3.595  18.669  0.00  0.00    +0.000 S 
ATOM      2  O   UNL     1       3.097   3.032  18.210  0.00  0.00    +0.000 OA
ATOM      3  O   UNL     1       5.119   2.957  19.714  0.00  0.00    +0.000 OA
ENDROOT
BRANCH   1   4
ATOM      4  N   UNL     1       3.917   5.127  19.261  0.00  0.00    +0.000 NA
ATOM      5  H   UNL     1       4.355   5.805  18.630  0.00  0.00    +0.000 HD
BRANCH   4   6
ATOM      6  C   UNL     1       2.471   5.445  19.487  0.00  0.00    +0.000 C 
ATOM      7  C   UNL     1       2.069   5.191  20.940  0.00  0.00    +0.000 C 
BRANCH   6   8
ATOM      8  C   UNL     1       2.095   6.899  19.195  0.00  0.00    +0.000 A 
ATOM      9  C   UNL     1       2.388   7.521  17.978  0.00  0.00    +0.000 A 
ATOM     10  C   UNL     1       2.143   8.889  17.837  0.00  0.00    +0.000 A 
ATOM     11  C   UNL     1       1.634   9.606  18.912  0.00  0.00    +0.000 A 
ATOM     12 CL   UNL     1       1.363  11.296  18.795  0.00  0.00    +0.000 Cl
ATOM     13  C   UNL     1       1.369   8.925  20.086  0.00  0.00    +0.000 A 
ATOM     14  N   UNL     1       1.580   7.595  20.244  0.00  0.00    +0.000 NA
ENDBRANCH   6   8
ENDBRANCH   4   6
ENDBRANCH   1   4
BRANCH   1  15
ATOM     15  C   UNL     1       5.390   3.954  17.244  0.00  0.00    +0.000 C 
BRANCH  15  23
ATOM     16  C   UNL     1       5.159   6.593  15.758  0.00  0.00    +0.000 C 
ATOM     17  C   UNL     1       6.153   6.376  16.865  0.00  0.00    +0.000 A 
ATOM     18  C   UNL     1       6.961   7.455  17.266  0.00  0.00    +0.000 A 
ATOM     19  C   UNL     1       7.904   7.298  18.273  0.00  0.00    +0.000 A 
ATOM     20  F   UNL     1       8.649   8.346  18.651  0.00  0.00    +0.000 F 
ATOM     21  C   UNL     1       8.083   6.074  18.897  0.00  0.00    +0.000 A 
ATOM     22  C   UNL     1       7.288   4.994  18.517  0.00  0.00    +0.000 A 
ATOM     23  C   UNL     1       6.304   5.131  17.513  0.00  0.00    +0.000 A 
ENDBRANCH  15  23
ENDBRANCH   1  15
TORSDOF 5
ENDMDL
MODEL 2
REMARK VINA RESULT:      -7.2      0.637      1.088
REMARK  Name = 
REMARK  7 active torsions:
REMARK  status: ('A' for Active; 'I' for Inactive)
REMARK    1  A    between atoms: C_1  and  C_2
REMARK    2  A    between atoms: C_8  and  C_9
REMARK    3  A    between atoms: C_9  and  S_10
REMARK    4  A    between atoms: S_10  and  N_13
REMARK    5  A    between atoms: N_13  and  C_14
REMARK    6  A    between atoms: C_14  and  C_15
REMARK    7  A    between atoms: C_14  and  C_16
REMARK                            x       y       z     vdW  Elec       q    Type
REMARK                         _______ _______ _______ _____ _____    ______ ____
ROOT
ATOM      1  S   UNL     1       4.203   3.627  18.469  0.00  0.00    +0.000 S 
ATOM      2  O   UNL     1       2.952   3.155  17.915  0.00  0.00    +0.000 OA
ATOM      3  O   UNL     1       4.858   2.920  19.548  0.00  0.00    +0.000 OA
ENDROOT
BRANCH   1   4
ATOM      4  N   UNL     1       3.829   5.173  19.067  0.00  0.00    +0.000 NA
ATOM      5  H   UNL     1       4.130   5.832  18.344  0.00  0.00    +0.000 HD
BRANCH   4   6
ATOM      6  C   UNL     1       2.434   5.463  19.526  0.00  0.00    +0.000 C 
ATOM      7  C   UNL     1       2.185   4.903  20.928  0.00  0.00    +0.000 C 
BRANCH   6   8
ATOM      8  C   UNL     1       2.097   6.953  19.604  0.00  0.00    +0.000 A 
ATOM      9  C   UNL     1       1.474   7.525  20.717  0.00  0.00    +0.000 A 
ATOM     10  C   UNL     1       1.069   8.861  20.657  0.00  0.00    +0.000 A 
ATOM     11  C   UNL     1       1.274   9.586  19.490  0.00  0.00    +0.000 A 
ATOM     12 CL   UNL     1       0.749  11.214  19.360  0.00  0.00    +0.000 Cl
ATOM     13  C   UNL     1       1.895   8.954  18.429  0.00  0.00    +0.000 A 
ATOM     14  N   UNL     1       2.315   7.665  18.465  0.00  0.00    +0.000 NA
ENDBRANCH   6   8
ENDBRANCH   4   6
ENDBRANCH   1   4
BRANCH   1  15
ATOM     15  C   UNL     1       5.359   3.946  17.126  0.00  0.00    +0.000 C 
BRANCH  15  23
ATOM     16  C   UNL     1       5.104   6.677  15.823  0.00  0.00    +0.000 C 
ATOM     17  C   UNL     1       6.119   6.387  16.894  0.00  0.00    +0.000 A 
ATOM     18  C   UNL     1       6.936   7.437  17.350  0.00  0.00    +0.000 A 
ATOM     19  C   UNL     1       7.898   7.213  18.326  0.00  0.00    +0.000 A 
ATOM     20  F   UNL     1       8.651   8.233  18.759  0.00  0.00    +0.000 F 
ATOM     21  C   UNL     1       8.087   5.950  18.864  0.00  0.00    +0.000 A 
ATOM     22  C   UNL     1       7.283   4.898  18.429  0.00  0.00    +0.000 A 
ATOM     23  C   UNL     1       6.280   5.102  17.454  0.00  0.00    +0.000 A 
ENDBRANCH  15  23
ENDBRANCH   1  15
TORSDOF 5
ENDMDL
MODEL 3
REMARK VINA RESULT:      -7.1      3.438      5.637
REMARK  Name = 
REMARK  7 active torsions:
REMARK  status: ('A' for Active; 'I' for Inactive)
REMARK    1  A    between atoms: C_1  and  C_2
REMARK    2  A    between atoms: C_8  and  C_9
REMARK    3  A    between atoms: C_9  and  S_10
REMARK    4  A    between atoms: S_10  and  N_13
REMARK    5  A    between atoms: N_13  and  C_14
REMARK    6  A    between atoms: C_14  and  C_15
REMARK    7  A    between atoms: C_14  and  C_16
REMARK                            x       y       z     vdW  Elec       q    Type
REMARK                         _______ _______ _______ _____ _____    ______ ____
ROOT
ATOM      1  S   UNL     1       1.721   4.546  19.490  0.00  0.00    +0.000 S 
ATOM      2  O   UNL     1       0.730   4.384  20.532  0.00  0.00    +0.000 OA
ATOM      3  O   UNL     1       1.334   4.705  18.106  0.00  0.00    +0.000 OA
ENDROOT
BRANCH   1   4
ATOM      4  N   UNL     1       2.638   3.118  19.571  0.00  0.00    +0.000 NA
ATOM      5  H   UNL     1       2.366   2.565  18.752  0.00  0.00    +0.000 HD
BRANCH   4   6
ATOM      6  C   UNL     1       4.126   3.209  19.700  0.00  0.00    +0.000 C 
ATOM      7  C   UNL     1       4.741   1.838  19.988  0.00  0.00    +0.000 C 
BRANCH   6   8
ATOM      8  C   UNL     1       4.834   3.732  18.448  0.00  0.00    +0.000 A 
ATOM      9  C   UNL     1       4.353   3.492  17.158  0.00  0.00    +0.000 A 
ATOM     10  C   UNL     1       5.129   3.878  16.062  0.00  0.00    +0.000 A 
ATOM     11  C   UNL     1       6.366   4.471  16.274  0.00  0.00    +0.000 A 
ATOM     12 CL   UNL     1       7.368   4.916  14.955  0.00  0.00    +0.000 Cl
ATOM     13  C   UNL     1       6.778   4.675  17.578  0.00  0.00    +0.000 A 
ATOM     14  N   UNL     1       6.038   4.328  18.661  0.00  0.00    +0.000 NA
ENDBRANCH   6   8
ENDBRANCH   4   6
ENDBRANCH   1   4
BRANCH   1  15
ATOM     15  C   UNL     1       2.880   5.837  19.977  0.00  0.00    +0.000 C 
BRANCH  15  23
ATOM     16  C   UNL     1       3.717   7.137  17.363  0.00  0.00    +0.000 C 
ATOM     17  C   UNL     1       2.734   7.778  18.303  0.00  0.00    +0.000 A 
ATOM     18  C   UNL     1       2.136   8.993  17.926  0.00  0.00    +0.000 A 
ATOM     19  C   UNL     1       1.234   9.631  18.768  0.00  0.00    +0.000 A 
ATOM     20  F   UNL     1       0.662  10.778  18.379  0.00  0.00    +0.000 F 
ATOM     21  C   UNL     1       0.913   9.094  20.004  0.00  0.00    +0.000 A 
ATOM     22  C   UNL     1       1.491   7.887  20.393  0.00  0.00    +0.000 A 
ATOM     23  C   UNL     1       2.393   7.204  19.546  0.00  0.00    +0.000 A 
ENDBRANCH  15  23
ENDBRANCH   1  15
TORSDOF 5
ENDMDL
MODEL 4
REMARK VINA RESULT:      -7.0      4.406      6.874
REMARK  Name = 
REMARK  7 active torsions:
REMARK  status: ('A' for Active; 'I' for Inactive)
REMARK    1  A    between atoms: C_1  and  C_2
REMARK    2  A    between atoms: C_8  and  C_9
REMARK    3  A    between atoms: C_9  and  S_10
REMARK    4  A    between atoms: S_10  and  N_13
REMARK    5  A    between atoms: N_13  and  C_14
REMARK    6  A    between atoms: C_14  and  C_15
REMARK    7  A    between atoms: C_14  and  C_16
REMARK                            x       y       z     vdW  Elec       q    Type
REMARK                         _______ _______ _______ _____ _____    ______ ____
ROOT
ATOM      1  S   UNL     1       5.807   4.642  19.212  0.00  0.00    +0.000 S 
ATOM      2  O   UNL     1       6.817   5.436  19.879  0.00  0.00    +0.000 OA
ATOM      3  O   UNL     1       5.432   3.337  19.708  0.00  0.00    +0.000 OA
ENDROOT
BRANCH   1   4
ATOM      4  N   UNL     1       6.440   4.399  17.654  0.00  0.00    +0.000 NA
ATOM      5  H   UNL     1       6.022   3.527  17.316  0.00  0.00    +0.000 HD
BRANCH   4   6
ATOM      6  C   UNL     1       6.325   5.491  16.638  0.00  0.00    +0.000 C 
ATOM      7  C   UNL     1       7.402   6.557  16.847  0.00  0.00    +0.000 C 
BRANCH   6   8
ATOM      8  C   UNL     1       6.477   5.020  15.190  0.00  0.00    +0.000 A 
ATOM      9  C   UNL     1       5.644   4.050  14.625  0.00  0.00    +0.000 A 
ATOM     10  C   UNL     1       5.933   3.568  13.346  0.00  0.00    +0.000 A 
ATOM     11  C   UNL     1       7.049   4.045  12.672  0.00  0.00    +0.000 A 
ATOM     12 CL   UNL     1       7.463   3.444  11.119  0.00  0.00    +0.000 Cl
ATOM     13  C   UNL     1       7.828   5.003  13.293  0.00  0.00    +0.000 A 
ATOM     14  N   UNL     1       7.561   5.503  14.525  0.00  0.00    +0.000 NA
ENDBRANCH   6   8
ENDBRANCH   4   6
ENDBRANCH   1   4
BRANCH   1  15
ATOM     15  C   UNL     1       4.346   5.659  18.936  0.00  0.00    +0.000 C 
BRANCH  15  23
ATOM     16  C   UNL     1       2.970   3.955  16.832  0.00  0.00    +0.000 C 
ATOM     17  C   UNL     1       2.474   4.043  18.249  0.00  0.00    +0.000 A 
ATOM     18  C   UNL     1       1.370   3.258  18.625  0.00  0.00    +0.000 A 
ATOM     19  C   UNL     1       0.866   3.317  19.918  0.00  0.00    +0.000 A 
ATOM     20  F   UNL     1      -0.175   2.546  20.258  0.00  0.00    +0.000 F 
ATOM     21  C   UNL     1       1.428   4.160  20.863  0.00  0.00    +0.000 A 
ATOM     22  C   UNL     1       2.527   4.941  20.511  0.00  0.00    +0.000 A 
ATOM     23  C   UNL     1       3.076   4.883  19.210  0.00  0.00    +0.000 A 
ENDBRANCH  15  23
ENDBRANCH   1  15
TORSDOF 5
ENDMDL
MODEL 5
REMARK VINA RESULT:      -7.0      3.721      6.163
REMARK  Name = 
REMARK  7 active torsions:
REMARK  status: ('A' for Active; 'I' for Inactive)
REMARK    1  A    between atoms: C_1  and  C_2
REMARK    2  A    between atoms: C_8  and  C_9
REMARK    3  A    between atoms: C_9  and  S_10
REMARK    4  A    between atoms: S_10  and  N_13
REMARK    5  A    between atoms: N_13  and  C_14
REMARK    6  A    between atoms: C_14  and  C_15
REMARK    7  A    between atoms: C_14  and  C_16
REMARK                            x       y       z     vdW  Elec       q    Type
REMARK                         _______ _______ _______ _____ _____    ______ ____
ROOT
ATOM      1  S   UNL     1       3.609   6.057  17.924  0.00  0.00    +0.000 S 
ATOM      2  O   UNL     1       3.437   7.448  17.563  0.00  0.00    +0.000 OA
ATOM      3  O   UNL     1       4.287   5.678  19.143  0.00  0.00    +0.000 OA
ENDROOT
BRANCH   1   4
ATOM      4  N   UNL     1       4.525   5.413  16.646  0.00  0.00    +0.000 NA
ATOM      5  H   UNL     1       4.505   6.119  15.904  0.00  0.00    +0.000 HD
BRANCH   4   6
ATOM      6  C   UNL     1       5.919   4.937  16.911  0.00  0.00    +0.000 C 
ATOM      7  C   UNL     1       6.564   4.378  15.642  0.00  0.00    +0.000 C 
BRANCH   6   8
ATOM      8  C   UNL     1       6.867   6.025  17.420  0.00  0.00    +0.000 A 
ATOM      9  C   UNL     1       7.661   5.857  18.558  0.00  0.00    +0.000 A 
ATOM     10  C   UNL     1       8.392   6.944  19.042  0.00  0.00    +0.000 A 
ATOM     11  C   UNL     1       8.301   8.171  18.398  0.00  0.00    +0.000 A 
ATOM     12 CL   UNL     1       9.148   9.542  18.988  0.00  0.00    +0.000 Cl
ATOM     13  C   UNL     1       7.496   8.263  17.278  0.00  0.00    +0.000 A 
ATOM     14  N   UNL     1       6.789   7.220  16.775  0.00  0.00    +0.000 NA
ENDBRANCH   6   8
ENDBRANCH   4   6
ENDBRANCH   1   4
BRANCH   1  15
ATOM     15  C   UNL     1       2.022   5.215  17.793  0.00  0.00    +0.000 C 
BRANCH  15  23
ATOM     16  C   UNL     1       2.598   2.246  17.504  0.00  0.00    +0.000 C 
ATOM     17  C   UNL     1       2.157   2.859  18.805  0.00  0.00    +0.000 A 
ATOM     18  C   UNL     1       2.068   2.036  19.941  0.00  0.00    +0.000 A 
ATOM     19  C   UNL     1       1.650   2.554  21.160  0.00  0.00    +0.000 A 
ATOM     20  F   UNL     1       1.593   1.755  22.234  0.00  0.00    +0.000 F 
ATOM     21  C   UNL     1       1.297   3.888  21.284  0.00  0.00    +0.000 A 
ATOM     22  C   UNL     1       1.383   4.721  20.170  0.00  0.00    +0.000 A 
ATOM     23  C   UNL     1       1.829   4.227  18.923  0.00  0.00    +0.000 A 
ENDBRANCH  15  23
ENDBRANCH   1  15
TORSDOF 5
ENDMDL
MODEL 6
REMARK VINA RESULT:      -6.9      1.707      2.058
REMARK  Name = 
REMARK  7 active torsions:
REMARK  status: ('A' for Active; 'I' for Inactive)
REMARK    1  A    between atoms: C_1  and  C_2
REMARK    2  A    between atoms: C_8  and  C_9
REMARK    3  A    between atoms: C_9  and  S_10
REMARK    4  A    between atoms: S_10  and  N_13
REMARK    5  A    between atoms: N_13  and  C_14
REMARK    6  A    between atoms: C_14  and  C_15
REMARK    7  A    between atoms: C_14  and  C_16
REMARK                            x       y       z     vdW  Elec       q    Type
REMARK                         _______ _______ _______ _____ _____    ______ ____
ROOT
ATOM      1  S   UNL     1       2.465   4.153  18.417  0.00  0.00    +0.000 S 
ATOM      2  O   UNL     1       1.257   3.490  17.974  0.00  0.00    +0.000 OA
ATOM      3  O   UNL     1       2.725   4.377  19.822  0.00  0.00    +0.000 OA
ENDROOT
BRANCH   1   4
ATOM      4  N   UNL     1       2.378   5.689  17.695  0.00  0.00    +0.000 NA
ATOM      5  H   UNL     1       1.382   5.866  17.533  0.00  0.00    +0.000 HD
BRANCH   4   6
ATOM      6  C   UNL     1       3.038   6.853  18.367  0.00  0.00    +0.000 C 
ATOM      7  C   UNL     1       3.913   7.634  17.386  0.00  0.00    +0.000 C 
BRANCH   6   8
ATOM      8  C   UNL     1       2.062   7.870  18.961  0.00  0.00    +0.000 A 
ATOM      9  C   UNL     1       1.575   8.958  18.231  0.00  0.00    +0.000 A 
ATOM     10  C   UNL     1       0.802   9.922  18.884  0.00  0.00    +0.000 A 
ATOM     11  C   UNL     1       0.550   9.791  20.243  0.00  0.00    +0.000 A 
ATOM     12 CL   UNL     1      -0.356  10.977  21.090  0.00  0.00    +0.000 Cl
ATOM     13  C   UNL     1       1.065   8.689  20.900  0.00  0.00    +0.000 A 
ATOM     14  N   UNL     1       1.803   7.729  20.289  0.00  0.00    +0.000 NA
ENDBRANCH   6   8
ENDBRANCH   4   6
ENDBRANCH   1   4
BRANCH   1  15
ATOM     15  C   UNL     1       3.885   3.378  17.626  0.00  0.00    +0.000 C 
BRANCH  15  23
ATOM     16  C   UNL     1       5.477   4.424  15.260  0.00  0.00    +0.000 C 
ATOM     17  C   UNL     1       5.833   4.759  16.682  0.00  0.00    +0.000 A 
ATOM     18  C   UNL     1       6.904   5.639  16.919  0.00  0.00    +0.000 A 
ATOM     19  C   UNL     1       7.279   5.965  18.216  0.00  0.00    +0.000 A 
ATOM     20  F   UNL     1       8.291   6.820  18.416  0.00  0.00    +0.000 F 
ATOM     21  C   UNL     1       6.619   5.422  19.306  0.00  0.00    +0.000 A 
ATOM     22  C   UNL     1       5.551   4.553  19.092  0.00  0.00    +0.000 A 
ATOM     23  C   UNL     1       5.132   4.222  17.783  0.00  0.00    +0.000 A 
ENDBRANCH  15  23
ENDBRANCH   1  15
TORSDOF 5
ENDMDL
MODEL 7
REMARK VINA RESULT:      -6.9      2.812      5.589
REMARK  Name = 
REMARK  7 active torsions:
REMARK  status: ('A' for Active; 'I' for Inactive)
REMARK    1  A    between atoms: C_1  and  C_2
REMARK    2  A    between atoms: C_8  and  C_9
REMARK    3  A    between atoms: C_9  and  S_10
REMARK    4  A    between atoms: S_10  and  N_13
REMARK    5  A    between atoms: N_13  and  C_14
REMARK    6  A    between atoms: C_14  and  C_15
REMARK    7  A    between atoms: C_14  and  C_16
REMARK                            x       y       z     vdW  Elec       q    Type
REMARK                         _______ _______ _______ _____ _____    ______ ____
ROOT
ATOM      1  S   UNL     1       4.030   2.722  18.254  0.00  0.00    +0.000 S 
ATOM      2  O   UNL     1       4.754   2.994  19.478  0.00  0.00    +0.000 OA
ATOM      3  O   UNL     1       4.177   1.461  17.561  0.00  0.00    +0.000 OA
ENDROOT
BRANCH   1   4
ATOM      4  N   UNL     1       4.572   3.923  17.182  0.00  0.00    +0.000 NA
ATOM      5  H   UNL     1       4.304   4.817  17.604  0.00  0.00    +0.000 HD
BRANCH   4   6
ATOM      6  C   UNL     1       6.006   3.930  16.753  0.00  0.00    +0.000 C 
ATOM      7  C   UNL     1       6.128   3.889  15.228  0.00  0.00    +0.000 C 
BRANCH   6   8
ATOM      8  C   UNL     1       6.791   5.164  17.204  0.00  0.00    +0.000 A 
ATOM      9  C   UNL     1       7.415   5.242  18.451  0.00  0.00    +0.000 A 
ATOM     10  C   UNL     1       7.990   6.452  18.849  0.00  0.00    +0.000 A 
ATOM     11  C   UNL     1       7.912   7.554  18.009  0.00  0.00    +0.000 A 
ATOM     12 CL   UNL     1       8.564   9.070  18.480  0.00  0.00    +0.000 Cl
ATOM     13  C   UNL     1       7.278   7.403  16.789  0.00  0.00    +0.000 A 
ATOM     14  N   UNL     1       6.728   6.237  16.370  0.00  0.00    +0.000 NA
ENDBRANCH   6   8
ENDBRANCH   4   6
ENDBRANCH   1   4
BRANCH   1  15
ATOM     15  C   UNL     1       2.289   3.110  18.500  0.00  0.00    +0.000 C 
BRANCH  15  23
ATOM     16  C   UNL     1       1.794   3.784  21.420  0.00  0.00    +0.000 C 
ATOM     17  C   UNL     1       1.939   4.842  20.362  0.00  0.00    +0.000 A 
ATOM     18  C   UNL     1       1.905   6.193  20.752  0.00  0.00    +0.000 A 
ATOM     19  C   UNL     1       2.019   7.206  19.808  0.00  0.00    +0.000 A 
ATOM     20  F   UNL     1       2.004   8.485  20.206  0.00  0.00    +0.000 F 
ATOM     21  C   UNL     1       2.154   6.912  18.461  0.00  0.00    +0.000 A 
ATOM     22  C   UNL     1       2.195   5.579  18.056  0.00  0.00    +0.000 A 
ATOM     23  C   UNL     1       2.106   4.528  18.996  0.00  0.00    +0.000 A 
ENDBRANCH  15  23
ENDBRANCH   1  15
TORSDOF 5
ENDMDL
MODEL 8
REMARK VINA RESULT:      -6.8      4.567      7.091
REMARK  Name = 
REMARK  7 active torsions:
REMARK  status: ('A' for Active; 'I' for Inactive)
REMARK    1  A    between atoms: C_1  and  C_2
REMARK    2  A    between atoms: C_8  and  C_9
REMARK    3  A    between atoms: C_9  and  S_10
REMARK    4  A    between atoms: S_10  and  N_13
REMARK    5  A    between atoms: N_13  and  C_14
REMARK    6  A    between atoms: C_14  and  C_15
REMARK    7  A    between atoms: C_14  and  C_16
REMARK                            x       y       z     vdW  Elec       q    Type
REMARK                         _______ _______ _______ _____ _____    ______ ____
ROOT
ATOM      1  S   UNL     1       4.106   6.079  18.065  0.00  0.00    +0.000 S 
ATOM      2  O   UNL     1       4.237   7.406  17.504  0.00  0.00    +0.000 OA
ATOM      3  O   UNL     1       4.702   5.743  19.340  0.00  0.00    +0.000 OA
ENDROOT
BRANCH   1   4
ATOM      4  N   UNL     1       4.842   5.072  16.912  0.00  0.00    +0.000 NA
ATOM      5  H   UNL     1       4.133   4.907  16.192  0.00  0.00    +0.000 HD
BRANCH   4   6
ATOM      6  C   UNL     1       6.149   5.482  16.309  0.00  0.00    +0.000 C 
ATOM      7  C   UNL     1       7.327   4.941  17.121  0.00  0.00    +0.000 C 
BRANCH   6   8
ATOM      8  C   UNL     1       6.363   4.985  14.878  0.00  0.00    +0.000 A 
ATOM      9  C   UNL     1       5.544   4.019  14.287  0.00  0.00    +0.000 A 
ATOM     10  C   UNL     1       5.887   3.512  13.032  0.00  0.00    +0.000 A 
ATOM     11  C   UNL     1       7.042   3.961  12.406  0.00  0.00    +0.000 A 
ATOM     12 CL   UNL     1       7.522   3.330  10.884  0.00  0.00    +0.000 Cl
ATOM     13  C   UNL     1       7.805   4.917  13.050  0.00  0.00    +0.000 A 
ATOM     14  N   UNL     1       7.487   5.440  14.259  0.00  0.00    +0.000 NA
ENDBRANCH   6   8
ENDBRANCH   4   6
ENDBRANCH   1   4
BRANCH   1  15
ATOM     15  C   UNL     1       2.373   5.592  18.028  0.00  0.00    +0.000 C 
BRANCH  15  23
ATOM     16  C   UNL     1       2.446   2.615  17.430  0.00  0.00    +0.000 C 
ATOM     17  C   UNL     1       2.171   3.154  18.807  0.00  0.00    +0.000 A 
ATOM     18  C   UNL     1       2.004   2.243  19.865  0.00  0.00    +0.000 A 
ATOM     19  C   UNL     1       1.733   2.693  21.151  0.00  0.00    +0.000 A 
ATOM     20  F   UNL     1       1.597   1.808  22.147  0.00  0.00    +0.000 F 
ATOM     21  C   UNL     1       1.607   4.046  21.420  0.00  0.00    +0.000 A 
ATOM     22  C   UNL     1       1.774   4.965  20.385  0.00  0.00    +0.000 A 
ATOM     23  C   UNL     1       2.075   4.536  19.072  0.00  0.00    +0.000 A 
ENDBRANCH  15  23
ENDBRANCH   1  15
TORSDOF 5
ENDMDL
MODEL 9
REMARK VINA RESULT:      -6.7      2.092      2.811
REMARK  Name = 
REMARK  7 active torsions:
REMARK  status: ('A' for Active; 'I' for Inactive)
REMARK    1  A    between atoms: C_1  and  C_2
REMARK    2  A    between atoms: C_8  and  C_9
REMARK    3  A    between atoms: C_9  and  S_10
REMARK    4  A    between atoms: S_10  and  N_13
REMARK    5  A    between atoms: N_13  and  C_14
REMARK    6  A    between atoms: C_14  and  C_15
REMARK    7  A    between atoms: C_14  and  C_16
REMARK                            x       y       z     vdW  Elec       q    Type
REMARK                         _______ _______ _______ _____ _____    ______ ____
ROOT
ATOM      1  S   UNL     1       2.739   4.370  19.157  0.00  0.00    +0.000 S 
ATOM      2  O   UNL     1       1.491   3.675  18.922  0.00  0.00    +0.000 OA
ATOM      3  O   UNL     1       3.013   5.009  20.425  0.00  0.00    +0.000 OA
ENDROOT
BRANCH   1   4
ATOM      4  N   UNL     1       2.749   5.603  17.988  0.00  0.00    +0.000 NA
ATOM      5  H   UNL     1       1.793   5.648  17.622  0.00  0.00    +0.000 HD
BRANCH   4   6
ATOM      6  C   UNL     1       3.257   6.960  18.359  0.00  0.00    +0.000 C 
ATOM      7  C   UNL     1       4.042   7.591  17.207  0.00  0.00    +0.000 C 
BRANCH   6   8
ATOM      8  C   UNL     1       2.161   7.965  18.718  0.00  0.00    +0.000 A 
ATOM      9  C   UNL     1       1.628   8.861  17.788  0.00  0.00    +0.000 A 
ATOM     10  C   UNL     1       0.734   9.842  18.224  0.00  0.00    +0.000 A 
ATOM     11  C   UNL     1       0.409   9.920  19.572  0.00  0.00    +0.000 A 
ATOM     12 CL   UNL     1      -0.649  11.139  20.154  0.00  0.00    +0.000 Cl
ATOM     13  C   UNL     1       0.975   9.000  20.435  0.00  0.00    +0.000 A 
ATOM     14  N   UNL     1       1.830   8.027  20.037  0.00  0.00    +0.000 NA
ENDBRANCH   6   8
ENDBRANCH   4   6
ENDBRANCH   1   4
BRANCH   1  15
ATOM     15  C   UNL     1       4.107   3.302  18.678  0.00  0.00    +0.000 C 
BRANCH  15  23
ATOM     16  C   UNL     1       6.433   5.133  19.358  0.00  0.00    +0.000 C 
ATOM     17  C   UNL     1       6.091   4.756  17.943  0.00  0.00    +0.000 A 
ATOM     18  C   UNL     1       6.918   5.219  16.905  0.00  0.00    +0.000 A 
ATOM     19  C   UNL     1       6.633   4.910  15.581  0.00  0.00    +0.000 A 
ATOM     20  F   UNL     1       7.447   5.347  14.610  0.00  0.00    +0.000 F 
ATOM     21  C   UNL     1       5.523   4.151  15.250  0.00  0.00    +0.000 A 
ATOM     22  C   UNL     1       4.694   3.678  16.266  0.00  0.00    +0.000 A 
ATOM     23  C   UNL     1       4.973   3.956  17.623  0.00  0.00    +0.000 A 
ENDBRANCH  15  23
ENDBRANCH   1  15
TORSDOF 5
ENDMDL
