MODEL 1
REMARK VINA RESULT:      -7.7      0.000      0.000
REMARK  Name = 
REMARK  7 active torsions:
REMARK  status: ('A' for Active; 'I' for Inactive)
REMARK    1  A    between atoms: N_5  and  C_6
REMARK    2  A    between atoms: C_6  and  C_7
REMARK    3  A    between atoms: C_7  and  C_8
REMARK    4  A    between atoms: C_8  and  O_9
REMARK    5  A    between atoms: C_14  and  C_15
REMARK    6  A    between atoms: C_18  and  C_19
REMARK    7  A    between atoms: C_24  and  O_25
REMARK                            x       y       z     vdW  Elec       q    Type
REMARK                         _______ _______ _______ _____ _____    ______ ____
ROOT
ATOM      1  O   UNL     1       8.292   4.230  17.549  0.00  0.00    +0.000 OA
ATOM      2  C   UNL     1       7.333   4.411  16.817  0.00  0.00    +0.000 C 
ATOM      3  N   UNL     1       7.355   4.336  15.441  0.00  0.00    +0.000 NA
ATOM      4  C   UNL     1       6.217   4.613  14.903  0.00  0.00    +0.000 C 
ATOM      5  N   UNL     1       5.904   4.591  13.581  0.00  0.00    +0.000 N 
ATOM      6  S   UNL     1       4.924   5.050  15.993  0.00  0.00    +0.000 S 
ATOM      7  C   UNL     1       5.969   4.743  17.324  0.00  0.00    +0.000 C 
ATOM      8  C   UNL     1       5.661   4.752  18.628  0.00  0.00    +0.000 C 
ATOM      9  H   UNL     1       4.925   4.761  13.377  0.00  0.00    +0.000 HD
ENDROOT
BRANCH   8  10
ATOM     10  C   UNL     1       4.371   5.015  19.161  0.00  0.00    +0.000 A 
ATOM     11  C   UNL     1       3.543   4.070  19.719  0.00  0.00    +0.000 A 
ATOM     12  S   UNL     1       2.148   4.845  20.331  0.00  0.00    +0.000 S 
ATOM     13  C   UNL     1       2.696   6.357  19.690  0.00  0.00    +0.000 A 
ATOM     14  N   UNL     1       3.901   6.309  19.145  0.00  0.00    +0.000 NA
BRANCH  13  15
ATOM     15  C   UNL     1       1.903   7.596  19.833  0.00  0.00    +0.000 A 
ATOM     16  C   UNL     1       1.256   7.837  21.061  0.00  0.00    +0.000 A 
ATOM     17  C   UNL     1       0.499   8.993  21.273  0.00  0.00    +0.000 A 
ATOM     18  C   UNL     1       0.376   9.939  20.258  0.00  0.00    +0.000 A 
ATOM     19  C   UNL     1       1.016   9.732  19.039  0.00  0.00    +0.000 A 
ATOM     20  C   UNL     1       1.778   8.577  18.833  0.00  0.00    +0.000 A 
BRANCH  20  21
ATOM     21  O   UNL     1       2.432   8.441  17.638  0.00  0.00    +0.000 OA
ATOM     22  H   UNL     1       1.818   8.619  16.908  0.00  0.00    +0.000 HD
ENDBRANCH  20  21
ENDBRANCH  13  15
ENDBRANCH   8  10
BRANCH   5  23
ATOM     23  C   UNL     1       6.517   3.615  12.699  0.00  0.00    +0.000 C 
BRANCH  23  24
ATOM     24  C   UNL     1       5.492   2.957  11.810  0.00  0.00    +0.000 C 
ATOM     25  C   UNL     1       4.049   3.257  12.183  0.00  0.00    +0.000 C 
ATOM     26  C   UNL     1       4.604   3.781  10.892  0.00  0.00    +0.000 C 
BRANCH  24  27
ATOM     27  C   UNL     1       5.857   1.576  11.315  0.00  0.00    +0.000 C 
BRANCH  27  28
ATOM     28  O   UNL     1       7.266   1.408  11.317  0.00  0.00    +0.000 OA
ATOM     29  H   UNL     1       7.556   1.493  12.247  0.00  0.00    +0.000 HD
ENDBRANCH  27  28
ENDBRANCH  24  27
ENDBRANCH  23  24
ENDBRANCH   5  23
TORSDOF 7
ENDMDL
MODEL 2
REMARK VINA RESULT:      -7.3      3.470      9.190
REMARK  Name = 
REMARK  7 active torsions:
REMARK  status: ('A' for Active; 'I' for Inactive)
REMARK    1  A    between atoms: N_5  and  C_6
REMARK    2  A    between atoms: C_6  and  C_7
REMARK    3  A    between atoms: C_7  and  C_8
REMARK    4  A    between atoms: C_8  and  O_9
REMARK    5  A    between atoms: C_14  and  C_15
REMARK    6  A    between atoms: C_18  and  C_19
REMARK    7  A    between atoms: C_24  and  O_25
REMARK                            x       y       z     vdW  Elec       q    Type
REMARK                         _______ _______ _______ _____ _____    ______ ____
ROOT
ATOM      1  O   UNL     1       0.965   9.043  22.492  0.00  0.00    +0.000 OA
ATOM      2  C   UNL     1       1.133   9.214  21.296  0.00  0.00    +0.000 C 
ATOM      3  N   UNL     1       0.980  10.412  20.633  0.00  0.00    +0.000 NA
ATOM      4  C   UNL     1       1.176  10.315  19.363  0.00  0.00    +0.000 C 
ATOM      5  N   UNL     1       1.137  11.315  18.443  0.00  0.00    +0.000 N 
ATOM      6  S   UNL     1       1.549   8.722  18.751  0.00  0.00    +0.000 S 
ATOM      7  C   UNL     1       1.543   8.123  20.364  0.00  0.00    +0.000 C 
ATOM      8  C   UNL     1       1.874   6.894  20.784  0.00  0.00    +0.000 C 
ATOM      9  H   UNL     1       1.405  11.035  17.506  0.00  0.00    +0.000 HD
ENDROOT
BRANCH   8  10
ATOM     10  C   UNL     1       2.314   5.835  19.946  0.00  0.00    +0.000 A 
ATOM     11  C   UNL     1       1.595   4.695  19.677  0.00  0.00    +0.000 A 
ATOM     12  S   UNL     1       2.451   3.753  18.536  0.00  0.00    +0.000 S 
ATOM     13  C   UNL     1       3.771   4.873  18.590  0.00  0.00    +0.000 A 
ATOM     14  N   UNL     1       3.541   5.944  19.333  0.00  0.00    +0.000 NA
BRANCH  13  15
ATOM     15  C   UNL     1       4.999   4.667  17.794  0.00  0.00    +0.000 A 
ATOM     16  C   UNL     1       4.864   4.332  16.432  0.00  0.00    +0.000 A 
ATOM     17  C   UNL     1       5.981   4.135  15.615  0.00  0.00    +0.000 A 
ATOM     18  C   UNL     1       7.262   4.272  16.143  0.00  0.00    +0.000 A 
ATOM     19  C   UNL     1       7.424   4.616  17.483  0.00  0.00    +0.000 A 
ATOM     20  C   UNL     1       6.304   4.819  18.296  0.00  0.00    +0.000 A 
BRANCH  20  21
ATOM     21  O   UNL     1       6.510   5.206  19.593  0.00  0.00    +0.000 OA
ATOM     22  H   UNL     1       6.512   4.426  20.170  0.00  0.00    +0.000 HD
ENDBRANCH  20  21
ENDBRANCH  13  15
ENDBRANCH   8  10
BRANCH   5  23
ATOM     23  C   UNL     1       1.578  12.651  18.797  0.00  0.00    +0.000 C 
BRANCH  23  24
ATOM     24  C   UNL     1       0.409  13.583  18.993  0.00  0.00    +0.000 C 
ATOM     25  C   UNL     1       0.484  14.429  20.254  0.00  0.00    +0.000 C 
ATOM     26  C   UNL     1       0.585  15.091  18.912  0.00  0.00    +0.000 C 
BRANCH  24  27
ATOM     27  C   UNL     1      -0.929  13.047  18.540  0.00  0.00    +0.000 C 
BRANCH  27  28
ATOM     28  O   UNL     1      -1.512  12.251  19.560  0.00  0.00    +0.000 OA
ATOM     29  H   UNL     1      -1.352  12.717  20.404  0.00  0.00    +0.000 HD
ENDBRANCH  27  28
ENDBRANCH  24  27
ENDBRANCH  23  24
ENDBRANCH   5  23
TORSDOF 7
ENDMDL
MODEL 3
REMARK VINA RESULT:      -7.3      0.946      1.333
REMARK  Name = 
REMARK  7 active torsions:
REMARK  status: ('A' for Active; 'I' for Inactive)
REMARK    1  A    between atoms: N_5  and  C_6
REMARK    2  A    between atoms: C_6  and  C_7
REMARK    3  A    between atoms: C_7  and  C_8
REMARK    4  A    between atoms: C_8  and  O_9
REMARK    5  A    between atoms: C_14  and  C_15
REMARK    6  A    between atoms: C_18  and  C_19
REMARK    7  A    between atoms: C_24  and  O_25
REMARK                            x       y       z     vdW  Elec       q    Type
REMARK                         _______ _______ _______ _____ _____    ______ ____
ROOT
ATOM      1  O   UNL     1       8.295   4.194  17.727  0.00  0.00    +0.000 OA
ATOM      2  C   UNL     1       7.389   4.442  16.949  0.00  0.00    +0.000 C 
ATOM      3  N   UNL     1       7.474   4.367  15.575  0.00  0.00    +0.000 NA
ATOM      4  C   UNL     1       6.386   4.721  14.982  0.00  0.00    +0.000 C 
ATOM      5  N   UNL     1       6.139   4.722  13.646  0.00  0.00    +0.000 N 
ATOM      6  S   UNL     1       5.074   5.246  16.008  0.00  0.00    +0.000 S 
ATOM      7  C   UNL     1       6.027   4.867  17.389  0.00  0.00    +0.000 C 
ATOM      8  C   UNL     1       5.656   4.897  18.675  0.00  0.00    +0.000 C 
ATOM      9  H   UNL     1       5.185   4.959  13.395  0.00  0.00    +0.000 HD
ENDROOT
BRANCH   8  10
ATOM     10  C   UNL     1       4.362   5.248  19.145  0.00  0.00    +0.000 A 
ATOM     11  C   UNL     1       3.514   4.403  19.820  0.00  0.00    +0.000 A 
ATOM     12  S   UNL     1       2.121   5.273  20.292  0.00  0.00    +0.000 S 
ATOM     13  C   UNL     1       2.697   6.671  19.448  0.00  0.00    +0.000 A 
ATOM     14  N   UNL     1       3.910   6.531  18.935  0.00  0.00    +0.000 NA
BRANCH  13  15
ATOM     15  C   UNL     1       1.919   7.926  19.399  0.00  0.00    +0.000 A 
ATOM     16  C   UNL     1       1.613   8.472  18.137  0.00  0.00    +0.000 A 
ATOM     17  C   UNL     1       0.869   9.650  18.013  0.00  0.00    +0.000 A 
ATOM     18  C   UNL     1       0.412  10.307  19.152  0.00  0.00    +0.000 A 
ATOM     19  C   UNL     1       0.689   9.781  20.412  0.00  0.00    +0.000 A 
ATOM     20  C   UNL     1       1.427   8.599  20.532  0.00  0.00    +0.000 A 
BRANCH  20  21
ATOM     21  O   UNL     1       1.631   8.091  21.787  0.00  0.00    +0.000 OA
ATOM     22  H   UNL     1       1.022   8.512  22.413  0.00  0.00    +0.000 HD
ENDBRANCH  20  21
ENDBRANCH  13  15
ENDBRANCH   8  10
BRANCH   5  23
ATOM     23  C   UNL     1       6.726   3.707  12.792  0.00  0.00    +0.000 C 
BRANCH  23  24
ATOM     24  C   UNL     1       5.675   3.004  11.970  0.00  0.00    +0.000 C 
ATOM     25  C   UNL     1       4.244   3.347  12.352  0.00  0.00    +0.000 C 
ATOM     26  C   UNL     1       4.777   3.776  11.017  0.00  0.00    +0.000 C 
BRANCH  24  27
ATOM     27  C   UNL     1       6.013   1.588  11.561  0.00  0.00    +0.000 C 
BRANCH  27  28
ATOM     28  O   UNL     1       7.369   1.504  11.153  0.00  0.00    +0.000 OA
ATOM     29  H   UNL     1       7.559   0.556  11.006  0.00  0.00    +0.000 HD
ENDBRANCH  27  28
ENDBRANCH  24  27
ENDBRANCH  23  24
ENDBRANCH   5  23
TORSDOF 7
ENDMDL
MODEL 4
REMARK VINA RESULT:      -7.2      5.033     11.543
REMARK  Name = 
REMARK  7 active torsions:
REMARK  status: ('A' for Active; 'I' for Inactive)
REMARK    1  A    between atoms: N_5  and  C_6
REMARK    2  A    between atoms: C_6  and  C_7
REMARK    3  A    between atoms: C_7  and  C_8
REMARK    4  A    between atoms: C_8  and  O_9
REMARK    5  A    between atoms: C_14  and  C_15
REMARK    6  A    between atoms: C_18  and  C_19
REMARK    7  A    between atoms: C_24  and  O_25
REMARK                            x       y       z     vdW  Elec       q    Type
REMARK                         _______ _______ _______ _____ _____    ______ ____
ROOT
ATOM      1  O   UNL     1       0.093   9.344  24.133  0.00  0.00    +0.000 OA
ATOM      2  C   UNL     1      -0.256  10.049  23.201  0.00  0.00    +0.000 C 
ATOM      3  N   UNL     1      -1.054  11.168  23.304  0.00  0.00    +0.000 NA
ATOM      4  C   UNL     1      -1.310  11.711  22.163  0.00  0.00    +0.000 C 
ATOM      5  N   UNL     1      -2.033  12.838  21.930  0.00  0.00    +0.000 N 
ATOM      6  S   UNL     1      -0.643  10.921  20.756  0.00  0.00    +0.000 S 
ATOM      7  C   UNL     1       0.149   9.795  21.787  0.00  0.00    +0.000 C 
ATOM      8  C   UNL     1       1.023   8.840  21.442  0.00  0.00    +0.000 C 
ATOM      9  H   UNL     1      -2.041  13.140  20.962  0.00  0.00    +0.000 HD
ENDROOT
BRANCH   8  10
ATOM     10  C   UNL     1       1.476   8.586  20.121  0.00  0.00    +0.000 A 
ATOM     11  C   UNL     1       1.346   9.455  19.064  0.00  0.00    +0.000 A 
ATOM     12  S   UNL     1       2.130   8.792  17.698  0.00  0.00    +0.000 S 
ATOM     13  C   UNL     1       2.468   7.344  18.584  0.00  0.00    +0.000 A 
ATOM     14  N   UNL     1       2.112   7.394  19.858  0.00  0.00    +0.000 NA
BRANCH  13  15
ATOM     15  C   UNL     1       3.173   6.201  17.967  0.00  0.00    +0.000 A 
ATOM     16  C   UNL     1       4.355   6.457  17.244  0.00  0.00    +0.000 A 
ATOM     17  C   UNL     1       5.082   5.423  16.644  0.00  0.00    +0.000 A 
ATOM     18  C   UNL     1       4.642   4.107  16.759  0.00  0.00    +0.000 A 
ATOM     19  C   UNL     1       3.484   3.825  17.479  0.00  0.00    +0.000 A 
ATOM     20  C   UNL     1       2.763   4.860  18.083  0.00  0.00    +0.000 A 
BRANCH  20  21
ATOM     21  O   UNL     1       1.660   4.531  18.825  0.00  0.00    +0.000 OA
ATOM     22  H   UNL     1       1.089   5.309  18.922  0.00  0.00    +0.000 HD
ENDBRANCH  20  21
ENDBRANCH  13  15
ENDBRANCH   8  10
BRANCH   5  23
ATOM     23  C   UNL     1      -2.000  13.937  22.878  0.00  0.00    +0.000 C 
BRANCH  23  24
ATOM     24  C   UNL     1      -3.326  14.101  23.576  0.00  0.00    +0.000 C 
ATOM     25  C   UNL     1      -3.240  14.755  24.945  0.00  0.00    +0.000 C 
ATOM     26  C   UNL     1      -3.919  15.480  23.820  0.00  0.00    +0.000 C 
BRANCH  24  27
ATOM     27  C   UNL     1      -4.319  12.984  23.350  0.00  0.00    +0.000 C 
BRANCH  27  28
ATOM     28  O   UNL     1      -4.020  11.882  24.191  0.00  0.00    +0.000 OA
ATOM     29  H   UNL     1      -3.364  11.335  23.714  0.00  0.00    +0.000 HD
ENDBRANCH  27  28
ENDBRANCH  24  27
ENDBRANCH  23  24
ENDBRANCH   5  23
TORSDOF 7
ENDMDL
MODEL 5
REMARK VINA RESULT:      -7.1      5.022     10.300
REMARK  Name = 
REMARK  7 active torsions:
REMARK  status: ('A' for Active; 'I' for Inactive)
REMARK    1  A    between atoms: N_5  and  C_6
REMARK    2  A    between atoms: C_6  and  C_7
REMARK    3  A    between atoms: C_7  and  C_8
REMARK    4  A    between atoms: C_8  and  O_9
REMARK    5  A    between atoms: C_14  and  C_15
REMARK    6  A    between atoms: C_18  and  C_19
REMARK    7  A    between atoms: C_24  and  O_25
REMARK                            x       y       z     vdW  Elec       q    Type
REMARK                         _______ _______ _______ _____ _____    ______ ____
ROOT
ATOM      1  O   UNL     1       0.154   9.879  23.769  0.00  0.00    +0.000 OA
ATOM      2  C   UNL     1      -0.140  10.219  22.635  0.00  0.00    +0.000 C 
ATOM      3  N   UNL     1      -0.911  11.313  22.306  0.00  0.00    +0.000 NA
ATOM      4  C   UNL     1      -1.108  11.427  21.037  0.00  0.00    +0.000 C 
ATOM      5  N   UNL     1      -1.790  12.412  20.395  0.00  0.00    +0.000 N 
ATOM      6  S   UNL     1      -0.409  10.188  20.024  0.00  0.00    +0.000 S 
ATOM      7  C   UNL     1       0.311   9.483  21.418  0.00  0.00    +0.000 C 
ATOM      8  C   UNL     1       1.172   8.457  21.467  0.00  0.00    +0.000 C 
ATOM      9  H   UNL     1      -1.753  12.357  19.383  0.00  0.00    +0.000 HD
ENDROOT
BRANCH   8  10
ATOM     10  C   UNL     1       1.668   7.752  20.338  0.00  0.00    +0.000 A 
ATOM     11  C   UNL     1       2.112   8.340  19.177  0.00  0.00    +0.000 A 
ATOM     12  S   UNL     1       2.723   7.128  18.138  0.00  0.00    +0.000 S 
ATOM     13  C   UNL     1       2.229   5.905  19.260  0.00  0.00    +0.000 A 
ATOM     14  N   UNL     1       1.735   6.379  20.393  0.00  0.00    +0.000 NA
BRANCH  13  15
ATOM     15  C   UNL     1       2.436   4.468  18.986  0.00  0.00    +0.000 A 
ATOM     16  C   UNL     1       3.541   4.091  18.197  0.00  0.00    +0.000 A 
ATOM     17  C   UNL     1       3.806   2.749  17.907  0.00  0.00    +0.000 A 
ATOM     18  C   UNL     1       2.971   1.752  18.405  0.00  0.00    +0.000 A 
ATOM     19  C   UNL     1       1.880   2.096  19.199  0.00  0.00    +0.000 A 
ATOM     20  C   UNL     1       1.621   3.439  19.492  0.00  0.00    +0.000 A 
BRANCH  20  21
ATOM     21  O   UNL     1       0.568   3.727  20.319  0.00  0.00    +0.000 OA
ATOM     22  H   UNL     1       0.473   3.026  20.983  0.00  0.00    +0.000 HD
ENDBRANCH  20  21
ENDBRANCH  13  15
ENDBRANCH   8  10
BRANCH   5  23
ATOM     23  C   UNL     1      -1.764  13.771  20.901  0.00  0.00    +0.000 C 
BRANCH  23  24
ATOM     24  C   UNL     1      -0.497  14.484  20.498  0.00  0.00    +0.000 C 
ATOM     25  C   UNL     1      -0.068  14.240  19.061  0.00  0.00    +0.000 C 
ATOM     26  C   UNL     1      -0.521  15.608  19.476  0.00  0.00    +0.000 C 
BRANCH  24  27
ATOM     27  C   UNL     1       0.556  14.592  21.578  0.00  0.00    +0.000 C 
BRANCH  27  28
ATOM     28  O   UNL     1       1.377  13.435  21.583  0.00  0.00    +0.000 OA
ATOM     29  H   UNL     1       1.534  13.201  20.647  0.00  0.00    +0.000 HD
ENDBRANCH  27  28
ENDBRANCH  24  27
ENDBRANCH  23  24
ENDBRANCH   5  23
TORSDOF 7
ENDMDL
MODEL 6
REMARK VINA RESULT:      -7.1      5.014     10.288
REMARK  Name = 
REMARK  7 active torsions:
REMARK  status: ('A' for Active; 'I' for Inactive)
REMARK    1  A    between atoms: N_5  and  C_6
REMARK    2  A    between atoms: C_6  and  C_7
REMARK    3  A    between atoms: C_7  and  C_8
REMARK    4  A    between atoms: C_8  and  O_9
REMARK    5  A    between atoms: C_14  and  C_15
REMARK    6  A    between atoms: C_18  and  C_19
REMARK    7  A    between atoms: C_24  and  O_25
REMARK                            x       y       z     vdW  Elec       q    Type
REMARK                         _______ _______ _______ _____ _____    ______ ____
ROOT
ATOM      1  O   UNL     1       0.180   9.790  23.769  0.00  0.00    +0.000 OA
ATOM      2  C   UNL     1      -0.091  10.149  22.636  0.00  0.00    +0.000 C 
ATOM      3  N   UNL     1      -0.834  11.263  22.308  0.00  0.00    +0.000 NA
ATOM      4  C   UNL     1      -1.012  11.395  21.038  0.00  0.00    +0.000 C 
ATOM      5  N   UNL     1      -1.664  12.400  20.398  0.00  0.00    +0.000 N 
ATOM      6  S   UNL     1      -0.327  10.151  20.021  0.00  0.00    +0.000 S 
ATOM      7  C   UNL     1       0.360   9.415  21.416  0.00  0.00    +0.000 C 
ATOM      8  C   UNL     1       1.197   8.371  21.465  0.00  0.00    +0.000 C 
ATOM      9  H   UNL     1      -1.615  12.356  19.386  0.00  0.00    +0.000 HD
ENDROOT
BRANCH   8  10
ATOM     10  C   UNL     1       1.693   7.668  20.335  0.00  0.00    +0.000 A 
ATOM     11  C   UNL     1       2.150   8.257  19.180  0.00  0.00    +0.000 A 
ATOM     12  S   UNL     1       2.755   7.044  18.138  0.00  0.00    +0.000 S 
ATOM     13  C   UNL     1       2.241   5.821  19.250  0.00  0.00    +0.000 A 
ATOM     14  N   UNL     1       1.745   6.293  20.383  0.00  0.00    +0.000 NA
BRANCH  13  15
ATOM     15  C   UNL     1       2.435   4.383  18.969  0.00  0.00    +0.000 A 
ATOM     16  C   UNL     1       3.536   4.000  18.178  0.00  0.00    +0.000 A 
ATOM     17  C   UNL     1       3.789   2.657  17.881  0.00  0.00    +0.000 A 
ATOM     18  C   UNL     1       2.945   1.665  18.374  0.00  0.00    +0.000 A 
ATOM     19  C   UNL     1       1.857   2.015  19.170  0.00  0.00    +0.000 A 
ATOM     20  C   UNL     1       1.611   3.359  19.470  0.00  0.00    +0.000 A 
BRANCH  20  21
ATOM     21  O   UNL     1       0.561   3.653  20.298  0.00  0.00    +0.000 OA
ATOM     22  H   UNL     1       0.208   4.530  20.079  0.00  0.00    +0.000 HD
ENDBRANCH  20  21
ENDBRANCH  13  15
ENDBRANCH   8  10
BRANCH   5  23
ATOM     23  C   UNL     1      -1.615  13.753  20.919  0.00  0.00    +0.000 C 
BRANCH  23  24
ATOM     24  C   UNL     1      -0.711  14.630  20.090  0.00  0.00    +0.000 C 
ATOM     25  C   UNL     1      -1.225  16.045  19.882  0.00  0.00    +0.000 C 
ATOM     26  C   UNL     1       0.008  15.820  20.705  0.00  0.00    +0.000 C 
BRANCH  24  27
ATOM     27  C   UNL     1       0.010  13.931  18.960  0.00  0.00    +0.000 C 
BRANCH  27  28
ATOM     28  O   UNL     1      -0.910  13.546  17.952  0.00  0.00    +0.000 OA
ATOM     29  H   UNL     1      -1.267  12.675  18.217  0.00  0.00    +0.000 HD
ENDBRANCH  27  28
ENDBRANCH  24  27
ENDBRANCH  23  24
ENDBRANCH   5  23
TORSDOF 7
ENDMDL
MODEL 7
REMARK VINA RESULT:      -7.1      0.846      1.235
REMARK  Name = 
REMARK  7 active torsions:
REMARK  status: ('A' for Active; 'I' for Inactive)
REMARK    1  A    between atoms: N_5  and  C_6
REMARK    2  A    between atoms: C_6  and  C_7
REMARK    3  A    between atoms: C_7  and  C_8
REMARK    4  A    between atoms: C_8  and  O_9
REMARK    5  A    between atoms: C_14  and  C_15
REMARK    6  A    between atoms: C_18  and  C_19
REMARK    7  A    between atoms: C_24  and  O_25
REMARK                            x       y       z     vdW  Elec       q    Type
REMARK                         _______ _______ _______ _____ _____    ______ ____
ROOT
ATOM      1  O   UNL     1       8.349   4.224  17.857  0.00  0.00    +0.000 OA
ATOM      2  C   UNL     1       7.439   4.421  17.070  0.00  0.00    +0.000 C 
ATOM      3  N   UNL     1       7.544   4.358  15.697  0.00  0.00    +0.000 NA
ATOM      4  C   UNL     1       6.444   4.649  15.092  0.00  0.00    +0.000 C 
ATOM      5  N   UNL     1       6.212   4.642  13.753  0.00  0.00    +0.000 N 
ATOM      6  S   UNL     1       5.090   5.087  16.105  0.00  0.00    +0.000 S 
ATOM      7  C   UNL     1       6.048   4.759  17.495  0.00  0.00    +0.000 C 
ATOM      8  C   UNL     1       5.661   4.759  18.777  0.00  0.00    +0.000 C 
ATOM      9  H   UNL     1       5.249   4.822  13.492  0.00  0.00    +0.000 HD
ENDROOT
BRANCH   8  10
ATOM     10  C   UNL     1       4.343   5.029  19.233  0.00  0.00    +0.000 A 
ATOM     11  C   UNL     1       3.463   4.081  19.700  0.00  0.00    +0.000 A 
ATOM     12  S   UNL     1       2.044   4.861  20.246  0.00  0.00    +0.000 S 
ATOM     13  C   UNL     1       2.659   6.384  19.698  0.00  0.00    +0.000 A 
ATOM     14  N   UNL     1       3.897   6.331  19.232  0.00  0.00    +0.000 NA
BRANCH  13  15
ATOM     15  C   UNL     1       1.879   7.632  19.832  0.00  0.00    +0.000 A 
ATOM     16  C   UNL     1       1.237   7.889  21.060  0.00  0.00    +0.000 A 
ATOM     17  C   UNL     1       0.492   9.055  21.263  0.00  0.00    +0.000 A 
ATOM     18  C   UNL     1       0.378   9.994  20.242  0.00  0.00    +0.000 A 
ATOM     19  C   UNL     1       1.014   9.771  19.023  0.00  0.00    +0.000 A 
ATOM     20  C   UNL     1       1.763   8.606  18.825  0.00  0.00    +0.000 A 
BRANCH  20  21
ATOM     21  O   UNL     1       2.414   8.453  17.630  0.00  0.00    +0.000 OA
ATOM     22  H   UNL     1       2.008   9.029  16.962  0.00  0.00    +0.000 HD
ENDBRANCH  20  21
ENDBRANCH  13  15
ENDBRANCH   8  10
BRANCH   5  23
ATOM     23  C   UNL     1       6.870   3.669  12.902  0.00  0.00    +0.000 C 
BRANCH  23  24
ATOM     24  C   UNL     1       5.879   2.945  12.026  0.00  0.00    +0.000 C 
ATOM     25  C   UNL     1       6.458   2.415  10.724  0.00  0.00    +0.000 C 
ATOM     26  C   UNL     1       5.997   1.450  11.776  0.00  0.00    +0.000 C 
BRANCH  24  27
ATOM     27  C   UNL     1       4.475   3.506  12.037  0.00  0.00    +0.000 C 
BRANCH  27  28
ATOM     28  O   UNL     1       3.893   3.402  10.747  0.00  0.00    +0.000 OA
ATOM     29  H   UNL     1       4.149   2.526  10.395  0.00  0.00    +0.000 HD
ENDBRANCH  27  28
ENDBRANCH  24  27
ENDBRANCH  23  24
ENDBRANCH   5  23
TORSDOF 7
ENDMDL
MODEL 8
REMARK VINA RESULT:      -7.1      4.944     11.009
REMARK  Name = 
REMARK  7 active torsions:
REMARK  status: ('A' for Active; 'I' for Inactive)
REMARK    1  A    between atoms: N_5  and  C_6
REMARK    2  A    between atoms: C_6  and  C_7
REMARK    3  A    between atoms: C_7  and  C_8
REMARK    4  A    between atoms: C_8  and  O_9
REMARK    5  A    between atoms: C_14  and  C_15
REMARK    6  A    between atoms: C_18  and  C_19
REMARK    7  A    between atoms: C_24  and  O_25
REMARK                            x       y       z     vdW  Elec       q    Type
REMARK                         _______ _______ _______ _____ _____    ______ ____
ROOT
ATOM      1  O   UNL     1       0.301   9.686  23.966  0.00  0.00    +0.000 OA
ATOM      2  C   UNL     1      -0.068  10.051  22.862  0.00  0.00    +0.000 C 
ATOM      3  N   UNL     1      -0.894  11.126  22.614  0.00  0.00    +0.000 NA
ATOM      4  C   UNL     1      -1.167  11.275  21.363  0.00  0.00    +0.000 C 
ATOM      5  N   UNL     1      -1.918  12.254  20.793  0.00  0.00    +0.000 N 
ATOM      6  S   UNL     1      -0.484  10.095  20.271  0.00  0.00    +0.000 S 
ATOM      7  C   UNL     1       0.338   9.372  21.597  0.00  0.00    +0.000 C 
ATOM      8  C   UNL     1       1.235   8.377  21.562  0.00  0.00    +0.000 C 
ATOM      9  H   UNL     1      -1.937  12.233  19.779  0.00  0.00    +0.000 HD
ENDROOT
BRANCH   8  10
ATOM     10  C   UNL     1       1.691   7.728  20.384  0.00  0.00    +0.000 A 
ATOM     11  C   UNL     1       2.081   8.371  19.233  0.00  0.00    +0.000 A 
ATOM     12  S   UNL     1       2.660   7.212  18.118  0.00  0.00    +0.000 S 
ATOM     13  C   UNL     1       2.225   5.936  19.204  0.00  0.00    +0.000 A 
ATOM     14  N   UNL     1       1.774   6.355  20.377  0.00  0.00    +0.000 NA
BRANCH  13  15
ATOM     15  C   UNL     1       2.435   4.515  18.859  0.00  0.00    +0.000 A 
ATOM     16  C   UNL     1       3.535   4.180  18.045  0.00  0.00    +0.000 A 
ATOM     17  C   UNL     1       3.802   2.855  17.688  0.00  0.00    +0.000 A 
ATOM     18  C   UNL     1       2.974   1.832  18.142  0.00  0.00    +0.000 A 
ATOM     19  C   UNL     1       1.887   2.133  18.959  0.00  0.00    +0.000 A 
ATOM     20  C   UNL     1       1.626   3.460  19.319  0.00  0.00    +0.000 A 
BRANCH  20  21
ATOM     21  O   UNL     1       0.578   3.704  20.166  0.00  0.00    +0.000 OA
ATOM     22  H   UNL     1      -0.044   4.319  19.746  0.00  0.00    +0.000 HD
ENDBRANCH  20  21
ENDBRANCH  13  15
ENDBRANCH   8  10
BRANCH   5  23
ATOM     23  C   UNL     1      -1.910  13.596  21.344  0.00  0.00    +0.000 C 
BRANCH  23  24
ATOM     24  C   UNL     1      -3.310  14.124  21.527  0.00  0.00    +0.000 C 
ATOM     25  C   UNL     1      -3.410  15.347  22.424  0.00  0.00    +0.000 C 
ATOM     26  C   UNL     1      -3.720  15.475  20.961  0.00  0.00    +0.000 C 
BRANCH  24  27
ATOM     27  C   UNL     1      -4.396  13.074  21.585  0.00  0.00    +0.000 C 
BRANCH  27  28
ATOM     28  O   UNL     1      -4.261  12.290  22.759  0.00  0.00    +0.000 OA
ATOM     29  H   UNL     1      -3.674  11.542  22.531  0.00  0.00    +0.000 HD
ENDBRANCH  27  28
ENDBRANCH  24  27
ENDBRANCH  23  24
ENDBRANCH   5  23
TORSDOF 7
ENDMDL
MODEL 9
REMARK VINA RESULT:      -6.9      2.251      3.019
REMARK  Name = 
REMARK  7 active torsions:
REMARK  status: ('A' for Active; 'I' for Inactive)
REMARK    1  A    between atoms: N_5  and  C_6
REMARK    2  A    between atoms: C_6  and  C_7
REMARK    3  A    between atoms: C_7  and  C_8
REMARK    4  A    between atoms: C_8  and  O_9
REMARK    5  A    between atoms: C_14  and  C_15
REMARK    6  A    between atoms: C_18  and  C_19
REMARK    7  A    between atoms: C_24  and  O_25
REMARK                            x       y       z     vdW  Elec       q    Type
REMARK                         _______ _______ _______ _____ _____    ______ ____
ROOT
ATOM      1  O   UNL     1       5.371   3.947  19.267  0.00  0.00    +0.000 OA
ATOM      2  C   UNL     1       5.321   4.566  18.218  0.00  0.00    +0.000 C 
ATOM      3  N   UNL     1       5.998   4.235  17.064  0.00  0.00    +0.000 NA
ATOM      4  C   UNL     1       5.806   5.078  16.108  0.00  0.00    +0.000 C 
ATOM      5  N   UNL     1       6.299   5.015  14.842  0.00  0.00    +0.000 N 
ATOM      6  S   UNL     1       4.788   6.450  16.469  0.00  0.00    +0.000 S 
ATOM      7  C   UNL     1       4.496   5.796  18.033  0.00  0.00    +0.000 C 
ATOM      8  C   UNL     1       3.652   6.252  18.968  0.00  0.00    +0.000 C 
ATOM      9  H   UNL     1       5.957   5.740  14.221  0.00  0.00    +0.000 HD
ENDROOT
BRANCH   8  10
ATOM     10  C   UNL     1       2.812   7.389  18.827  0.00  0.00    +0.000 A 
ATOM     11  C   UNL     1       2.584   8.056  17.646  0.00  0.00    +0.000 A 
ATOM     12  S   UNL     1       1.424   9.283  17.915  0.00  0.00    +0.000 S 
ATOM     13  C   UNL     1       1.415   8.914  19.607  0.00  0.00    +0.000 A 
ATOM     14  N   UNL     1       2.152   7.865  19.936  0.00  0.00    +0.000 NA
BRANCH  13  15
ATOM     15  C   UNL     1       0.576   9.667  20.563  0.00  0.00    +0.000 A 
ATOM     16  C   UNL     1      -0.420  10.521  20.049  0.00  0.00    +0.000 A 
ATOM     17  C   UNL     1      -1.258  11.256  20.893  0.00  0.00    +0.000 A 
ATOM     18  C   UNL     1      -1.121  11.148  22.274  0.00  0.00    +0.000 A 
ATOM     19  C   UNL     1      -0.153  10.301  22.809  0.00  0.00    +0.000 A 
ATOM     20  C   UNL     1       0.680   9.563  21.962  0.00  0.00    +0.000 A 
BRANCH  20  21
ATOM     21  O   UNL     1       1.581   8.704  22.531  0.00  0.00    +0.000 OA
ATOM     22  H   UNL     1       2.348   8.600  21.945  0.00  0.00    +0.000 HD
ENDBRANCH  20  21
ENDBRANCH  13  15
ENDBRANCH   8  10
BRANCH   5  23
ATOM     23  C   UNL     1       6.479   3.732  14.190  0.00  0.00    +0.000 C 
BRANCH  23  24
ATOM     24  C   UNL     1       6.322   3.847  12.695  0.00  0.00    +0.000 C 
ATOM     25  C   UNL     1       5.919   2.556  12.003  0.00  0.00    +0.000 C 
ATOM     26  C   UNL     1       4.959   3.707  12.036  0.00  0.00    +0.000 C 
BRANCH  24  27
ATOM     27  C   UNL     1       7.295   4.781  12.012  0.00  0.00    +0.000 C 
BRANCH  27  28
ATOM     28  O   UNL     1       8.056   5.490  12.977  0.00  0.00    +0.000 OA
ATOM     29  H   UNL     1       8.729   5.999  12.483  0.00  0.00    +0.000 HD
ENDBRANCH  27  28
ENDBRANCH  24  27
ENDBRANCH  23  24
ENDBRANCH   5  23
TORSDOF 7
ENDMDL
