MODEL 1
REMARK VINA RESULT:      -8.9      0.000      0.000
REMARK  Name = 
REMARK  4 active torsions:
REMARK  status: ('A' for Active; 'I' for Inactive)
REMARK    1  A    between atoms: C_1  and  C_2
REMARK    2  A    between atoms: C_11  and  N_12
REMARK    3  A    between atoms: C_17  and  C_19
REMARK    4  A    between atoms: C_24  and  C_25
REMARK                            x       y       z     vdW  Elec       q    Type
REMARK                         _______ _______ _______ _____ _____    ______ ____
ROOT
ATOM      1  N   UNL     1      -0.912  12.097  21.627  0.00  0.00    +0.000 N 
ATOM      2  C   UNL     1      -0.613  13.512  21.813  0.00  0.00    +0.000 C 
ATOM      3  C   UNL     1      -1.624  13.929  22.920  0.00  0.00    +0.000 C 
ATOM      4  C   UNL     1      -2.842  14.672  22.384  0.00  0.00    +0.000 C 
ATOM      5  N   UNL     1      -3.742  13.630  21.925  0.00  0.00    +0.000 N 
ATOM      6  C   UNL     1      -4.581  13.858  20.839  0.00  0.00    +0.000 C 
ATOM      7  O   UNL     1      -4.688  14.987  20.354  0.00  0.00    +0.000 OA
ATOM      8  C   UNL     1      -3.568  12.449  22.759  0.00  0.00    +0.000 C 
ATOM      9  C   UNL     1      -2.199  12.594  23.449  0.00  0.00    +0.000 C 
ATOM     10  C   UNL     1      -1.214  11.548  22.939  0.00  0.00    +0.000 C 
ENDROOT
BRANCH   1  21
ATOM     11  C   UNL     1      -0.676  13.012  18.868  0.00  0.00    +0.000 C 
ATOM     12  C   UNL     1      -0.165  11.693  19.361  0.00  0.00    +0.000 A 
ATOM     13  N   UNL     1       0.446  10.948  18.410  0.00  0.00    +0.000 NA
ATOM     14  C   UNL     1       1.017   9.816  18.821  0.00  0.00    +0.000 A 
ATOM     15  C   UNL     1       1.659   9.040  17.869  0.00  0.00    +0.000 A 
ATOM     16  C   UNL     1       2.271   7.840  18.212  0.00  0.00    +0.000 A 
ATOM     17  C   UNL     1       2.245   7.424  19.540  0.00  0.00    +0.000 A 
ATOM     18  C   UNL     1       1.608   8.212  20.504  0.00  0.00    +0.000 A 
ATOM     19  C   UNL     1       0.980   9.412  20.177  0.00  0.00    +0.000 A 
ATOM     20  N   UNL     1       0.351  10.158  21.122  0.00  0.00    +0.000 NA
ATOM     21  C   UNL     1      -0.254  11.300  20.713  0.00  0.00    +0.000 A 
ENDBRANCH   1  21
BRANCH   6  22
ATOM     22  C   UNL     1      -5.381  12.753  20.217  0.00  0.00    +0.000 A 
ATOM     23  C   UNL     1      -4.900  12.174  19.027  0.00  0.00    +0.000 A 
ATOM     24  C   UNL     1      -5.592  11.152  18.377  0.00  0.00    +0.000 A 
ATOM     25  C   UNL     1      -6.758  10.649  18.932  0.00  0.00    +0.000 A 
ATOM     26  C   UNL     1      -7.226  11.173  20.136  0.00  0.00    +0.000 A 
ATOM     27  C   UNL     1      -6.558  12.224  20.809  0.00  0.00    +0.000 A 
BRANCH  27  28
ATOM     28  C   UNL     1      -7.175  12.640  22.079  0.00  0.00    +0.000 A 
ATOM     29  N   UNL     1      -7.430  11.860  23.123  0.00  0.00    +0.000 NA
ATOM     30  N   UNL     1      -7.898  12.632  24.157  0.00  0.00    +0.000 NA
ATOM     31  C   UNL     1      -7.916  13.872  23.739  0.00  0.00    +0.000 A 
ATOM     32  N   UNL     1      -7.487  13.923  22.454  0.00  0.00    +0.000 N 
ATOM     33  H   UNL     1      -7.399  14.737  21.860  0.00  0.00    +0.000 HD
ENDBRANCH  27  28
ENDBRANCH   6  22
TORSDOF 3
ENDMDL
MODEL 2
REMARK VINA RESULT:      -8.2      5.696      9.638
REMARK  Name = 
REMARK  4 active torsions:
REMARK  status: ('A' for Active; 'I' for Inactive)
REMARK    1  A    between atoms: C_1  and  C_2
REMARK    2  A    between atoms: C_11  and  N_12
REMARK    3  A    between atoms: C_17  and  C_19
REMARK    4  A    between atoms: C_24  and  C_25
REMARK                            x       y       z     vdW  Elec       q    Type
REMARK                         _______ _______ _______ _____ _____    ______ ____
ROOT
ATOM      1  N   UNL     1       3.891   3.877  17.472  0.00  0.00    +0.000 N 
ATOM      2  C   UNL     1       4.199   3.195  18.724  0.00  0.00    +0.000 C 
ATOM      3  C   UNL     1       2.791   3.000  19.358  0.00  0.00    +0.000 C 
ATOM      4  C   UNL     1       2.472   4.008  20.456  0.00  0.00    +0.000 C 
ATOM      5  N   UNL     1       2.014   5.191  19.751  0.00  0.00    +0.000 N 
ATOM      6  C   UNL     1       2.258   6.457  20.276  0.00  0.00    +0.000 C 
ATOM      7  O   UNL     1       2.722   6.587  21.411  0.00  0.00    +0.000 OA
ATOM      8  C   UNL     1       1.337   4.786  18.527  0.00  0.00    +0.000 C 
ATOM      9  C   UNL     1       1.798   3.348  18.225  0.00  0.00    +0.000 C 
ATOM     10  C   UNL     1       2.656   3.300  16.965  0.00  0.00    +0.000 C 
ENDROOT
BRANCH   1  21
ATOM     11  C   UNL     1       5.915   5.798  18.316  0.00  0.00    +0.000 C 
ATOM     12  C   UNL     1       5.820   5.233  16.932  0.00  0.00    +0.000 A 
ATOM     13  N   UNL     1       6.780   5.679  16.087  0.00  0.00    +0.000 NA
ATOM     14  C   UNL     1       6.808   5.122  14.877  0.00  0.00    +0.000 A 
ATOM     15  C   UNL     1       7.789   5.552  13.996  0.00  0.00    +0.000 A 
ATOM     16  C   UNL     1       7.881   5.030  12.712  0.00  0.00    +0.000 A 
ATOM     17  C   UNL     1       6.978   4.049  12.314  0.00  0.00    +0.000 A 
ATOM     18  C   UNL     1       5.995   3.605  13.206  0.00  0.00    +0.000 A 
ATOM     19  C   UNL     1       5.881   4.124  14.494  0.00  0.00    +0.000 A 
ATOM     20  N   UNL     1       4.911   3.695  15.342  0.00  0.00    +0.000 NA
ATOM     21  C   UNL     1       4.857   4.269  16.569  0.00  0.00    +0.000 A 
ENDBRANCH   1  21
BRANCH   6  22
ATOM     22  C   UNL     1       1.973   7.702  19.492  0.00  0.00    +0.000 A 
ATOM     23  C   UNL     1       2.326   7.724  18.129  0.00  0.00    +0.000 A 
ATOM     24  C   UNL     1       2.109   8.849  17.333  0.00  0.00    +0.000 A 
ATOM     25  C   UNL     1       1.484   9.963  17.870  0.00  0.00    +0.000 A 
ATOM     26  C   UNL     1       1.081   9.945  19.205  0.00  0.00    +0.000 A 
ATOM     27  C   UNL     1       1.305   8.827  20.044  0.00  0.00    +0.000 A 
BRANCH  27  28
ATOM     28  C   UNL     1       0.793   8.968  21.417  0.00  0.00    +0.000 A 
ATOM     29  N   UNL     1       1.442   9.497  22.448  0.00  0.00    +0.000 NA
ATOM     30  N   UNL     1       0.596   9.558  23.527  0.00  0.00    +0.000 NA
ATOM     31  C   UNL     1      -0.558   9.077  23.144  0.00  0.00    +0.000 A 
ATOM     32  N   UNL     1      -0.479   8.689  21.847  0.00  0.00    +0.000 N 
ATOM     33  H   UNL     1      -1.205   8.273  21.277  0.00  0.00    +0.000 HD
ENDBRANCH  27  28
ENDBRANCH   6  22
TORSDOF 3
ENDMDL
MODEL 3
REMARK VINA RESULT:      -8.0      4.164      6.203
REMARK  Name = 
REMARK  4 active torsions:
REMARK  status: ('A' for Active; 'I' for Inactive)
REMARK    1  A    between atoms: C_1  and  C_2
REMARK    2  A    between atoms: C_11  and  N_12
REMARK    3  A    between atoms: C_17  and  C_19
REMARK    4  A    between atoms: C_24  and  C_25
REMARK                            x       y       z     vdW  Elec       q    Type
REMARK                         _______ _______ _______ _____ _____    ______ ____
ROOT
ATOM      1  N   UNL     1       0.233  10.362  20.097  0.00  0.00    +0.000 N 
ATOM      2  C   UNL     1      -0.014  10.385  21.534  0.00  0.00    +0.000 C 
ATOM      3  C   UNL     1      -1.036  11.548  21.683  0.00  0.00    +0.000 C 
ATOM      4  C   UNL     1      -0.413  12.848  22.179  0.00  0.00    +0.000 C 
ATOM      5  N   UNL     1       0.149  13.466  20.993  0.00  0.00    +0.000 N 
ATOM      6  C   UNL     1       1.299  14.244  21.087  0.00  0.00    +0.000 C 
ATOM      7  O   UNL     1       1.764  14.546  22.189  0.00  0.00    +0.000 OA
ATOM      8  C   UNL     1      -0.667  13.116  19.839  0.00  0.00    +0.000 C 
ATOM      9  C   UNL     1      -1.479  11.870  20.237  0.00  0.00    +0.000 C 
ATOM     10  C   UNL     1      -1.033  10.647  19.442  0.00  0.00    +0.000 C 
ENDROOT
BRANCH   1  21
ATOM     11  C   UNL     1       1.765  11.250  17.780  0.00  0.00    +0.000 C 
ATOM     12  C   UNL     1       1.823   9.863  18.343  0.00  0.00    +0.000 A 
ATOM     13  N   UNL     1       2.676   9.038  17.690  0.00  0.00    +0.000 NA
ATOM     14  C   UNL     1       2.849   7.828  18.219  0.00  0.00    +0.000 A 
ATOM     15  C   UNL     1       3.726   6.967  17.576  0.00  0.00    +0.000 A 
ATOM     16  C   UNL     1       3.956   5.683  18.056  0.00  0.00    +0.000 A 
ATOM     17  C   UNL     1       3.300   5.266  19.210  0.00  0.00    +0.000 A 
ATOM     18  C   UNL     1       2.424   6.137  19.867  0.00  0.00    +0.000 A 
ATOM     19  C   UNL     1       2.174   7.423  19.395  0.00  0.00    +0.000 A 
ATOM     20  N   UNL     1       1.307   8.252  20.034  0.00  0.00    +0.000 NA
ATOM     21  C   UNL     1       1.104   9.479  19.494  0.00  0.00    +0.000 A 
ENDBRANCH   1  21
BRANCH   6  22
ATOM     22  C   UNL     1       2.017  14.739  19.867  0.00  0.00    +0.000 A 
ATOM     23  C   UNL     1       3.164  14.042  19.443  0.00  0.00    +0.000 A 
ATOM     24  C   UNL     1       3.897  14.447  18.327  0.00  0.00    +0.000 A 
ATOM     25  C   UNL     1       3.469  15.531  17.578  0.00  0.00    +0.000 A 
ATOM     26  C   UNL     1       2.307  16.206  17.951  0.00  0.00    +0.000 A 
ATOM     27  C   UNL     1       1.552  15.833  19.089  0.00  0.00    +0.000 A 
BRANCH  27  28
ATOM     28  C   UNL     1       0.342  16.636  19.323  0.00  0.00    +0.000 A 
ATOM     29  N   UNL     1       0.214  17.630  20.195  0.00  0.00    +0.000 NA
ATOM     30  N   UNL     1      -1.021  18.208  20.038  0.00  0.00    +0.000 NA
ATOM     31  C   UNL     1      -1.629  17.571  19.070  0.00  0.00    +0.000 A 
ATOM     32  N   UNL     1      -0.825  16.582  18.605  0.00  0.00    +0.000 N 
ATOM     33  H   UNL     1      -1.022  15.918  17.868  0.00  0.00    +0.000 HD
ENDBRANCH  27  28
ENDBRANCH   6  22
TORSDOF 3
ENDMDL
MODEL 4
REMARK VINA RESULT:      -7.9      1.896      3.369
REMARK  Name = 
REMARK  4 active torsions:
REMARK  status: ('A' for Active; 'I' for Inactive)
REMARK    1  A    between atoms: C_1  and  C_2
REMARK    2  A    between atoms: C_11  and  N_12
REMARK    3  A    between atoms: C_17  and  C_19
REMARK    4  A    between atoms: C_24  and  C_25
REMARK                            x       y       z     vdW  Elec       q    Type
REMARK                         _______ _______ _______ _____ _____    ______ ____
ROOT
ATOM      1  N   UNL     1      -1.891  12.652  21.073  0.00  0.00    +0.000 N 
ATOM      2  C   UNL     1      -1.925  14.025  20.582  0.00  0.00    +0.000 C 
ATOM      3  C   UNL     1      -3.019  14.677  21.476  0.00  0.00    +0.000 C 
ATOM      4  C   UNL     1      -4.368  14.823  20.781  0.00  0.00    +0.000 C 
ATOM      5  N   UNL     1      -5.000  13.524  20.918  0.00  0.00    +0.000 N 
ATOM      6  C   UNL     1      -5.855  13.053  19.927  0.00  0.00    +0.000 C 
ATOM      7  O   UNL     1      -6.210  13.788  19.003  0.00  0.00    +0.000 OA
ATOM      8  C   UNL     1      -4.573  12.916  22.170  0.00  0.00    +0.000 C 
ATOM      9  C   UNL     1      -3.282  13.642  22.594  0.00  0.00    +0.000 C 
ATOM     10  C   UNL     1      -2.077  12.710  22.515  0.00  0.00    +0.000 C 
ENDROOT
BRANCH   1  21
ATOM     11  C   UNL     1      -1.017  12.884  18.301  0.00  0.00    +0.000 C 
ATOM     12  C   UNL     1      -0.656  11.743  19.202  0.00  0.00    +0.000 A 
ATOM     13  N   UNL     1       0.142  10.815  18.624  0.00  0.00    +0.000 NA
ATOM     14  C   UNL     1       0.583   9.838  19.415  0.00  0.00    +0.000 A 
ATOM     15  C   UNL     1       1.412   8.880  18.850  0.00  0.00    +0.000 A 
ATOM     16  C   UNL     1       1.907   7.823  19.604  0.00  0.00    +0.000 A 
ATOM     17  C   UNL     1       1.572   7.738  20.951  0.00  0.00    +0.000 A 
ATOM     18  C   UNL     1       0.747   8.710  21.527  0.00  0.00    +0.000 A 
ATOM     19  C   UNL     1       0.232   9.771  20.784  0.00  0.00    +0.000 A 
ATOM     20  N   UNL     1      -0.582  10.698  21.353  0.00  0.00    +0.000 NA
ATOM     21  C   UNL     1      -1.057  11.685  20.554  0.00  0.00    +0.000 A 
ENDBRANCH   1  21
BRANCH   6  22
ATOM     22  C   UNL     1      -6.374  11.647  19.938  0.00  0.00    +0.000 A 
ATOM     23  C   UNL     1      -7.388  11.321  20.860  0.00  0.00    +0.000 A 
ATOM     24  C   UNL     1      -7.914  10.031  20.946  0.00  0.00    +0.000 A 
ATOM     25  C   UNL     1      -7.474   9.049  20.074  0.00  0.00    +0.000 A 
ATOM     26  C   UNL     1      -6.506   9.362  19.120  0.00  0.00    +0.000 A 
ATOM     27  C   UNL     1      -5.938  10.654  19.021  0.00  0.00    +0.000 A 
BRANCH  27  28
ATOM     28  C   UNL     1      -4.950  10.818  17.943  0.00  0.00    +0.000 A 
ATOM     29  N   UNL     1      -3.759  10.233  17.871  0.00  0.00    +0.000 NA
ATOM     30  N   UNL     1      -3.180  10.540  16.665  0.00  0.00    +0.000 NA
ATOM     31  C   UNL     1      -4.022  11.298  16.011  0.00  0.00    +0.000 A 
ATOM     32  N   UNL     1      -5.128  11.505  16.769  0.00  0.00    +0.000 N 
ATOM     33  H   UNL     1      -5.946  12.054  16.538  0.00  0.00    +0.000 HD
ENDBRANCH  27  28
ENDBRANCH   6  22
TORSDOF 3
ENDMDL
MODEL 5
REMARK VINA RESULT:      -7.9      5.940     12.037
REMARK  Name = 
REMARK  4 active torsions:
REMARK  status: ('A' for Active; 'I' for Inactive)
REMARK    1  A    between atoms: C_1  and  C_2
REMARK    2  A    between atoms: C_11  and  N_12
REMARK    3  A    between atoms: C_17  and  C_19
REMARK    4  A    between atoms: C_24  and  C_25
REMARK                            x       y       z     vdW  Elec       q    Type
REMARK                         _______ _______ _______ _____ _____    ______ ____
ROOT
ATOM      1  N   UNL     1       1.715   5.226  20.362  0.00  0.00    +0.000 N 
ATOM      2  C   UNL     1       0.902   4.320  19.560  0.00  0.00    +0.000 C 
ATOM      3  C   UNL     1       1.615   2.952  19.768  0.00  0.00    +0.000 C 
ATOM      4  C   UNL     1       2.503   2.543  18.599  0.00  0.00    +0.000 C 
ATOM      5  N   UNL     1       3.751   3.251  18.814  0.00  0.00    +0.000 N 
ATOM      6  C   UNL     1       4.514   3.672  17.729  0.00  0.00    +0.000 C 
ATOM      7  O   UNL     1       4.226   3.317  16.584  0.00  0.00    +0.000 OA
ATOM      8  C   UNL     1       3.975   3.398  20.246  0.00  0.00    +0.000 C 
ATOM      9  C   UNL     1       2.608   3.199  20.927  0.00  0.00    +0.000 C 
ATOM     10  C   UNL     1       2.114   4.498  21.556  0.00  0.00    +0.000 C 
ENDROOT
BRANCH   1  21
ATOM     11  C   UNL     1       2.795   7.030  18.342  0.00  0.00    +0.000 C 
ATOM     12  C   UNL     1       2.007   7.480  19.534  0.00  0.00    +0.000 A 
ATOM     13  N   UNL     1       1.813   8.819  19.593  0.00  0.00    +0.000 NA
ATOM     14  C   UNL     1       1.024   9.260  20.572  0.00  0.00    +0.000 A 
ATOM     15  C   UNL     1       0.800  10.626  20.648  0.00  0.00    +0.000 A 
ATOM     16  C   UNL     1      -0.002  11.169  21.645  0.00  0.00    +0.000 A 
ATOM     17  C   UNL     1      -0.598  10.319  22.571  0.00  0.00    +0.000 A 
ATOM     18  C   UNL     1      -0.384   8.939  22.488  0.00  0.00    +0.000 A 
ATOM     19  C   UNL     1       0.426   8.378  21.503  0.00  0.00    +0.000 A 
ATOM     20  N   UNL     1       0.639   7.037  21.446  0.00  0.00    +0.000 NA
ATOM     21  C   UNL     1       1.458   6.577  20.468  0.00  0.00    +0.000 A 
ENDBRANCH   1  21
BRANCH   6  22
ATOM     22  C   UNL     1       5.704   4.566  17.904  0.00  0.00    +0.000 A 
ATOM     23  C   UNL     1       6.073   4.933  19.214  0.00  0.00    +0.000 A 
ATOM     24  C   UNL     1       7.158   5.775  19.462  0.00  0.00    +0.000 A 
ATOM     25  C   UNL     1       7.933   6.228  18.406  0.00  0.00    +0.000 A 
ATOM     26  C   UNL     1       7.616   5.837  17.106  0.00  0.00    +0.000 A 
ATOM     27  C   UNL     1       6.510   5.001  16.819  0.00  0.00    +0.000 A 
BRANCH  27  28
ATOM     28  C   UNL     1       6.336   4.667  15.397  0.00  0.00    +0.000 A 
ATOM     29  N   UNL     1       6.195   5.530  14.397  0.00  0.00    +0.000 NA
ATOM     30  N   UNL     1       6.176   4.842  13.210  0.00  0.00    +0.000 NA
ATOM     31  C   UNL     1       6.315   3.573  13.492  0.00  0.00    +0.000 A 
ATOM     32  N   UNL     1       6.407   3.417  14.837  0.00  0.00    +0.000 N 
ATOM     33  H   UNL     1       6.513   2.554  15.356  0.00  0.00    +0.000 HD
ENDBRANCH  27  28
ENDBRANCH   6  22
TORSDOF 3
ENDMDL
MODEL 6
REMARK VINA RESULT:      -7.4      1.775      3.641
REMARK  Name = 
REMARK  4 active torsions:
REMARK  status: ('A' for Active; 'I' for Inactive)
REMARK    1  A    between atoms: C_1  and  C_2
REMARK    2  A    between atoms: C_11  and  N_12
REMARK    3  A    between atoms: C_17  and  C_19
REMARK    4  A    between atoms: C_24  and  C_25
REMARK                            x       y       z     vdW  Elec       q    Type
REMARK                         _______ _______ _______ _____ _____    ______ ____
ROOT
ATOM      1  N   UNL     1      -1.615  12.462  21.527  0.00  0.00    +0.000 N 
ATOM      2  C   UNL     1      -1.477  13.842  21.076  0.00  0.00    +0.000 C 
ATOM      3  C   UNL     1      -2.604  14.570  21.865  0.00  0.00    +0.000 C 
ATOM      4  C   UNL     1      -3.849  14.848  21.032  0.00  0.00    +0.000 C 
ATOM      5  N   UNL     1      -4.601  13.607  21.062  0.00  0.00    +0.000 N 
ATOM      6  C   UNL     1      -5.378  13.234  19.969  0.00  0.00    +0.000 C 
ATOM      7  O   UNL     1      -5.565  14.015  19.035  0.00  0.00    +0.000 OA
ATOM      8  C   UNL     1      -4.369  12.939  22.334  0.00  0.00    +0.000 C 
ATOM      9  C   UNL     1      -3.076  13.539  22.917  0.00  0.00    +0.000 C 
ATOM     10  C   UNL     1      -1.954  12.507  22.941  0.00  0.00    +0.000 C 
ENDROOT
BRANCH   1  21
ATOM     11  C   UNL     1      -0.973  10.267  23.336  0.00  0.00    +0.000 C 
ATOM     12  C   UNL     1      -0.447  10.384  21.938  0.00  0.00    +0.000 A 
ATOM     13  N   UNL     1       0.354   9.359  21.562  0.00  0.00    +0.000 NA
ATOM     14  C   UNL     1       0.758   9.357  20.293  0.00  0.00    +0.000 A 
ATOM     15  C   UNL     1       1.569   8.312  19.879  0.00  0.00    +0.000 A 
ATOM     16  C   UNL     1       2.042   8.240  18.574  0.00  0.00    +0.000 A 
ATOM     17  C   UNL     1       1.679   9.233  17.669  0.00  0.00    +0.000 A 
ATOM     18  C   UNL     1       0.849  10.282  18.080  0.00  0.00    +0.000 A 
ATOM     19  C   UNL     1       0.375  10.375  19.387  0.00  0.00    +0.000 A 
ATOM     20  N   UNL     1      -0.415  11.409  19.777  0.00  0.00    +0.000 NA
ATOM     21  C   UNL     1      -0.814  11.435  21.073  0.00  0.00    +0.000 A 
ENDBRANCH   1  21
BRANCH   6  22
ATOM     22  C   UNL     1      -6.014  11.878  19.883  0.00  0.00    +0.000 A 
ATOM     23  C   UNL     1      -7.061  11.578  20.777  0.00  0.00    +0.000 A 
ATOM     24  C   UNL     1      -7.694  10.334  20.772  0.00  0.00    +0.000 A 
ATOM     25  C   UNL     1      -7.329   9.379  19.837  0.00  0.00    +0.000 A 
ATOM     26  C   UNL     1      -6.330   9.674  18.910  0.00  0.00    +0.000 A 
ATOM     27  C   UNL     1      -5.654  10.917  18.901  0.00  0.00    +0.000 A 
BRANCH  27  28
ATOM     28  C   UNL     1      -4.645  11.070  17.841  0.00  0.00    +0.000 A 
ATOM     29  N   UNL     1      -3.329  11.129  18.009  0.00  0.00    +0.000 NA
ATOM     30  N   UNL     1      -2.720  11.154  16.780  0.00  0.00    +0.000 NA
ATOM     31  C   UNL     1      -3.664  11.100  15.876  0.00  0.00    +0.000 A 
ATOM     32  N   UNL     1      -4.874  11.057  16.489  0.00  0.00    +0.000 N 
ATOM     33  H   UNL     1      -5.788  11.019  16.056  0.00  0.00    +0.000 HD
ENDBRANCH  27  28
ENDBRANCH   6  22
TORSDOF 3
ENDMDL
MODEL 7
REMARK VINA RESULT:      -7.4      0.887      1.692
REMARK  Name = 
REMARK  4 active torsions:
REMARK  status: ('A' for Active; 'I' for Inactive)
REMARK    1  A    between atoms: C_1  and  C_2
REMARK    2  A    between atoms: C_11  and  N_12
REMARK    3  A    between atoms: C_17  and  C_19
REMARK    4  A    between atoms: C_24  and  C_25
REMARK                            x       y       z     vdW  Elec       q    Type
REMARK                         _______ _______ _______ _____ _____    ______ ____
ROOT
ATOM      1  N   UNL     1      -1.075  11.892  22.150  0.00  0.00    +0.000 N 
ATOM      2  C   UNL     1      -0.727  13.308  22.174  0.00  0.00    +0.000 C 
ATOM      3  C   UNL     1      -1.856  13.919  23.054  0.00  0.00    +0.000 C 
ATOM      4  C   UNL     1      -2.947  14.615  22.249  0.00  0.00    +0.000 C 
ATOM      5  N   UNL     1      -3.831  13.548  21.818  0.00  0.00    +0.000 N 
ATOM      6  C   UNL     1      -4.500  13.641  20.602  0.00  0.00    +0.000 C 
ATOM      7  O   UNL     1      -4.477  14.688  19.951  0.00  0.00    +0.000 OA
ATOM      8  C   UNL     1      -3.838  12.499  22.828  0.00  0.00    +0.000 C 
ATOM      9  C   UNL     1      -2.570  12.698  23.679  0.00  0.00    +0.000 C 
ATOM     10  C   UNL     1      -1.583  11.555  23.470  0.00  0.00    +0.000 C 
ENDROOT
BRANCH   1  21
ATOM     11  C   UNL     1      -0.224   9.478  23.547  0.00  0.00    +0.000 C 
ATOM     12  C   UNL     1       0.124   9.791  22.124  0.00  0.00    +0.000 A 
ATOM     13  N   UNL     1       0.866   8.836  21.514  0.00  0.00    +0.000 NA
ATOM     14  C   UNL     1       1.108   9.012  20.216  0.00  0.00    +0.000 A 
ATOM     15  C   UNL     1       1.856   8.043  19.566  0.00  0.00    +0.000 A 
ATOM     16  C   UNL     1       2.161   8.156  18.215  0.00  0.00    +0.000 A 
ATOM     17  C   UNL     1       1.693   9.259  17.506  0.00  0.00    +0.000 A 
ATOM     18  C   UNL     1       0.928  10.232  18.158  0.00  0.00    +0.000 A 
ATOM     19  C   UNL     1       0.621  10.140  19.514  0.00  0.00    +0.000 A 
ATOM     20  N   UNL     1      -0.109  11.102  20.136  0.00  0.00    +0.000 NA
ATOM     21  C   UNL     1      -0.343  10.946  21.463  0.00  0.00    +0.000 A 
ENDBRANCH   1  21
BRANCH   6  22
ATOM     22  C   UNL     1      -5.267  12.484  20.036  0.00  0.00    +0.000 A 
ATOM     23  C   UNL     1      -4.746  11.835  18.899  0.00  0.00    +0.000 A 
ATOM     24  C   UNL     1      -5.406  10.761  18.302  0.00  0.00    +0.000 A 
ATOM     25  C   UNL     1      -6.578  10.276  18.859  0.00  0.00    +0.000 A 
ATOM     26  C   UNL     1      -7.085  10.872  20.014  0.00  0.00    +0.000 A 
ATOM     27  C   UNL     1      -6.451  11.976  20.632  0.00  0.00    +0.000 A 
BRANCH  27  28
ATOM     28  C   UNL     1      -7.107  12.465  21.855  0.00  0.00    +0.000 A 
ATOM     29  N   UNL     1      -7.368  11.754  22.946  0.00  0.00    +0.000 NA
ATOM     30  N   UNL     1      -7.878  12.585  23.912  0.00  0.00    +0.000 NA
ATOM     31  C   UNL     1      -7.915  13.792  23.408  0.00  0.00    +0.000 A 
ATOM     32  N   UNL     1      -7.456  13.762  22.132  0.00  0.00    +0.000 N 
ATOM     33  H   UNL     1      -7.373  14.535  21.484  0.00  0.00    +0.000 HD
ENDBRANCH  27  28
ENDBRANCH   6  22
TORSDOF 3
ENDMDL
MODEL 8
REMARK VINA RESULT:      -7.3      2.407      3.873
REMARK  Name = 
REMARK  4 active torsions:
REMARK  status: ('A' for Active; 'I' for Inactive)
REMARK    1  A    between atoms: C_1  and  C_2
REMARK    2  A    between atoms: C_11  and  N_12
REMARK    3  A    between atoms: C_17  and  C_19
REMARK    4  A    between atoms: C_24  and  C_25
REMARK                            x       y       z     vdW  Elec       q    Type
REMARK                         _______ _______ _______ _____ _____    ______ ____
ROOT
ATOM      1  N   UNL     1       0.964   9.258  20.753  0.00  0.00    +0.000 N 
ATOM      2  C   UNL     1       1.714  10.456  21.111  0.00  0.00    +0.000 C 
ATOM      3  C   UNL     1       0.657  11.300  21.880  0.00  0.00    +0.000 C 
ATOM      4  C   UNL     1       0.049  12.422  21.046  0.00  0.00    +0.000 C 
ATOM      5  N   UNL     1      -0.996  11.783  20.268  0.00  0.00    +0.000 N 
ATOM      6  C   UNL     1      -1.305  12.249  18.994  0.00  0.00    +0.000 C 
ATOM      7  O   UNL     1      -0.813  13.298  18.573  0.00  0.00    +0.000 OA
ATOM      8  C   UNL     1      -1.557  10.682  21.038  0.00  0.00    +0.000 C 
ATOM      9  C   UNL     1      -0.521  10.329  22.121  0.00  0.00    +0.000 C 
ATOM     10  C   UNL     1       0.087   8.953  21.872  0.00  0.00    +0.000 C 
ENDROOT
BRANCH   1  21
ATOM     11  C   UNL     1       1.769   9.713  17.987  0.00  0.00    +0.000 C 
ATOM     12  C   UNL     1       1.862   8.389  18.681  0.00  0.00    +0.000 A 
ATOM     13  N   UNL     1       2.378   7.399  17.915  0.00  0.00    +0.000 NA
ATOM     14  C   UNL     1       2.586   6.230  18.519  0.00  0.00    +0.000 A 
ATOM     15  C   UNL     1       3.124   5.202  17.759  0.00  0.00    +0.000 A 
ATOM     16  C   UNL     1       3.362   3.949  18.309  0.00  0.00    +0.000 A 
ATOM     17  C   UNL     1       3.064   3.732  19.651  0.00  0.00    +0.000 A 
ATOM     18  C   UNL     1       2.533   4.771  20.423  0.00  0.00    +0.000 A 
ATOM     19  C   UNL     1       2.277   6.031  19.885  0.00  0.00    +0.000 A 
ATOM     20  N   UNL     1       1.745   7.024  20.643  0.00  0.00    +0.000 NA
ATOM     21  C   UNL     1       1.507   8.213  20.035  0.00  0.00    +0.000 A 
ENDBRANCH   1  21
BRANCH   6  22
ATOM     22  C   UNL     1      -2.239  11.503  18.088  0.00  0.00    +0.000 A 
ATOM     23  C   UNL     1      -1.681  10.639  17.126  0.00  0.00    +0.000 A 
ATOM     24  C   UNL     1      -2.480   9.921  16.235  0.00  0.00    +0.000 A 
ATOM     25  C   UNL     1      -3.860  10.010  16.321  0.00  0.00    +0.000 A 
ATOM     26  C   UNL     1      -4.434  10.821  17.299  0.00  0.00    +0.000 A 
ATOM     27  C   UNL     1      -3.652  11.578  18.205  0.00  0.00    +0.000 A 
BRANCH  27  28
ATOM     28  C   UNL     1      -4.420  12.360  19.187  0.00  0.00    +0.000 A 
ATOM     29  N   UNL     1      -5.588  12.022  19.722  0.00  0.00    +0.000 NA
ATOM     30  N   UNL     1      -5.928  12.945  20.679  0.00  0.00    +0.000 NA
ATOM     31  C   UNL     1      -4.964  13.828  20.727  0.00  0.00    +0.000 A 
ATOM     32  N   UNL     1      -4.014  13.511  19.812  0.00  0.00    +0.000 N 
ATOM     33  H   UNL     1      -3.156  14.008  19.610  0.00  0.00    +0.000 HD
ENDBRANCH  27  28
ENDBRANCH   6  22
TORSDOF 3
ENDMDL
MODEL 9
REMARK VINA RESULT:      -7.3      3.199      5.948
REMARK  Name = 
REMARK  4 active torsions:
REMARK  status: ('A' for Active; 'I' for Inactive)
REMARK    1  A    between atoms: C_1  and  C_2
REMARK    2  A    between atoms: C_11  and  N_12
REMARK    3  A    between atoms: C_17  and  C_19
REMARK    4  A    between atoms: C_24  and  C_25
REMARK                            x       y       z     vdW  Elec       q    Type
REMARK                         _______ _______ _______ _____ _____    ______ ____
ROOT
ATOM      1  N   UNL     1      -1.216  12.237  21.428  0.00  0.00    +0.000 N 
ATOM      2  C   UNL     1      -0.938  12.397  22.850  0.00  0.00    +0.000 C 
ATOM      3  C   UNL     1      -2.042  13.396  23.301  0.00  0.00    +0.000 C 
ATOM      4  C   UNL     1      -1.543  14.828  23.455  0.00  0.00    +0.000 C 
ATOM      5  N   UNL     1      -1.565  15.376  22.112  0.00  0.00    +0.000 N 
ATOM      6  C   UNL     1      -0.626  16.329  21.730  0.00  0.00    +0.000 C 
ATOM      7  O   UNL     1       0.132  16.833  22.562  0.00  0.00    +0.000 OA
ATOM      8  C   UNL     1      -2.655  14.764  21.365  0.00  0.00    +0.000 C 
ATOM      9  C   UNL     1      -3.021  13.465  22.105  0.00  0.00    +0.000 C 
ATOM     10  C   UNL     1      -2.662  12.238  21.273  0.00  0.00    +0.000 C 
ENDROOT
BRANCH   1  21
ATOM     11  C   UNL     1      -0.623  13.162  18.727  0.00  0.00    +0.000 C 
ATOM     12  C   UNL     1      -0.201  11.831  19.269  0.00  0.00    +0.000 A 
ATOM     13  N   UNL     1       0.510  11.079  18.396  0.00  0.00    +0.000 NA
ATOM     14  C   UNL     1       1.005   9.935  18.865  0.00  0.00    +0.000 A 
ATOM     15  C   UNL     1       1.747   9.152  17.994  0.00  0.00    +0.000 A 
ATOM     16  C   UNL     1       2.290   7.939  18.402  0.00  0.00    +0.000 A 
ATOM     17  C   UNL     1       2.091   7.516  19.712  0.00  0.00    +0.000 A 
ATOM     18  C   UNL     1       1.354   8.311  20.597  0.00  0.00    +0.000 A 
ATOM     19  C   UNL     1       0.793   9.524  20.203  0.00  0.00    +0.000 A 
ATOM     20  N   UNL     1       0.065  10.277  21.068  0.00  0.00    +0.000 NA
ATOM     21  C   UNL     1      -0.464  11.433  20.597  0.00  0.00    +0.000 A 
ENDBRANCH   1  21
BRANCH   6  22
ATOM     22  C   UNL     1      -0.495  16.777  20.305  0.00  0.00    +0.000 A 
ATOM     23  C   UNL     1      -1.571  17.480  19.729  0.00  0.00    +0.000 A 
ATOM     24  C   UNL     1      -1.535  17.918  18.404  0.00  0.00    +0.000 A 
ATOM     25  C   UNL     1      -0.399  17.708  17.640  0.00  0.00    +0.000 A 
ATOM     26  C   UNL     1       0.697  17.058  18.206  0.00  0.00    +0.000 A 
ATOM     27  C   UNL     1       0.685  16.583  19.539  0.00  0.00    +0.000 A 
BRANCH  27  28
ATOM     28  C   UNL     1       1.934  15.943  19.983  0.00  0.00    +0.000 A 
ATOM     29  N   UNL     1       2.473  14.837  19.482  0.00  0.00    +0.000 NA
ATOM     30  N   UNL     1       3.691  14.622  20.076  0.00  0.00    +0.000 NA
ATOM     31  C   UNL     1       3.889  15.599  20.923  0.00  0.00    +0.000 A 
ATOM     32  N   UNL     1       2.820  16.435  20.907  0.00  0.00    +0.000 N 
ATOM     33  H   UNL     1       2.679  17.273  21.457  0.00  0.00    +0.000 HD
ENDBRANCH  27  28
ENDBRANCH   6  22
TORSDOF 3
ENDMDL
