MODEL 1
REMARK VINA RESULT:      -7.4      0.000      0.000
REMARK  Name = 
REMARK  5 active torsions:
REMARK  status: ('A' for Active; 'I' for Inactive)
REMARK    1  A    between atoms: C_2  and  C_3
REMARK    2  A    between atoms: C_3  and  C_13
REMARK    3  A    between atoms: C_4  and  C_5
REMARK    4  A    between atoms: C_8  and  O_9
REMARK    5  A    between atoms: C_10  and  O_11
REMARK                            x       y       z     vdW  Elec       q    Type
REMARK                         _______ _______ _______ _____ _____    ______ ____
ROOT
ATOM      1  C   UNL     1       5.769   5.186  16.982  0.00  0.00    +0.000 C 
ATOM      2  C   UNL     1       4.523   4.843  16.589  0.00  0.00    +0.000 C 
ENDROOT
BRANCH   1   3
ATOM      3  C   UNL     1       6.805   5.521  15.954  0.00  0.00    +0.000 C 
ATOM      4  O   UNL     1       7.523   6.503  16.173  0.00  0.00    +0.000 OA
ATOM      5  N   UNL     1       6.957   4.766  14.795  0.00  0.00    +0.000 N 
ATOM      6  C   UNL     1       8.027   5.146  13.867  0.00  0.00    +0.000 C 
ATOM      7  C   UNL     1       7.511   5.258  12.434  0.00  0.00    +0.000 C 
ATOM      8  C   UNL     1       6.779   3.990  11.999  0.00  0.00    +0.000 C 
ATOM      9  C   UNL     1       5.700   3.617  13.011  0.00  0.00    +0.000 C 
ATOM     10  C   UNL     1       6.296   3.509  14.412  0.00  0.00    +0.000 C 
ENDBRANCH   1   3
BRANCH   2  11
ATOM     11  C   UNL     1       3.416   4.469  17.496  0.00  0.00    +0.000 A 
ATOM     12  C   UNL     1       2.755   5.430  18.279  0.00  0.00    +0.000 A 
ATOM     13  C   UNL     1       1.747   5.050  19.183  0.00  0.00    +0.000 A 
ATOM     14  C   UNL     1       1.409   3.708  19.296  0.00  0.00    +0.000 A 
ATOM     15  C   UNL     1       2.038   2.760  18.492  0.00  0.00    +0.000 A 
ATOM     16  C   UNL     1       3.030   3.125  17.591  0.00  0.00    +0.000 A 
BRANCH  14  17
ATOM     17  O   UNL     1       0.474   3.264  20.189  0.00  0.00    +0.000 OA
ATOM     18  H   UNL     1       0.813   2.456  20.613  0.00  0.00    +0.000 HD
ENDBRANCH  14  17
BRANCH  15  19
ATOM     19  O   UNL     1       1.686   1.442  18.595  0.00  0.00    +0.000 OA
ATOM     20  H   UNL     1       2.110   1.011  17.827  0.00  0.00    +0.000 HD
ENDBRANCH  15  19
ENDBRANCH   2  11
BRANCH   1  22
ATOM     21  N   UNL     1       6.392   4.942  19.681  0.00  0.00    +0.000 NA
ATOM     22  C   UNL     1       6.110   5.053  18.457  0.00  0.00    +0.000 C 
ENDBRANCH   1  22
TORSDOF 5
ENDMDL
MODEL 2
REMARK VINA RESULT:      -7.1      3.882      6.678
REMARK  Name = 
REMARK  5 active torsions:
REMARK  status: ('A' for Active; 'I' for Inactive)
REMARK    1  A    between atoms: C_2  and  C_3
REMARK    2  A    between atoms: C_3  and  C_13
REMARK    3  A    between atoms: C_4  and  C_5
REMARK    4  A    between atoms: C_8  and  O_9
REMARK    5  A    between atoms: C_10  and  O_11
REMARK                            x       y       z     vdW  Elec       q    Type
REMARK                         _______ _______ _______ _____ _____    ______ ____
ROOT
ATOM      1  C   UNL     1       2.757   7.104  18.145  0.00  0.00    +0.000 C 
ATOM      2  C   UNL     1       2.092   5.985  18.506  0.00  0.00    +0.000 C 
ENDROOT
BRANCH   1   3
ATOM      3  C   UNL     1       2.089   8.438  18.273  0.00  0.00    +0.000 C 
ATOM      4  O   UNL     1       2.190   9.216  17.319  0.00  0.00    +0.000 OA
ATOM      5  N   UNL     1       1.384   8.796  19.419  0.00  0.00    +0.000 N 
ATOM      6  C   UNL     1       0.727  10.107  19.435  0.00  0.00    +0.000 C 
ATOM      7  C   UNL     1       1.063  10.885  20.706  0.00  0.00    +0.000 C 
ATOM      8  C   UNL     1       0.770  10.066  21.961  0.00  0.00    +0.000 C 
ATOM      9  C   UNL     1       1.445   8.700  21.883  0.00  0.00    +0.000 C 
ATOM     10  C   UNL     1       1.049   7.981  20.596  0.00  0.00    +0.000 C 
ENDBRANCH   1   3
BRANCH   2  11
ATOM     11  C   UNL     1       2.625   4.609  18.410  0.00  0.00    +0.000 A 
ATOM     12  C   UNL     1       2.069   3.668  17.528  0.00  0.00    +0.000 A 
ATOM     13  C   UNL     1       2.545   2.346  17.493  0.00  0.00    +0.000 A 
ATOM     14  C   UNL     1       3.577   1.975  18.344  0.00  0.00    +0.000 A 
ATOM     15  C   UNL     1       4.155   2.918  19.192  0.00  0.00    +0.000 A 
ATOM     16  C   UNL     1       3.696   4.228  19.230  0.00  0.00    +0.000 A 
BRANCH  14  17
ATOM     17  O   UNL     1       4.055   0.695  18.398  0.00  0.00    +0.000 OA
ATOM     18  H   UNL     1       4.757   0.601  17.730  0.00  0.00    +0.000 HD
ENDBRANCH  14  17
BRANCH  15  19
ATOM     19  O   UNL     1       5.184   2.549  20.015  0.00  0.00    +0.000 OA
ATOM     20  H   UNL     1       4.794   1.889  20.620  0.00  0.00    +0.000 HD
ENDBRANCH  15  19
ENDBRANCH   2  11
BRANCH   1  22
ATOM     21  N   UNL     1       5.223   6.802  16.896  0.00  0.00    +0.000 NA
ATOM     22  C   UNL     1       4.105   6.939  17.462  0.00  0.00    +0.000 C 
ENDBRANCH   1  22
TORSDOF 5
ENDMDL
MODEL 3
REMARK VINA RESULT:      -7.1      1.468      1.652
REMARK  Name = 
REMARK  5 active torsions:
REMARK  status: ('A' for Active; 'I' for Inactive)
REMARK    1  A    between atoms: C_2  and  C_3
REMARK    2  A    between atoms: C_3  and  C_13
REMARK    3  A    between atoms: C_4  and  C_5
REMARK    4  A    between atoms: C_8  and  O_9
REMARK    5  A    between atoms: C_10  and  O_11
REMARK                            x       y       z     vdW  Elec       q    Type
REMARK                         _______ _______ _______ _____ _____    ______ ____
ROOT
ATOM      1  C   UNL     1       5.215   5.280  16.718  0.00  0.00    +0.000 C 
ATOM      2  C   UNL     1       4.933   4.043  17.183  0.00  0.00    +0.000 C 
ENDROOT
BRANCH   1   3
ATOM      3  C   UNL     1       6.434   5.497  15.878  0.00  0.00    +0.000 C 
ATOM      4  O   UNL     1       7.211   6.392  16.228  0.00  0.00    +0.000 OA
ATOM      5  N   UNL     1       6.688   4.731  14.744  0.00  0.00    +0.000 N 
ATOM      6  C   UNL     1       7.930   4.988  14.009  0.00  0.00    +0.000 C 
ATOM      7  C   UNL     1       7.670   5.159  12.513  0.00  0.00    +0.000 C 
ATOM      8  C   UNL     1       6.883   3.982  11.941  0.00  0.00    +0.000 C 
ATOM      9  C   UNL     1       5.619   3.732  12.758  0.00  0.00    +0.000 C 
ATOM     10  C   UNL     1       5.963   3.557  14.235  0.00  0.00    +0.000 C 
ENDBRANCH   1   3
BRANCH   2  11
ATOM     11  C   UNL     1       3.778   3.696  18.037  0.00  0.00    +0.000 A 
ATOM     12  C   UNL     1       2.460   3.777  17.556  0.00  0.00    +0.000 A 
ATOM     13  C   UNL     1       1.370   3.504  18.400  0.00  0.00    +0.000 A 
ATOM     14  C   UNL     1       1.606   3.151  19.722  0.00  0.00    +0.000 A 
ATOM     15  C   UNL     1       2.914   3.033  20.188  0.00  0.00    +0.000 A 
ATOM     16  C   UNL     1       3.999   3.294  19.362  0.00  0.00    +0.000 A 
BRANCH  14  17
ATOM     17  O   UNL     1       0.592   2.921  20.608  0.00  0.00    +0.000 OA
ATOM     18  H   UNL     1       0.729   3.490  21.386  0.00  0.00    +0.000 HD
ENDBRANCH  14  17
BRANCH  15  19
ATOM     19  O   UNL     1       3.139   2.667  21.487  0.00  0.00    +0.000 OA
ATOM     20  H   UNL     1       3.526   3.461  21.905  0.00  0.00    +0.000 HD
ENDBRANCH  15  19
ENDBRANCH   2  11
BRANCH   1  22
ATOM     21  N   UNL     1       3.651   7.393  17.628  0.00  0.00    +0.000 NA
ATOM     22  C   UNL     1       4.360   6.435  17.215  0.00  0.00    +0.000 C 
ENDBRANCH   1  22
TORSDOF 5
ENDMDL
MODEL 4
REMARK VINA RESULT:      -6.9      0.880      1.623
REMARK  Name = 
REMARK  5 active torsions:
REMARK  status: ('A' for Active; 'I' for Inactive)
REMARK    1  A    between atoms: C_2  and  C_3
REMARK    2  A    between atoms: C_3  and  C_13
REMARK    3  A    between atoms: C_4  and  C_5
REMARK    4  A    between atoms: C_8  and  O_9
REMARK    5  A    between atoms: C_10  and  O_11
REMARK                            x       y       z     vdW  Elec       q    Type
REMARK                         _______ _______ _______ _____ _____    ______ ____
ROOT
ATOM      1  C   UNL     1       5.904   5.294  17.139  0.00  0.00    +0.000 C 
ATOM      2  C   UNL     1       4.616   5.041  16.820  0.00  0.00    +0.000 C 
ENDROOT
BRANCH   1   3
ATOM      3  C   UNL     1       6.895   5.579  16.054  0.00  0.00    +0.000 C 
ATOM      4  O   UNL     1       7.642   6.552  16.210  0.00  0.00    +0.000 OA
ATOM      5  N   UNL     1       6.977   4.789  14.911  0.00  0.00    +0.000 N 
ATOM      6  C   UNL     1       8.008   5.121  13.923  0.00  0.00    +0.000 C 
ATOM      7  C   UNL     1       7.426   5.204  12.513  0.00  0.00    +0.000 C 
ATOM      8  C   UNL     1       6.650   3.939  12.150  0.00  0.00    +0.000 C 
ATOM      9  C   UNL     1       5.614   3.616  13.222  0.00  0.00    +0.000 C 
ATOM     10  C   UNL     1       6.275   3.536  14.596  0.00  0.00    +0.000 C 
ENDBRANCH   1   3
BRANCH   2  11
ATOM     11  C   UNL     1       3.545   4.725  17.788  0.00  0.00    +0.000 A 
ATOM     12  C   UNL     1       2.769   3.560  17.667  0.00  0.00    +0.000 A 
ATOM     13  C   UNL     1       1.712   3.304  18.558  0.00  0.00    +0.000 A 
ATOM     14  C   UNL     1       1.440   4.218  19.567  0.00  0.00    +0.000 A 
ATOM     15  C   UNL     1       2.234   5.354  19.711  0.00  0.00    +0.000 A 
ATOM     16  C   UNL     1       3.283   5.613  18.840  0.00  0.00    +0.000 A 
BRANCH  14  17
ATOM     17  O   UNL     1       0.398   4.056  20.436  0.00  0.00    +0.000 OA
ATOM     18  H   UNL     1       0.760   3.833  21.312  0.00  0.00    +0.000 HD
ENDBRANCH  14  17
BRANCH  15  19
ATOM     19  O   UNL     1       1.971   6.241  20.719  0.00  0.00    +0.000 OA
ATOM     20  H   UNL     1       2.665   6.924  20.635  0.00  0.00    +0.000 HD
ENDBRANCH  15  19
ENDBRANCH   2  11
BRANCH   1  22
ATOM     21  N   UNL     1       6.673   4.957  19.791  0.00  0.00    +0.000 NA
ATOM     22  C   UNL     1       6.325   5.110  18.588  0.00  0.00    +0.000 C 
ENDBRANCH   1  22
TORSDOF 5
ENDMDL
MODEL 5
REMARK VINA RESULT:      -6.8      4.563      7.037
REMARK  Name = 
REMARK  5 active torsions:
REMARK  status: ('A' for Active; 'I' for Inactive)
REMARK    1  A    between atoms: C_2  and  C_3
REMARK    2  A    between atoms: C_3  and  C_13
REMARK    3  A    between atoms: C_4  and  C_5
REMARK    4  A    between atoms: C_8  and  O_9
REMARK    5  A    between atoms: C_10  and  O_11
REMARK                            x       y       z     vdW  Elec       q    Type
REMARK                         _______ _______ _______ _____ _____    ______ ____
ROOT
ATOM      1  C   UNL     1       2.120   7.144  19.821  0.00  0.00    +0.000 C 
ATOM      2  C   UNL     1       1.790   5.900  20.232  0.00  0.00    +0.000 C 
ENDROOT
BRANCH   1   3
ATOM      3  C   UNL     1       1.529   8.335  20.509  0.00  0.00    +0.000 C 
ATOM      4  O   UNL     1       1.557   8.346  21.744  0.00  0.00    +0.000 OA
ATOM      5  N   UNL     1       0.966   9.389  19.795  0.00  0.00    +0.000 N 
ATOM      6  C   UNL     1       0.450  10.531  20.556  0.00  0.00    +0.000 C 
ATOM      7  C   UNL     1      -0.967  10.900  20.120  0.00  0.00    +0.000 C 
ATOM      8  C   UNL     1      -1.053  11.113  18.610  0.00  0.00    +0.000 C 
ATOM      9  C   UNL     1      -0.475   9.914  17.863  0.00  0.00    +0.000 C 
ATOM     10  C   UNL     1       0.944   9.620  18.343  0.00  0.00    +0.000 C 
ENDBRANCH   1   3
BRANCH   2  11
ATOM     11  C   UNL     1       2.283   4.644  19.628  0.00  0.00    +0.000 A 
ATOM     12  C   UNL     1       1.498   3.910  18.723  0.00  0.00    +0.000 A 
ATOM     13  C   UNL     1       1.955   2.685  18.205  0.00  0.00    +0.000 A 
ATOM     14  C   UNL     1       3.196   2.204  18.599  0.00  0.00    +0.000 A 
ATOM     15  C   UNL     1       3.990   2.950  19.467  0.00  0.00    +0.000 A 
ATOM     16  C   UNL     1       3.552   4.164  19.979  0.00  0.00    +0.000 A 
BRANCH  14  17
ATOM     17  O   UNL     1       3.679   0.998  18.173  0.00  0.00    +0.000 OA
ATOM     18  H   UNL     1       3.277   0.793  17.311  0.00  0.00    +0.000 HD
ENDBRANCH  14  17
BRANCH  15  19
ATOM     19  O   UNL     1       5.220   2.478  19.835  0.00  0.00    +0.000 OA
ATOM     20  H   UNL     1       5.839   2.862  19.183  0.00  0.00    +0.000 HD
ENDBRANCH  15  19
ENDBRANCH   2  11
BRANCH   1  22
ATOM     21  N   UNL     1       3.648   7.383  17.509  0.00  0.00    +0.000 NA
ATOM     22  C   UNL     1       2.956   7.275  18.557  0.00  0.00    +0.000 C 
ENDBRANCH   1  22
TORSDOF 5
ENDMDL
MODEL 6
REMARK VINA RESULT:      -6.8      1.377      1.446
REMARK  Name = 
REMARK  5 active torsions:
REMARK  status: ('A' for Active; 'I' for Inactive)
REMARK    1  A    between atoms: C_2  and  C_3
REMARK    2  A    between atoms: C_3  and  C_13
REMARK    3  A    between atoms: C_4  and  C_5
REMARK    4  A    between atoms: C_8  and  O_9
REMARK    5  A    between atoms: C_10  and  O_11
REMARK                            x       y       z     vdW  Elec       q    Type
REMARK                         _______ _______ _______ _____ _____    ______ ____
ROOT
ATOM      1  C   UNL     1       5.150   5.492  16.897  0.00  0.00    +0.000 C 
ATOM      2  C   UNL     1       4.942   4.319  17.534  0.00  0.00    +0.000 C 
ENDROOT
BRANCH   1   3
ATOM      3  C   UNL     1       6.364   5.664  16.037  0.00  0.00    +0.000 C 
ATOM      4  O   UNL     1       7.142   6.577  16.332  0.00  0.00    +0.000 OA
ATOM      5  N   UNL     1       6.612   4.836  14.946  0.00  0.00    +0.000 N 
ATOM      6  C   UNL     1       7.848   5.054  14.189  0.00  0.00    +0.000 C 
ATOM      7  C   UNL     1       7.578   5.141  12.688  0.00  0.00    +0.000 C 
ATOM      8  C   UNL     1       6.789   3.933  12.188  0.00  0.00    +0.000 C 
ATOM      9  C   UNL     1       5.531   3.727  13.026  0.00  0.00    +0.000 C 
ATOM     10  C   UNL     1       5.885   3.634  14.508  0.00  0.00    +0.000 C 
ENDBRANCH   1   3
BRANCH   2  11
ATOM     11  C   UNL     1       3.800   4.025  18.426  0.00  0.00    +0.000 A 
ATOM     12  C   UNL     1       3.672   4.645  19.680  0.00  0.00    +0.000 A 
ATOM     13  C   UNL     1       2.616   4.308  20.544  0.00  0.00    +0.000 A 
ATOM     14  C   UNL     1       1.692   3.352  20.144  0.00  0.00    +0.000 A 
ATOM     15  C   UNL     1       1.797   2.765  18.885  0.00  0.00    +0.000 A 
ATOM     16  C   UNL     1       2.833   3.095  18.022  0.00  0.00    +0.000 A 
BRANCH  14  17
ATOM     17  O   UNL     1       0.670   2.942  20.954  0.00  0.00    +0.000 OA
ATOM     18  H   UNL     1       0.476   3.654  21.589  0.00  0.00    +0.000 HD
ENDBRANCH  14  17
BRANCH  15  19
ATOM     19  O   UNL     1       0.872   1.837  18.491  0.00  0.00    +0.000 OA
ATOM     20  H   UNL     1       1.243   1.448  17.674  0.00  0.00    +0.000 HD
ENDBRANCH  15  19
ENDBRANCH   2  11
BRANCH   1  22
ATOM     21  N   UNL     1       3.447   7.609  17.487  0.00  0.00    +0.000 NA
ATOM     22  C   UNL     1       4.219   6.649  17.219  0.00  0.00    +0.000 C 
ENDBRANCH   1  22
TORSDOF 5
ENDMDL
MODEL 7
REMARK VINA RESULT:      -6.8      2.293      6.857
REMARK  Name = 
REMARK  5 active torsions:
REMARK  status: ('A' for Active; 'I' for Inactive)
REMARK    1  A    between atoms: C_2  and  C_3
REMARK    2  A    between atoms: C_3  and  C_13
REMARK    3  A    between atoms: C_4  and  C_5
REMARK    4  A    between atoms: C_8  and  O_9
REMARK    5  A    between atoms: C_10  and  O_11
REMARK                            x       y       z     vdW  Elec       q    Type
REMARK                         _______ _______ _______ _____ _____    ______ ____
ROOT
ATOM      1  C   UNL     1       5.132   4.620  17.363  0.00  0.00    +0.000 C 
ATOM      2  C   UNL     1       5.614   3.711  16.486  0.00  0.00    +0.000 C 
ENDROOT
BRANCH   1   3
ATOM      3  C   UNL     1       4.707   4.180  18.729  0.00  0.00    +0.000 C 
ATOM      4  O   UNL     1       5.599   3.884  19.532  0.00  0.00    +0.000 OA
ATOM      5  N   UNL     1       3.364   4.102  19.088  0.00  0.00    +0.000 N 
ATOM      6  C   UNL     1       3.047   3.701  20.463  0.00  0.00    +0.000 C 
ATOM      7  C   UNL     1       2.005   2.585  20.494  0.00  0.00    +0.000 C 
ATOM      8  C   UNL     1       0.761   2.954  19.687  0.00  0.00    +0.000 C 
ATOM      9  C   UNL     1       1.145   3.395  18.278  0.00  0.00    +0.000 C 
ATOM     10  C   UNL     1       2.174   4.520  18.332  0.00  0.00    +0.000 C 
ENDBRANCH   1   3
BRANCH   2  11
ATOM     11  C   UNL     1       6.046   4.007  15.104  0.00  0.00    +0.000 A 
ATOM     12  C   UNL     1       5.390   3.445  13.995  0.00  0.00    +0.000 A 
ATOM     13  C   UNL     1       5.853   3.686  12.690  0.00  0.00    +0.000 A 
ATOM     14  C   UNL     1       6.970   4.488  12.503  0.00  0.00    +0.000 A 
ATOM     15  C   UNL     1       7.597   5.076  13.600  0.00  0.00    +0.000 A 
ATOM     16  C   UNL     1       7.145   4.851  14.893  0.00  0.00    +0.000 A 
BRANCH  14  17
ATOM     17  O   UNL     1       7.501   4.723  11.266  0.00  0.00    +0.000 OA
ATOM     18  H   UNL     1       6.973   4.237  10.607  0.00  0.00    +0.000 HD
ENDBRANCH  14  17
BRANCH  15  19
ATOM     19  O   UNL     1       8.686   5.881  13.406  0.00  0.00    +0.000 OA
ATOM     20  H   UNL     1       8.335   6.666  12.940  0.00  0.00    +0.000 HD
ENDBRANCH  15  19
ENDBRANCH   2  11
BRANCH   1  22
ATOM     21  N   UNL     1       4.684   7.204  16.437  0.00  0.00    +0.000 NA
ATOM     22  C   UNL     1       4.887   6.032  16.857  0.00  0.00    +0.000 C 
ENDBRANCH   1  22
TORSDOF 5
ENDMDL
MODEL 8
REMARK VINA RESULT:      -6.6      2.253      6.654
REMARK  Name = 
REMARK  5 active torsions:
REMARK  status: ('A' for Active; 'I' for Inactive)
REMARK    1  A    between atoms: C_2  and  C_3
REMARK    2  A    between atoms: C_3  and  C_13
REMARK    3  A    between atoms: C_4  and  C_5
REMARK    4  A    between atoms: C_8  and  O_9
REMARK    5  A    between atoms: C_10  and  O_11
REMARK                            x       y       z     vdW  Elec       q    Type
REMARK                         _______ _______ _______ _____ _____    ______ ____
ROOT
ATOM      1  C   UNL     1       5.426   4.740  17.598  0.00  0.00    +0.000 C 
ATOM      2  C   UNL     1       4.851   4.906  16.387  0.00  0.00    +0.000 C 
ENDROOT
BRANCH   1   3
ATOM      3  C   UNL     1       4.637   5.019  18.839  0.00  0.00    +0.000 C 
ATOM      4  O   UNL     1       5.225   5.577  19.771  0.00  0.00    +0.000 OA
ATOM      5  N   UNL     1       3.295   4.664  18.949  0.00  0.00    +0.000 N 
ATOM      6  C   UNL     1       2.594   5.016  20.187  0.00  0.00    +0.000 C 
ATOM      7  C   UNL     1       1.841   3.819  20.764  0.00  0.00    +0.000 C 
ATOM      8  C   UNL     1       0.918   3.182  19.727  0.00  0.00    +0.000 C 
ATOM      9  C   UNL     1       1.685   2.864  18.447  0.00  0.00    +0.000 C 
ATOM     10  C   UNL     1       2.394   4.111  17.926  0.00  0.00    +0.000 C 
ENDBRANCH   1   3
BRANCH   2  11
ATOM     11  C   UNL     1       5.521   4.688  15.088  0.00  0.00    +0.000 A 
ATOM     12  C   UNL     1       5.023   3.765  14.152  0.00  0.00    +0.000 A 
ATOM     13  C   UNL     1       5.707   3.523  12.948  0.00  0.00    +0.000 A 
ATOM     14  C   UNL     1       6.887   4.208  12.689  0.00  0.00    +0.000 A 
ATOM     15  C   UNL     1       7.360   5.150  13.600  0.00  0.00    +0.000 A 
ATOM     16  C   UNL     1       6.689   5.402  14.789  0.00  0.00    +0.000 A 
BRANCH  14  17
ATOM     17  O   UNL     1       7.628   3.985  11.562  0.00  0.00    +0.000 OA
ATOM     18  H   UNL     1       8.570   4.081  11.789  0.00  0.00    +0.000 HD
ENDBRANCH  14  17
BRANCH  15  19
ATOM     19  O   UNL     1       8.514   5.834  13.329  0.00  0.00    +0.000 OA
ATOM     20  H   UNL     1       9.114   5.166  12.944  0.00  0.00    +0.000 HD
ENDBRANCH  15  19
ENDBRANCH   2  11
BRANCH   1  22
ATOM     21  N   UNL     1       8.150   4.184  17.674  0.00  0.00    +0.000 NA
ATOM     22  C   UNL     1       6.915   4.436  17.640  0.00  0.00    +0.000 C 
ENDBRANCH   1  22
TORSDOF 5
ENDMDL
MODEL 9
REMARK VINA RESULT:      -6.6      3.192      7.329
REMARK  Name = 
REMARK  5 active torsions:
REMARK  status: ('A' for Active; 'I' for Inactive)
REMARK    1  A    between atoms: C_2  and  C_3
REMARK    2  A    between atoms: C_3  and  C_13
REMARK    3  A    between atoms: C_4  and  C_5
REMARK    4  A    between atoms: C_8  and  O_9
REMARK    5  A    between atoms: C_10  and  O_11
REMARK                            x       y       z     vdW  Elec       q    Type
REMARK                         _______ _______ _______ _____ _____    ______ ____
ROOT
ATOM      1  C   UNL     1       2.857   6.055  18.926  0.00  0.00    +0.000 C 
ATOM      2  C   UNL     1       4.112   6.512  18.723  0.00  0.00    +0.000 C 
ENDROOT
BRANCH   1   3
ATOM      3  C   UNL     1       2.054   6.578  20.077  0.00  0.00    +0.000 C 
ATOM      4  O   UNL     1       1.778   5.783  20.982  0.00  0.00    +0.000 OA
ATOM      5  N   UNL     1       1.630   7.902  20.132  0.00  0.00    +0.000 N 
ATOM      6  C   UNL     1       0.885   8.332  21.320  0.00  0.00    +0.000 C 
ATOM      7  C   UNL     1      -0.399   9.068  20.940  0.00  0.00    +0.000 C 
ATOM      8  C   UNL     1      -0.123  10.216  19.971  0.00  0.00    +0.000 C 
ATOM      9  C   UNL     1       0.681   9.727  18.771  0.00  0.00    +0.000 C 
ATOM     10  C   UNL     1       1.952   9.019  19.232  0.00  0.00    +0.000 C 
ENDBRANCH   1   3
BRANCH   2  11
ATOM     11  C   UNL     1       5.017   6.066  17.642  0.00  0.00    +0.000 A 
ATOM     12  C   UNL     1       4.741   6.347  16.294  0.00  0.00    +0.000 A 
ATOM     13  C   UNL     1       5.577   5.862  15.273  0.00  0.00    +0.000 A 
ATOM     14  C   UNL     1       6.686   5.098  15.611  0.00  0.00    +0.000 A 
ATOM     15  C   UNL     1       6.981   4.852  16.950  0.00  0.00    +0.000 A 
ATOM     16  C   UNL     1       6.165   5.331  17.966  0.00  0.00    +0.000 A 
BRANCH  14  17
ATOM     17  O   UNL     1       7.512   4.555  14.668  0.00  0.00    +0.000 OA
ATOM     18  H   UNL     1       7.835   5.271  14.093  0.00  0.00    +0.000 HD
ENDBRANCH  14  17
BRANCH  15  19
ATOM     19  O   UNL     1       8.086   4.114  17.276  0.00  0.00    +0.000 OA
ATOM     20  H   UNL     1       8.844   4.686  17.042  0.00  0.00    +0.000 HD
ENDBRANCH  15  19
ENDBRANCH   2  11
BRANCH   1  22
ATOM     21  N   UNL     1       1.976   3.939  17.351  0.00  0.00    +0.000 NA
ATOM     22  C   UNL     1       2.375   4.899  18.065  0.00  0.00    +0.000 C 
ENDBRANCH   1  22
TORSDOF 5
ENDMDL
