MODEL 1
REMARK VINA RESULT:      -9.9      0.000      0.000
REMARK  Name = 
REMARK  5 active torsions:
REMARK  status: ('A' for Active; 'I' for Inactive)
REMARK    1  A    between atoms: C_1  and  C_2
REMARK    2  A    between atoms: C_4  and  C_5
REMARK    3  A    between atoms: N_11  and  C_12
REMARK    4  A    between atoms: N_17  and  C_18
REMARK    5  A    between atoms: C_25  and  C_26
REMARK                            x       y       z     vdW  Elec       q    Type
REMARK                         _______ _______ _______ _____ _____    ______ ____
ROOT
ATOM      1  C   UNL     1       1.971   7.980  19.247  0.00  0.00    +0.000 A 
ATOM      2  C   UNL     1       2.670   8.197  18.051  0.00  0.00    +0.000 A 
ATOM      3  F   UNL     1       2.519   9.348  17.375  0.00  0.00    +0.000 F 
ATOM      4  C   UNL     1       3.522   7.244  17.494  0.00  0.00    +0.000 A 
ATOM      5  C   UNL     1       3.683   6.002  18.113  0.00  0.00    +0.000 A 
ATOM      6  C   UNL     1       4.581   4.976  17.476  0.00  0.00    +0.000 A 
ATOM      7  N   UNL     1       5.351   5.343  16.497  0.00  0.00    +0.000 NA
ATOM      8  C   UNL     1       4.483   3.610  18.054  0.00  0.00    +0.000 A 
ATOM      9  C   UNL     1       3.791   3.430  19.180  0.00  0.00    +0.000 A 
ATOM     10  N   UNL     1       3.136   4.407  19.896  0.00  0.00    +0.000 N 
ATOM     11  C   UNL     1       3.001   5.708  19.313  0.00  0.00    +0.000 A 
ATOM     12  C   UNL     1       2.185   6.724  19.866  0.00  0.00    +0.000 A 
ATOM     13  F   UNL     1       1.578   6.491  21.042  0.00  0.00    +0.000 F 
ENDROOT
BRANCH   1  17
ATOM     14  C   UNL     1      -1.176  11.889  18.739  0.00  0.00    +0.000 C 
ATOM     15  C   UNL     1      -0.465  10.881  19.592  0.00  0.00    +0.000 A 
ATOM     16  C   UNL     1       0.424   9.967  19.030  0.00  0.00    +0.000 A 
ATOM     17  C   UNL     1       1.048   8.994  19.828  0.00  0.00    +0.000 A 
ATOM     18  C   UNL     1       0.749   9.034  21.198  0.00  0.00    +0.000 A 
ATOM     19  C   UNL     1      -0.129   9.994  21.700  0.00  0.00    +0.000 A 
ATOM     20  C   UNL     1      -0.447  10.058  23.163  0.00  0.00    +0.000 C 
ATOM     21  N   UNL     1      -0.740  10.905  20.913  0.00  0.00    +0.000 NA
ENDBRANCH   1  17
BRANCH   7  22
ATOM     22  C   UNL     1       6.258   4.432  15.865  0.00  0.00    +0.000 C 
ATOM     23  C   UNL     1       5.931   4.030  14.450  0.00  0.00    +0.000 C 
ATOM     24  C   UNL     1       7.036   5.001  14.706  0.00  0.00    +0.000 C 
ENDBRANCH   7  22
BRANCH  10  25
ATOM     25  C   UNL     1       2.361   4.002  21.090  0.00  0.00    +0.000 C 
ATOM     26  C   UNL     1       1.139   3.113  21.059  0.00  0.00    +0.000 C 
ATOM     27  C   UNL     1       2.428   2.582  21.602  0.00  0.00    +0.000 C 
ENDBRANCH  10  25
TORSDOF 3
ENDMDL
MODEL 2
REMARK VINA RESULT:      -9.9      0.039      1.598
REMARK  Name = 
REMARK  5 active torsions:
REMARK  status: ('A' for Active; 'I' for Inactive)
REMARK    1  A    between atoms: C_1  and  C_2
REMARK    2  A    between atoms: C_4  and  C_5
REMARK    3  A    between atoms: N_11  and  C_12
REMARK    4  A    between atoms: N_17  and  C_18
REMARK    5  A    between atoms: C_25  and  C_26
REMARK                            x       y       z     vdW  Elec       q    Type
REMARK                         _______ _______ _______ _____ _____    ______ ____
ROOT
ATOM      1  C   UNL     1       1.959   7.974  19.246  0.00  0.00    +0.000 A 
ATOM      2  C   UNL     1       2.668   8.193  18.056  0.00  0.00    +0.000 A 
ATOM      3  F   UNL     1       2.522   9.345  17.381  0.00  0.00    +0.000 F 
ATOM      4  C   UNL     1       3.524   7.241  17.504  0.00  0.00    +0.000 A 
ATOM      5  C   UNL     1       3.680   5.998  18.122  0.00  0.00    +0.000 A 
ATOM      6  C   UNL     1       4.583   4.973  17.491  0.00  0.00    +0.000 A 
ATOM      7  N   UNL     1       5.362   5.341  16.519  0.00  0.00    +0.000 NA
ATOM      8  C   UNL     1       4.480   3.606  18.065  0.00  0.00    +0.000 A 
ATOM      9  C   UNL     1       3.779   3.424  19.185  0.00  0.00    +0.000 A 
ATOM     10  N   UNL     1       3.118   4.399  19.897  0.00  0.00    +0.000 N 
ATOM     11  C   UNL     1       2.988   5.702  19.316  0.00  0.00    +0.000 A 
ATOM     12  C   UNL     1       2.168   6.717  19.864  0.00  0.00    +0.000 A 
ATOM     13  F   UNL     1       1.551   6.482  21.034  0.00  0.00    +0.000 F 
ENDROOT
BRANCH   1  17
ATOM     14  C   UNL     1      -0.440  10.031  23.177  0.00  0.00    +0.000 C 
ATOM     15  C   UNL     1      -0.134   9.979  21.709  0.00  0.00    +0.000 A 
ATOM     16  C   UNL     1       0.709   8.999  21.189  0.00  0.00    +0.000 A 
ATOM     17  C   UNL     1       1.030   8.986  19.821  0.00  0.00    +0.000 A 
ATOM     18  C   UNL     1       0.427   9.979  19.036  0.00  0.00    +0.000 A 
ATOM     19  C   UNL     1      -0.429  10.914  19.616  0.00  0.00    +0.000 A 
ATOM     20  C   UNL     1      -1.092  11.972  18.787  0.00  0.00    +0.000 C 
ATOM     21  N   UNL     1      -0.706  10.927  20.938  0.00  0.00    +0.000 NA
ENDBRANCH   1  17
BRANCH   7  22
ATOM     22  C   UNL     1       6.274   4.432  15.892  0.00  0.00    +0.000 C 
ATOM     23  C   UNL     1       5.958   4.033  14.475  0.00  0.00    +0.000 C 
ATOM     24  C   UNL     1       7.062   5.003  14.742  0.00  0.00    +0.000 C 
ENDBRANCH   7  22
BRANCH  10  25
ATOM     25  C   UNL     1       2.333   3.992  21.085  0.00  0.00    +0.000 C 
ATOM     26  C   UNL     1       1.153   3.048  21.050  0.00  0.00    +0.000 C 
ATOM     27  C   UNL     1       2.451   2.591  21.638  0.00  0.00    +0.000 C 
ENDBRANCH  10  25
TORSDOF 3
ENDMDL
MODEL 3
REMARK VINA RESULT:      -7.9      2.238      8.785
REMARK  Name = 
REMARK  5 active torsions:
REMARK  status: ('A' for Active; 'I' for Inactive)
REMARK    1  A    between atoms: C_1  and  C_2
REMARK    2  A    between atoms: C_4  and  C_5
REMARK    3  A    between atoms: N_11  and  C_12
REMARK    4  A    between atoms: N_17  and  C_18
REMARK    5  A    between atoms: C_25  and  C_26
REMARK                            x       y       z     vdW  Elec       q    Type
REMARK                         _______ _______ _______ _____ _____    ______ ____
ROOT
ATOM      1  C   UNL     1       1.033   8.960  20.066  0.00  0.00    +0.000 A 
ATOM      2  C   UNL     1       1.074   9.518  21.352  0.00  0.00    +0.000 A 
ATOM      3  F   UNL     1       1.858   8.979  22.301  0.00  0.00    +0.000 F 
ATOM      4  C   UNL     1       0.305  10.621  21.718  0.00  0.00    +0.000 A 
ATOM      5  C   UNL     1      -0.575  11.197  20.799  0.00  0.00    +0.000 A 
ATOM      6  C   UNL     1      -1.421  12.366  21.226  0.00  0.00    +0.000 A 
ATOM      7  N   UNL     1      -1.156  12.948  22.357  0.00  0.00    +0.000 NA
ATOM      8  C   UNL     1      -2.505  12.737  20.279  0.00  0.00    +0.000 A 
ATOM      9  C   UNL     1      -2.532  12.172  19.071  0.00  0.00    +0.000 A 
ATOM     10  N   UNL     1      -1.632  11.251  18.584  0.00  0.00    +0.000 N 
ATOM     11  C   UNL     1      -0.680  10.680  19.490  0.00  0.00    +0.000 A 
ATOM     12  C   UNL     1       0.157   9.591  19.149  0.00  0.00    +0.000 A 
ATOM     13  F   UNL     1       0.123   9.124  17.889  0.00  0.00    +0.000 F 
ENDROOT
BRANCH   1  17
ATOM     14  C   UNL     1       2.414   4.157  20.752  0.00  0.00    +0.000 C 
ATOM     15  C   UNL     1       2.517   5.458  20.013  0.00  0.00    +0.000 A 
ATOM     16  C   UNL     1       1.778   6.569  20.411  0.00  0.00    +0.000 A 
ATOM     17  C   UNL     1       1.843   7.769  19.684  0.00  0.00    +0.000 A 
ATOM     18  C   UNL     1       2.710   7.778  18.583  0.00  0.00    +0.000 A 
ATOM     19  C   UNL     1       3.444   6.638  18.254  0.00  0.00    +0.000 A 
ATOM     20  C   UNL     1       4.386   6.637  17.088  0.00  0.00    +0.000 C 
ATOM     21  N   UNL     1       3.349   5.485  18.950  0.00  0.00    +0.000 NA
ENDBRANCH   1  17
BRANCH   7  22
ATOM     22  C   UNL     1      -1.894  14.087  22.814  0.00  0.00    +0.000 C 
ATOM     23  C   UNL     1      -2.813  13.867  23.986  0.00  0.00    +0.000 C 
ATOM     24  C   UNL     1      -1.520  14.587  24.185  0.00  0.00    +0.000 C 
ENDBRANCH   7  22
BRANCH  10  25
ATOM     25  C   UNL     1      -1.867  10.683  17.237  0.00  0.00    +0.000 C 
ATOM     26  C   UNL     1      -2.980   9.720  16.895  0.00  0.00    +0.000 C 
ATOM     27  C   UNL     1      -3.048  11.134  16.411  0.00  0.00    +0.000 C 
ENDBRANCH  10  25
TORSDOF 3
ENDMDL
MODEL 4
REMARK VINA RESULT:      -7.9      2.213      8.653
REMARK  Name = 
REMARK  5 active torsions:
REMARK  status: ('A' for Active; 'I' for Inactive)
REMARK    1  A    between atoms: C_1  and  C_2
REMARK    2  A    between atoms: C_4  and  C_5
REMARK    3  A    between atoms: N_11  and  C_12
REMARK    4  A    between atoms: N_17  and  C_18
REMARK    5  A    between atoms: C_25  and  C_26
REMARK                            x       y       z     vdW  Elec       q    Type
REMARK                         _______ _______ _______ _____ _____    ______ ____
ROOT
ATOM      1  C   UNL     1       1.034   8.917  20.042  0.00  0.00    +0.000 A 
ATOM      2  C   UNL     1       1.060   9.457  21.336  0.00  0.00    +0.000 A 
ATOM      3  F   UNL     1       1.829   8.902  22.288  0.00  0.00    +0.000 F 
ATOM      4  C   UNL     1       0.289  10.557  21.708  0.00  0.00    +0.000 A 
ATOM      5  C   UNL     1      -0.577  11.150  20.786  0.00  0.00    +0.000 A 
ATOM      6  C   UNL     1      -1.424  12.315  21.219  0.00  0.00    +0.000 A 
ATOM      7  N   UNL     1      -1.173  12.880  22.361  0.00  0.00    +0.000 NA
ATOM      8  C   UNL     1      -2.494  12.704  20.263  0.00  0.00    +0.000 A 
ATOM      9  C   UNL     1      -2.507  12.156  19.047  0.00  0.00    +0.000 A 
ATOM     10  N   UNL     1      -1.604  11.239  18.559  0.00  0.00    +0.000 N 
ATOM     11  C   UNL     1      -0.665  10.652  19.468  0.00  0.00    +0.000 A 
ATOM     12  C   UNL     1       0.172   9.565  19.123  0.00  0.00    +0.000 A 
ATOM     13  F   UNL     1       0.153   9.116  17.856  0.00  0.00    +0.000 F 
ENDROOT
BRANCH   1  17
ATOM     14  C   UNL     1       4.444   6.681  17.075  0.00  0.00    +0.000 C 
ATOM     15  C   UNL     1       3.482   6.644  18.225  0.00  0.00    +0.000 A 
ATOM     16  C   UNL     1       2.707   7.756  18.545  0.00  0.00    +0.000 A 
ATOM     17  C   UNL     1       1.845   7.730  19.654  0.00  0.00    +0.000 A 
ATOM     18  C   UNL     1       1.795   6.525  20.370  0.00  0.00    +0.000 A 
ATOM     19  C   UNL     1       2.577   5.440  19.978  0.00  0.00    +0.000 A 
ATOM     20  C   UNL     1       2.524   4.141  20.724  0.00  0.00    +0.000 C 
ATOM     21  N   UNL     1       3.421   5.492  18.924  0.00  0.00    +0.000 NA
ENDBRANCH   1  17
BRANCH   7  22
ATOM     22  C   UNL     1      -1.913  14.014  22.824  0.00  0.00    +0.000 C 
ATOM     23  C   UNL     1      -2.834  13.786  23.994  0.00  0.00    +0.000 C 
ATOM     24  C   UNL     1      -1.542  14.506  24.200  0.00  0.00    +0.000 C 
ENDBRANCH   7  22
BRANCH  10  25
ATOM     25  C   UNL     1      -1.822  10.691  17.201  0.00  0.00    +0.000 C 
ATOM     26  C   UNL     1      -2.908   9.704  16.839  0.00  0.00    +0.000 C 
ATOM     27  C   UNL     1      -3.016  11.125  16.383  0.00  0.00    +0.000 C 
ENDBRANCH  10  25
TORSDOF 3
ENDMDL
MODEL 5
REMARK VINA RESULT:      -7.1      1.794      4.690
REMARK  Name = 
REMARK  5 active torsions:
REMARK  status: ('A' for Active; 'I' for Inactive)
REMARK    1  A    between atoms: C_1  and  C_2
REMARK    2  A    between atoms: C_4  and  C_5
REMARK    3  A    between atoms: N_11  and  C_12
REMARK    4  A    between atoms: N_17  and  C_18
REMARK    5  A    between atoms: C_25  and  C_26
REMARK                            x       y       z     vdW  Elec       q    Type
REMARK                         _______ _______ _______ _____ _____    ______ ____
ROOT
ATOM      1  C   UNL     1       1.441   9.059  19.283  0.00  0.00    +0.000 A 
ATOM      2  C   UNL     1       1.001   8.396  20.437  0.00  0.00    +0.000 A 
ATOM      3  F   UNL     1       0.182   9.013  21.305  0.00  0.00    +0.000 F 
ATOM      4  C   UNL     1       1.396   7.097  20.756  0.00  0.00    +0.000 A 
ATOM      5  C   UNL     1       2.292   6.415  19.928  0.00  0.00    +0.000 A 
ATOM      6  C   UNL     1       2.732   5.028  20.309  0.00  0.00    +0.000 A 
ATOM      7  N   UNL     1       2.106   4.416  21.269  0.00  0.00    +0.000 NA
ATOM      8  C   UNL     1       3.874   4.492  19.523  0.00  0.00    +0.000 A 
ATOM      9  C   UNL     1       4.287   5.158  18.444  0.00  0.00    +0.000 A 
ATOM     10  N   UNL     1       3.750   6.329  17.956  0.00  0.00    +0.000 N 
ATOM     11  C   UNL     1       2.788   7.026  18.756  0.00  0.00    +0.000 A 
ATOM     12  C   UNL     1       2.320   8.325  18.449  0.00  0.00    +0.000 A 
ATOM     13  F   UNL     1       2.727   8.901  17.304  0.00  0.00    +0.000 F 
ENDROOT
BRANCH   1  17
ATOM     14  C   UNL     1      -2.122  12.542  18.499  0.00  0.00    +0.000 C 
ATOM     15  C   UNL     1      -0.680  12.134  18.571  0.00  0.00    +0.000 A 
ATOM     16  C   UNL     1      -0.321  10.816  18.841  0.00  0.00    +0.000 A 
ATOM     17  C   UNL     1       1.031  10.453  18.956  0.00  0.00    +0.000 A 
ATOM     18  C   UNL     1       1.965  11.477  18.746  0.00  0.00    +0.000 A 
ATOM     19  C   UNL     1       1.538  12.771  18.450  0.00  0.00    +0.000 A 
ATOM     20  C   UNL     1       2.525  13.873  18.210  0.00  0.00    +0.000 C 
ATOM     21  N   UNL     1       0.233  13.108  18.370  0.00  0.00    +0.000 NA
ENDBRANCH   1  17
BRANCH   7  22
ATOM     22  C   UNL     1       2.445   3.082  21.665  0.00  0.00    +0.000 C 
ATOM     23  C   UNL     1       1.317   2.226  22.178  0.00  0.00    +0.000 C 
ATOM     24  C   UNL     1       1.860   1.990  20.807  0.00  0.00    +0.000 C 
ENDBRANCH   7  22
BRANCH  10  25
ATOM     25  C   UNL     1       4.390   6.958  16.779  0.00  0.00    +0.000 C 
ATOM     26  C   UNL     1       5.879   7.169  16.622  0.00  0.00    +0.000 C 
ATOM     27  C   UNL     1       5.187   6.125  15.803  0.00  0.00    +0.000 C 
ENDBRANCH  10  25
TORSDOF 3
ENDMDL
MODEL 6
REMARK VINA RESULT:      -7.0      1.790      4.691
REMARK  Name = 
REMARK  5 active torsions:
REMARK  status: ('A' for Active; 'I' for Inactive)
REMARK    1  A    between atoms: C_1  and  C_2
REMARK    2  A    between atoms: C_4  and  C_5
REMARK    3  A    between atoms: N_11  and  C_12
REMARK    4  A    between atoms: N_17  and  C_18
REMARK    5  A    between atoms: C_25  and  C_26
REMARK                            x       y       z     vdW  Elec       q    Type
REMARK                         _______ _______ _______ _____ _____    ______ ____
ROOT
ATOM      1  C   UNL     1       1.413   9.055  19.307  0.00  0.00    +0.000 A 
ATOM      2  C   UNL     1       0.979   8.383  20.459  0.00  0.00    +0.000 A 
ATOM      3  F   UNL     1       0.160   8.992  21.333  0.00  0.00    +0.000 F 
ATOM      4  C   UNL     1       1.383   7.085  20.771  0.00  0.00    +0.000 A 
ATOM      5  C   UNL     1       2.279   6.412  19.937  0.00  0.00    +0.000 A 
ATOM      6  C   UNL     1       2.727   5.025  20.310  0.00  0.00    +0.000 A 
ATOM      7  N   UNL     1       2.108   4.405  21.269  0.00  0.00    +0.000 NA
ATOM      8  C   UNL     1       3.870   4.499  19.518  0.00  0.00    +0.000 A 
ATOM      9  C   UNL     1       4.276   5.172  18.440  0.00  0.00    +0.000 A 
ATOM     10  N   UNL     1       3.731   6.342  17.960  0.00  0.00    +0.000 N 
ATOM     11  C   UNL     1       2.768   7.030  18.766  0.00  0.00    +0.000 A 
ATOM     12  C   UNL     1       2.293   8.329  18.467  0.00  0.00    +0.000 A 
ATOM     13  F   UNL     1       2.693   8.912  17.324  0.00  0.00    +0.000 F 
ENDROOT
BRANCH   1  17
ATOM     14  C   UNL     1       2.517  13.845  18.177  0.00  0.00    +0.000 C 
ATOM     15  C   UNL     1       1.519  12.759  18.450  0.00  0.00    +0.000 A 
ATOM     16  C   UNL     1       1.934  11.471  18.783  0.00  0.00    +0.000 A 
ATOM     17  C   UNL     1       0.994  10.448  18.988  0.00  0.00    +0.000 A 
ATOM     18  C   UNL     1      -0.354  10.815  18.875  0.00  0.00    +0.000 A 
ATOM     19  C   UNL     1      -0.703  12.130  18.566  0.00  0.00    +0.000 A 
ATOM     20  C   UNL     1      -2.140  12.541  18.455  0.00  0.00    +0.000 C 
ATOM     21  N   UNL     1       0.216  13.095  18.346  0.00  0.00    +0.000 NA
ENDBRANCH   1  17
BRANCH   7  22
ATOM     22  C   UNL     1       2.454   3.071  21.657  0.00  0.00    +0.000 C 
ATOM     23  C   UNL     1       1.339   2.218  22.203  0.00  0.00    +0.000 C 
ATOM     24  C   UNL     1       1.843   1.979  20.818  0.00  0.00    +0.000 C 
ENDBRANCH   7  22
BRANCH  10  25
ATOM     25  C   UNL     1       4.364   6.981  16.784  0.00  0.00    +0.000 C 
ATOM     26  C   UNL     1       5.850   7.210  16.628  0.00  0.00    +0.000 C 
ATOM     27  C   UNL     1       5.172   6.158  15.807  0.00  0.00    +0.000 C 
ENDBRANCH  10  25
TORSDOF 3
ENDMDL
