MODEL 1
REMARK VINA RESULT:      -9.0      0.000      0.000
REMARK  Name = 
REMARK  5 active torsions:
REMARK  status: ('A' for Active; 'I' for Inactive)
REMARK    1  A    between atoms: C_2  and  C_3
REMARK    2  A    between atoms: C_3  and  N_4
REMARK    3  A    between atoms: N_10  and  N_11
REMARK    4  A    between atoms: C_12  and  C_14
REMARK    5  A    between atoms: C_23  and  C_24
REMARK                            x       y       z     vdW  Elec       q    Type
REMARK                         _______ _______ _______ _____ _____    ______ ____
ROOT
ATOM      1  C   UNL     1       2.942   6.980  18.553  0.00  0.00    +0.000 A 
ATOM      2  N   UNL     1       3.720   7.502  17.540  0.00  0.00    +0.000 N 
ATOM      3  C   UNL     1       4.385   6.520  16.852  0.00  0.00    +0.000 A 
ATOM      4  C   UNL     1       5.240   6.621  15.744  0.00  0.00    +0.000 A 
ATOM      5  C   UNL     1       5.767   5.441  15.225  0.00  0.00    +0.000 A 
ATOM      6  C   UNL     1       5.461   4.219  15.810  0.00  0.00    +0.000 A 
ATOM      7  F   UNL     1       5.976   3.095  15.289  0.00  0.00    +0.000 F 
ATOM      8  C   UNL     1       4.622   4.129  16.920  0.00  0.00    +0.000 A 
ATOM      9  C   UNL     1       4.046   5.308  17.450  0.00  0.00    +0.000 A 
ATOM     10  C   UNL     1       3.116   5.593  18.519  0.00  0.00    +0.000 A 
ATOM     11  H   UNL     1       3.734   8.479  17.281  0.00  0.00    +0.000 HD
ENDROOT
BRANCH  10  12
ATOM     12  C   UNL     1       2.439   4.631  19.400  0.00  0.00    +0.000 A 
ATOM     13  C   UNL     1       2.835   4.435  20.730  0.00  0.00    +0.000 A 
ATOM     14  C   UNL     1       2.170   3.519  21.553  0.00  0.00    +0.000 A 
ATOM     15  C   UNL     1       1.124   2.753  21.046  0.00  0.00    +0.000 A 
ATOM     16  C   UNL     1       0.731   2.915  19.722  0.00  0.00    +0.000 A 
ATOM     17  C   UNL     1       1.373   3.858  18.913  0.00  0.00    +0.000 A 
ENDBRANCH  10  12
BRANCH   1  19
ATOM     18  N   UNL     1       1.558   8.923  18.683  0.00  0.00    +0.000 N 
ATOM     19  C   UNL     1       2.069   7.818  19.359  0.00  0.00    +0.000 C 
ATOM     20  O   UNL     1       1.812   7.585  20.538  0.00  0.00    +0.000 OA
ATOM     21  H   UNL     1       1.931   9.217  17.787  0.00  0.00    +0.000 HD
BRANCH  18  28
ATOM     22  N   UNL     1       0.102  11.981  19.826  0.00  0.00    +0.000 N 
ATOM     23  C   UNL     1       0.420  13.304  19.633  0.00  0.00    +0.000 C 
ATOM     24  O   UNL     1      -0.219  14.259  20.065  0.00  0.00    +0.000 OA
ATOM     25  C   UNL     1       1.680  13.472  18.823  0.00  0.00    +0.000 C 
ATOM     26  S   UNL     1       2.155  11.813  18.277  0.00  0.00    +0.000 S 
ATOM     27  C   UNL     1       0.899  11.054  19.216  0.00  0.00    +0.000 C 
ATOM     28  N   UNL     1       0.719   9.780  19.344  0.00  0.00    +0.000 NA
BRANCH  22  29
ATOM     29  C   UNL     1      -1.042  11.599  20.633  0.00  0.00    +0.000 C 
BRANCH  29  31
ATOM     30  C   UNL     1      -0.572  10.382  22.785  0.00  0.00    +0.000 C 
ATOM     31  C   UNL     1      -0.628  11.518  22.076  0.00  0.00    +0.000 C 
ENDBRANCH  29  31
ENDBRANCH  22  29
ENDBRANCH  18  28
ENDBRANCH   1  19
TORSDOF 5
ENDMDL
MODEL 2
REMARK VINA RESULT:      -8.8      1.289      1.435
REMARK  Name = 
REMARK  5 active torsions:
REMARK  status: ('A' for Active; 'I' for Inactive)
REMARK    1  A    between atoms: C_2  and  C_3
REMARK    2  A    between atoms: C_3  and  N_4
REMARK    3  A    between atoms: N_10  and  N_11
REMARK    4  A    between atoms: C_12  and  C_14
REMARK    5  A    between atoms: C_23  and  C_24
REMARK                            x       y       z     vdW  Elec       q    Type
REMARK                         _______ _______ _______ _____ _____    ______ ____
ROOT
ATOM      1  C   UNL     1       2.905   7.006  18.690  0.00  0.00    +0.000 A 
ATOM      2  N   UNL     1       3.649   7.545  17.660  0.00  0.00    +0.000 N 
ATOM      3  C   UNL     1       4.267   6.572  16.918  0.00  0.00    +0.000 A 
ATOM      4  C   UNL     1       5.077   6.691  15.778  0.00  0.00    +0.000 A 
ATOM      5  C   UNL     1       5.562   5.518  15.204  0.00  0.00    +0.000 A 
ATOM      6  C   UNL     1       5.260   4.285  15.767  0.00  0.00    +0.000 A 
ATOM      7  F   UNL     1       5.733   3.168  15.194  0.00  0.00    +0.000 F 
ATOM      8  C   UNL     1       4.466   4.177  16.908  0.00  0.00    +0.000 A 
ATOM      9  C   UNL     1       3.932   5.349  17.495  0.00  0.00    +0.000 A 
ATOM     10  C   UNL     1       3.053   5.617  18.609  0.00  0.00    +0.000 A 
ATOM     11  H   UNL     1       3.669   8.528  17.428  0.00  0.00    +0.000 HD
ENDROOT
BRANCH  10  12
ATOM     12  C   UNL     1       2.396   4.642  19.491  0.00  0.00    +0.000 A 
ATOM     13  C   UNL     1       2.825   4.423  20.808  0.00  0.00    +0.000 A 
ATOM     14  C   UNL     1       2.179   3.494  21.631  0.00  0.00    +0.000 A 
ATOM     15  C   UNL     1       1.120   2.738  21.138  0.00  0.00    +0.000 A 
ATOM     16  C   UNL     1       0.695   2.922  19.826  0.00  0.00    +0.000 A 
ATOM     17  C   UNL     1       1.318   3.878  19.017  0.00  0.00    +0.000 A 
ENDBRANCH  10  12
BRANCH   1  19
ATOM     18  N   UNL     1       1.854   9.118  19.067  0.00  0.00    +0.000 N 
ATOM     19  C   UNL     1       2.080   7.834  19.556  0.00  0.00    +0.000 C 
ATOM     20  O   UNL     1       1.632   7.446  20.632  0.00  0.00    +0.000 OA
ATOM     21  H   UNL     1       2.388   9.493  18.290  0.00  0.00    +0.000 HD
BRANCH  18  28
ATOM     22  N   UNL     1      -0.884  11.225  19.982  0.00  0.00    +0.000 N 
ATOM     23  C   UNL     1      -2.048  11.586  19.346  0.00  0.00    +0.000 C 
ATOM     24  O   UNL     1      -2.928  12.298  19.822  0.00  0.00    +0.000 OA
ATOM     25  C   UNL     1      -2.134  11.012  17.954  0.00  0.00    +0.000 C 
ATOM     26  S   UNL     1      -0.711   9.910  17.773  0.00  0.00    +0.000 S 
ATOM     27  C   UNL     1      -0.048  10.374  19.317  0.00  0.00    +0.000 C 
ATOM     28  N   UNL     1       1.086   9.985  19.797  0.00  0.00    +0.000 NA
BRANCH  22  29
ATOM     29  C   UNL     1      -0.575  11.724  21.310  0.00  0.00    +0.000 C 
BRANCH  29  31
ATOM     30  C   UNL     1      -0.464   9.915  23.056  0.00  0.00    +0.000 C 
ATOM     31  C   UNL     1      -1.169  10.801  22.338  0.00  0.00    +0.000 C 
ENDBRANCH  29  31
ENDBRANCH  22  29
ENDBRANCH  18  28
ENDBRANCH   1  19
TORSDOF 5
ENDMDL
MODEL 3
REMARK VINA RESULT:      -8.8      0.717      1.161
REMARK  Name = 
REMARK  5 active torsions:
REMARK  status: ('A' for Active; 'I' for Inactive)
REMARK    1  A    between atoms: C_2  and  C_3
REMARK    2  A    between atoms: C_3  and  N_4
REMARK    3  A    between atoms: N_10  and  N_11
REMARK    4  A    between atoms: C_12  and  C_14
REMARK    5  A    between atoms: C_23  and  C_24
REMARK                            x       y       z     vdW  Elec       q    Type
REMARK                         _______ _______ _______ _____ _____    ______ ____
ROOT
ATOM      1  C   UNL     1       2.971   7.043  18.373  0.00  0.00    +0.000 A 
ATOM      2  N   UNL     1       3.777   7.522  17.362  0.00  0.00    +0.000 N 
ATOM      3  C   UNL     1       4.459   6.513  16.734  0.00  0.00    +0.000 A 
ATOM      4  C   UNL     1       5.345   6.567  15.647  0.00  0.00    +0.000 A 
ATOM      5  C   UNL     1       5.884   5.366  15.191  0.00  0.00    +0.000 A 
ATOM      6  C   UNL     1       5.560   4.170  15.816  0.00  0.00    +0.000 A 
ATOM      7  F   UNL     1       6.087   3.025  15.357  0.00  0.00    +0.000 F 
ATOM      8  C   UNL     1       4.690   4.127  16.905  0.00  0.00    +0.000 A 
ATOM      9  C   UNL     1       4.101   5.326  17.371  0.00  0.00    +0.000 A 
ATOM     10  C   UNL     1       3.143   5.655  18.401  0.00  0.00    +0.000 A 
ATOM     11  H   UNL     1       3.800   8.487  17.064  0.00  0.00    +0.000 HD
ENDROOT
BRANCH  10  12
ATOM     12  C   UNL     1       2.439   4.731  19.301  0.00  0.00    +0.000 A 
ATOM     13  C   UNL     1       2.787   4.601  20.653  0.00  0.00    +0.000 A 
ATOM     14  C   UNL     1       2.098   3.720  21.493  0.00  0.00    +0.000 A 
ATOM     15  C   UNL     1       1.077   2.922  20.986  0.00  0.00    +0.000 A 
ATOM     16  C   UNL     1       0.732   3.017  19.641  0.00  0.00    +0.000 A 
ATOM     17  C   UNL     1       1.398   3.926  18.812  0.00  0.00    +0.000 A 
ENDBRANCH  10  12
BRANCH   1  19
ATOM     18  N   UNL     1       1.490   8.918  18.355  0.00  0.00    +0.000 N 
ATOM     19  C   UNL     1       2.077   7.913  19.120  0.00  0.00    +0.000 C 
ATOM     20  O   UNL     1       1.864   7.788  20.324  0.00  0.00    +0.000 OA
ATOM     21  H   UNL     1       1.823   9.138  17.422  0.00  0.00    +0.000 HD
BRANCH  18  28
ATOM     22  N   UNL     1       0.064  12.007  19.449  0.00  0.00    +0.000 N 
ATOM     23  C   UNL     1       0.463  13.318  19.342  0.00  0.00    +0.000 C 
ATOM     24  O   UNL     1      -0.173  14.290  19.738  0.00  0.00    +0.000 OA
ATOM     25  C   UNL     1       1.811  13.447  18.678  0.00  0.00    +0.000 C 
ATOM     26  S   UNL     1       2.263  11.786  18.124  0.00  0.00    +0.000 S 
ATOM     27  C   UNL     1       0.878  11.061  18.893  0.00  0.00    +0.000 C 
ATOM     28  N   UNL     1       0.626   9.795  18.953  0.00  0.00    +0.000 NA
BRANCH  22  29
ATOM     29  C   UNL     1      -1.178  11.657  20.114  0.00  0.00    +0.000 C 
BRANCH  29  31
ATOM     30  C   UNL     1      -2.708  11.079  18.201  0.00  0.00    +0.000 C 
ATOM     31  C   UNL     1      -2.330  11.912  19.182  0.00  0.00    +0.000 C 
ENDBRANCH  29  31
ENDBRANCH  22  29
ENDBRANCH  18  28
ENDBRANCH   1  19
TORSDOF 5
ENDMDL
MODEL 4
REMARK VINA RESULT:      -8.5      1.324      1.822
REMARK  Name = 
REMARK  5 active torsions:
REMARK  status: ('A' for Active; 'I' for Inactive)
REMARK    1  A    between atoms: C_2  and  C_3
REMARK    2  A    between atoms: C_3  and  N_4
REMARK    3  A    between atoms: N_10  and  N_11
REMARK    4  A    between atoms: C_12  and  C_14
REMARK    5  A    between atoms: C_23  and  C_24
REMARK                            x       y       z     vdW  Elec       q    Type
REMARK                         _______ _______ _______ _____ _____    ______ ____
ROOT
ATOM      1  C   UNL     1       2.801   7.012  18.817  0.00  0.00    +0.000 A 
ATOM      2  N   UNL     1       3.534   7.604  17.809  0.00  0.00    +0.000 N 
ATOM      3  C   UNL     1       4.191   6.674  17.046  0.00  0.00    +0.000 A 
ATOM      4  C   UNL     1       5.005   6.852  15.916  0.00  0.00    +0.000 A 
ATOM      5  C   UNL     1       5.534   5.712  15.315  0.00  0.00    +0.000 A 
ATOM      6  C   UNL     1       5.270   4.455  15.841  0.00  0.00    +0.000 A 
ATOM      7  F   UNL     1       5.785   3.371  15.241  0.00  0.00    +0.000 F 
ATOM      8  C   UNL     1       4.471   4.288  16.972  0.00  0.00    +0.000 A 
ATOM      9  C   UNL     1       3.894   5.424  17.586  0.00  0.00    +0.000 A 
ATOM     10  C   UNL     1       2.997   5.632  18.700  0.00  0.00    +0.000 A 
ATOM     11  H   UNL     1       3.522   8.593  17.604  0.00  0.00    +0.000 HD
ENDROOT
BRANCH  10  12
ATOM     12  C   UNL     1       2.367   4.611  19.549  0.00  0.00    +0.000 A 
ATOM     13  C   UNL     1       1.261   3.866  19.118  0.00  0.00    +0.000 A 
ATOM     14  C   UNL     1       0.683   2.894  19.942  0.00  0.00    +0.000 A 
ATOM     15  C   UNL     1       1.175   2.680  21.226  0.00  0.00    +0.000 A 
ATOM     16  C   UNL     1       2.257   3.426  21.681  0.00  0.00    +0.000 A 
ATOM     17  C   UNL     1       2.857   4.371  20.842  0.00  0.00    +0.000 A 
ENDBRANCH  10  12
BRANCH   1  19
ATOM     18  N   UNL     1       1.568   9.026  19.182  0.00  0.00    +0.000 N 
ATOM     19  C   UNL     1       1.942   7.788  19.698  0.00  0.00    +0.000 C 
ATOM     20  O   UNL     1       1.586   7.397  20.807  0.00  0.00    +0.000 OA
ATOM     21  H   UNL     1       2.025   9.422  18.367  0.00  0.00    +0.000 HD
BRANCH  18  28
ATOM     22  N   UNL     1      -1.155  11.179  20.031  0.00  0.00    +0.000 N 
ATOM     23  C   UNL     1      -2.203  11.701  19.310  0.00  0.00    +0.000 C 
ATOM     24  O   UNL     1      -3.101  12.403  19.766  0.00  0.00    +0.000 OA
ATOM     25  C   UNL     1      -2.131  11.322  17.853  0.00  0.00    +0.000 C 
ATOM     26  S   UNL     1      -0.756  10.157  17.700  0.00  0.00    +0.000 S 
ATOM     27  C   UNL     1      -0.283  10.367  19.364  0.00  0.00    +0.000 C 
ATOM     28  N   UNL     1       0.755   9.840  19.924  0.00  0.00    +0.000 NA
BRANCH  22  29
ATOM     29  C   UNL     1      -1.002  11.476  21.444  0.00  0.00    +0.000 C 
BRANCH  29  31
ATOM     30  C   UNL     1      -0.657  13.726  22.516  0.00  0.00    +0.000 C 
ATOM     31  C   UNL     1      -0.319  12.807  21.601  0.00  0.00    +0.000 C 
ENDBRANCH  29  31
ENDBRANCH  22  29
ENDBRANCH  18  28
ENDBRANCH   1  19
TORSDOF 5
ENDMDL
MODEL 5
REMARK VINA RESULT:      -8.3      2.308      4.272
REMARK  Name = 
REMARK  5 active torsions:
REMARK  status: ('A' for Active; 'I' for Inactive)
REMARK    1  A    between atoms: C_2  and  C_3
REMARK    2  A    between atoms: C_3  and  N_4
REMARK    3  A    between atoms: N_10  and  N_11
REMARK    4  A    between atoms: C_12  and  C_14
REMARK    5  A    between atoms: C_23  and  C_24
REMARK                            x       y       z     vdW  Elec       q    Type
REMARK                         _______ _______ _______ _____ _____    ______ ____
ROOT
ATOM      1  C   UNL     1       2.661   6.244  18.189  0.00  0.00    +0.000 A 
ATOM      2  N   UNL     1       1.590   5.377  18.256  0.00  0.00    +0.000 N 
ATOM      3  C   UNL     1       1.997   4.069  18.297  0.00  0.00    +0.000 A 
ATOM      4  C   UNL     1       1.237   2.894  18.402  0.00  0.00    +0.000 A 
ATOM      5  C   UNL     1       1.922   1.682  18.446  0.00  0.00    +0.000 A 
ATOM      6  C   UNL     1       3.308   1.657  18.370  0.00  0.00    +0.000 A 
ATOM      7  F   UNL     1       3.947   0.478  18.421  0.00  0.00    +0.000 F 
ATOM      8  C   UNL     1       4.055   2.828  18.252  0.00  0.00    +0.000 A 
ATOM      9  C   UNL     1       3.390   4.077  18.236  0.00  0.00    +0.000 A 
ATOM     10  C   UNL     1       3.817   5.455  18.185  0.00  0.00    +0.000 A 
ATOM     11  H   UNL     1       0.628   5.670  18.347  0.00  0.00    +0.000 HD
ENDROOT
BRANCH  10  12
ATOM     12  C   UNL     1       5.194   5.969  18.165  0.00  0.00    +0.000 A 
ATOM     13  C   UNL     1       5.639   6.864  17.182  0.00  0.00    +0.000 A 
ATOM     14  C   UNL     1       6.953   7.345  17.188  0.00  0.00    +0.000 A 
ATOM     15  C   UNL     1       7.856   6.907  18.152  0.00  0.00    +0.000 A 
ATOM     16  C   UNL     1       7.441   6.001  19.123  0.00  0.00    +0.000 A 
ATOM     17  C   UNL     1       6.116   5.550  19.137  0.00  0.00    +0.000 A 
ENDBRANCH  10  12
BRANCH   1  19
ATOM     18  N   UNL     1       1.803   8.143  19.357  0.00  0.00    +0.000 N 
ATOM     19  C   UNL     1       2.485   7.687  18.232  0.00  0.00    +0.000 C 
ATOM     20  O   UNL     1       2.887   8.442  17.349  0.00  0.00    +0.000 OA
ATOM     21  H   UNL     1       1.303   7.507  19.969  0.00  0.00    +0.000 HD
BRANCH  18  28
ATOM     22  N   UNL     1       0.683  11.225  20.779  0.00  0.00    +0.000 N 
ATOM     23  C   UNL     1      -0.045  11.533  21.904  0.00  0.00    +0.000 C 
ATOM     24  O   UNL     1      -0.314  12.667  22.288  0.00  0.00    +0.000 OA
ATOM     25  C   UNL     1      -0.504  10.298  22.637  0.00  0.00    +0.000 C 
ATOM     26  S   UNL     1       0.273   8.895  21.801  0.00  0.00    +0.000 S 
ATOM     27  C   UNL     1       0.935   9.903  20.543  0.00  0.00    +0.000 C 
ATOM     28  N   UNL     1       1.582   9.486  19.505  0.00  0.00    +0.000 NA
BRANCH  22  29
ATOM     29  C   UNL     1       1.167  12.270  19.895  0.00  0.00    +0.000 C 
BRANCH  29  31
ATOM     30  C   UNL     1      -0.209  13.903  18.564  0.00  0.00    +0.000 C 
ATOM     31  C   UNL     1       0.080  12.645  18.926  0.00  0.00    +0.000 C 
ENDBRANCH  29  31
ENDBRANCH  22  29
ENDBRANCH  18  28
ENDBRANCH   1  19
TORSDOF 5
ENDMDL
MODEL 6
REMARK VINA RESULT:      -7.8      2.028      2.495
REMARK  Name = 
REMARK  5 active torsions:
REMARK  status: ('A' for Active; 'I' for Inactive)
REMARK    1  A    between atoms: C_2  and  C_3
REMARK    2  A    between atoms: C_3  and  N_4
REMARK    3  A    between atoms: N_10  and  N_11
REMARK    4  A    between atoms: C_12  and  C_14
REMARK    5  A    between atoms: C_23  and  C_24
REMARK                            x       y       z     vdW  Elec       q    Type
REMARK                         _______ _______ _______ _____ _____    ______ ____
ROOT
ATOM      1  C   UNL     1       3.206   7.385  17.931  0.00  0.00    +0.000 A 
ATOM      2  N   UNL     1       4.365   7.971  17.467  0.00  0.00    +0.000 N 
ATOM      3  C   UNL     1       5.428   7.108  17.524  0.00  0.00    +0.000 A 
ATOM      4  C   UNL     1       6.760   7.295  17.122  0.00  0.00    +0.000 A 
ATOM      5  C   UNL     1       7.638   6.225  17.276  0.00  0.00    +0.000 A 
ATOM      6  C   UNL     1       7.197   5.030  17.827  0.00  0.00    +0.000 A 
ATOM      7  F   UNL     1       8.059   4.011  17.960  0.00  0.00    +0.000 F 
ATOM      8  C   UNL     1       5.876   4.857  18.238  0.00  0.00    +0.000 A 
ATOM      9  C   UNL     1       4.952   5.915  18.065  0.00  0.00    +0.000 A 
ATOM     10  C   UNL     1       3.538   6.080  18.309  0.00  0.00    +0.000 A 
ATOM     11  H   UNL     1       4.410   8.894  17.057  0.00  0.00    +0.000 HD
ENDROOT
BRANCH  10  12
ATOM     12  C   UNL     1       2.593   5.079  18.823  0.00  0.00    +0.000 A 
ATOM     13  C   UNL     1       2.170   5.074  20.160  0.00  0.00    +0.000 A 
ATOM     14  C   UNL     1       1.263   4.115  20.625  0.00  0.00    +0.000 A 
ATOM     15  C   UNL     1       0.796   3.119  19.772  0.00  0.00    +0.000 A 
ATOM     16  C   UNL     1       1.223   3.092  18.448  0.00  0.00    +0.000 A 
ATOM     17  C   UNL     1       2.100   4.074  17.975  0.00  0.00    +0.000 A 
ENDBRANCH  10  12
BRANCH   1  19
ATOM     18  N   UNL     1       1.966   9.388  18.332  0.00  0.00    +0.000 N 
ATOM     19  C   UNL     1       1.924   8.072  17.880  0.00  0.00    +0.000 C 
ATOM     20  O   UNL     1       0.889   7.539  17.487  0.00  0.00    +0.000 OA
ATOM     21  H   UNL     1       2.767   9.751  18.838  0.00  0.00    +0.000 HD
BRANCH  18  28
ATOM     22  N   UNL     1      -0.829  11.261  19.538  0.00  0.00    +0.000 N 
ATOM     23  C   UNL     1      -1.287  11.561  20.799  0.00  0.00    +0.000 C 
ATOM     24  O   UNL     1      -2.257  12.269  21.053  0.00  0.00    +0.000 OA
ATOM     25  C   UNL     1      -0.461  10.902  21.873  0.00  0.00    +0.000 C 
ATOM     26  S   UNL     1       0.936  10.120  21.030  0.00  0.00    +0.000 S 
ATOM     27  C   UNL     1       0.305  10.505  19.451  0.00  0.00    +0.000 C 
ATOM     28  N   UNL     1       0.818  10.134  18.324  0.00  0.00    +0.000 NA
BRANCH  22  29
ATOM     29  C   UNL     1      -1.522  11.745  18.357  0.00  0.00    +0.000 C 
BRANCH  29  31
ATOM     30  C   UNL     1      -2.522   9.892  16.981  0.00  0.00    +0.000 C 
ATOM     31  C   UNL     1      -2.608  10.775  17.986  0.00  0.00    +0.000 C 
ENDBRANCH  29  31
ENDBRANCH  22  29
ENDBRANCH  18  28
ENDBRANCH   1  19
TORSDOF 5
ENDMDL
MODEL 7
REMARK VINA RESULT:      -7.7      3.733      8.436
REMARK  Name = 
REMARK  5 active torsions:
REMARK  status: ('A' for Active; 'I' for Inactive)
REMARK    1  A    between atoms: C_2  and  C_3
REMARK    2  A    between atoms: C_3  and  N_4
REMARK    3  A    between atoms: N_10  and  N_11
REMARK    4  A    between atoms: C_12  and  C_14
REMARK    5  A    between atoms: C_23  and  C_24
REMARK                            x       y       z     vdW  Elec       q    Type
REMARK                         _______ _______ _______ _____ _____    ______ ____
ROOT
ATOM      1  C   UNL     1       0.621  11.179  20.035  0.00  0.00    +0.000 A 
ATOM      2  N   UNL     1       1.488  12.128  20.536  0.00  0.00    +0.000 N 
ATOM      3  C   UNL     1       1.187  13.384  20.076  0.00  0.00    +0.000 A 
ATOM      4  C   UNL     1       1.792  14.616  20.367  0.00  0.00    +0.000 A 
ATOM      5  C   UNL     1       1.260  15.755  19.767  0.00  0.00    +0.000 A 
ATOM      6  C   UNL     1       0.181  15.652  18.900  0.00  0.00    +0.000 A 
ATOM      7  F   UNL     1      -0.319  16.763  18.339  0.00  0.00    +0.000 F 
ATOM      8  C   UNL     1      -0.406  14.422  18.605  0.00  0.00    +0.000 A 
ATOM      9  C   UNL     1       0.092  13.251  19.224  0.00  0.00    +0.000 A 
ATOM     10  C   UNL     1      -0.282  11.856  19.208  0.00  0.00    +0.000 A 
ATOM     11  H   UNL     1       2.203  11.937  21.223  0.00  0.00    +0.000 HD
ENDROOT
BRANCH  10  12
ATOM     12  C   UNL     1      -1.409  11.236  18.497  0.00  0.00    +0.000 A 
ATOM     13  C   UNL     1      -1.219  10.246  17.523  0.00  0.00    +0.000 A 
ATOM     14  C   UNL     1      -2.309   9.665  16.864  0.00  0.00    +0.000 A 
ATOM     15  C   UNL     1      -3.604  10.094  17.139  0.00  0.00    +0.000 A 
ATOM     16  C   UNL     1      -3.812  11.092  18.085  0.00  0.00    +0.000 A 
ATOM     17  C   UNL     1      -2.724  11.645  18.769  0.00  0.00    +0.000 A 
ENDBRANCH  10  12
BRANCH   1  19
ATOM     18  N   UNL     1       1.648   9.035  19.797  0.00  0.00    +0.000 N 
ATOM     19  C   UNL     1       0.680   9.788  20.455  0.00  0.00    +0.000 C 
ATOM     20  O   UNL     1      -0.067   9.309  21.306  0.00  0.00    +0.000 OA
ATOM     21  H   UNL     1       2.115   9.380  18.964  0.00  0.00    +0.000 HD
BRANCH  18  28
ATOM     22  N   UNL     1       2.728   5.634  19.597  0.00  0.00    +0.000 N 
ATOM     23  C   UNL     1       3.485   4.939  18.684  0.00  0.00    +0.000 C 
ATOM     24  O   UNL     1       3.813   3.760  18.783  0.00  0.00    +0.000 OA
ATOM     25  C   UNL     1       3.876   5.793  17.505  0.00  0.00    +0.000 C 
ATOM     26  S   UNL     1       3.320   7.471  17.890  0.00  0.00    +0.000 S 
ATOM     27  C   UNL     1       2.514   6.960  19.348  0.00  0.00    +0.000 C 
ATOM     28  N   UNL     1       1.797   7.712  20.115  0.00  0.00    +0.000 NA
BRANCH  22  29
ATOM     29  C   UNL     1       2.195   4.977  20.777  0.00  0.00    +0.000 C 
BRANCH  29  31
ATOM     30  C   UNL     1       0.946   2.803  20.568  0.00  0.00    +0.000 C 
ATOM     31  C   UNL     1       1.017   4.129  20.385  0.00  0.00    +0.000 C 
ENDBRANCH  29  31
ENDBRANCH  22  29
ENDBRANCH  18  28
ENDBRANCH   1  19
TORSDOF 5
ENDMDL
MODEL 8
REMARK VINA RESULT:      -7.6      1.881      2.509
REMARK  Name = 
REMARK  5 active torsions:
REMARK  status: ('A' for Active; 'I' for Inactive)
REMARK    1  A    between atoms: C_2  and  C_3
REMARK    2  A    between atoms: C_3  and  N_4
REMARK    3  A    between atoms: N_10  and  N_11
REMARK    4  A    between atoms: C_12  and  C_14
REMARK    5  A    between atoms: C_23  and  C_24
REMARK                            x       y       z     vdW  Elec       q    Type
REMARK                         _______ _______ _______ _____ _____    ______ ____
ROOT
ATOM      1  C   UNL     1       3.169   7.447  18.093  0.00  0.00    +0.000 A 
ATOM      2  N   UNL     1       4.314   8.020  17.580  0.00  0.00    +0.000 N 
ATOM      3  C   UNL     1       5.341   7.116  17.494  0.00  0.00    +0.000 A 
ATOM      4  C   UNL     1       6.644   7.281  17.001  0.00  0.00    +0.000 A 
ATOM      5  C   UNL     1       7.485   6.171  17.012  0.00  0.00    +0.000 A 
ATOM      6  C   UNL     1       7.037   4.957  17.514  0.00  0.00    +0.000 A 
ATOM      7  F   UNL     1       7.862   3.899  17.509  0.00  0.00    +0.000 F 
ATOM      8  C   UNL     1       5.744   4.805  18.014  0.00  0.00    +0.000 A 
ATOM      9  C   UNL     1       4.856   5.906  17.988  0.00  0.00    +0.000 A 
ATOM     10  C   UNL     1       3.473   6.106  18.352  0.00  0.00    +0.000 A 
ATOM     11  H   UNL     1       4.367   8.967  17.232  0.00  0.00    +0.000 HD
ENDROOT
BRANCH  10  12
ATOM     12  C   UNL     1       2.527   5.107  18.870  0.00  0.00    +0.000 A 
ATOM     13  C   UNL     1       2.139   5.079  20.217  0.00  0.00    +0.000 A 
ATOM     14  C   UNL     1       1.231   4.122  20.685  0.00  0.00    +0.000 A 
ATOM     15  C   UNL     1       0.729   3.152  19.823  0.00  0.00    +0.000 A 
ATOM     16  C   UNL     1       1.120   3.148  18.489  0.00  0.00    +0.000 A 
ATOM     17  C   UNL     1       1.998   4.128  18.014  0.00  0.00    +0.000 A 
ENDBRANCH  10  12
BRANCH   1  19
ATOM     18  N   UNL     1       1.905   9.153  19.188  0.00  0.00    +0.000 N 
ATOM     19  C   UNL     1       1.918   8.183  18.189  0.00  0.00    +0.000 C 
ATOM     20  O   UNL     1       0.949   7.963  17.466  0.00  0.00    +0.000 OA
ATOM     21  H   UNL     1       2.623   9.188  19.904  0.00  0.00    +0.000 HD
BRANCH  18  28
ATOM     22  N   UNL     1      -0.775  10.846  20.839  0.00  0.00    +0.000 N 
ATOM     23  C   UNL     1      -1.164  10.933  22.154  0.00  0.00    +0.000 C 
ATOM     24  O   UNL     1      -2.100  11.607  22.576  0.00  0.00    +0.000 OA
ATOM     25  C   UNL     1      -0.307  10.083  23.057  0.00  0.00    +0.000 C 
ATOM     26  S   UNL     1       1.025   9.430  22.021  0.00  0.00    +0.000 S 
ATOM     27  C   UNL     1       0.332  10.093  20.566  0.00  0.00    +0.000 C 
ATOM     28  N   UNL     1       0.780   9.911  19.367  0.00  0.00    +0.000 NA
BRANCH  22  29
ATOM     29  C   UNL     1      -1.509  11.540  19.796  0.00  0.00    +0.000 C 
BRANCH  29  31
ATOM     30  C   UNL     1      -0.394  13.334  18.429  0.00  0.00    +0.000 C 
ATOM     31  C   UNL     1      -0.909  12.903  19.589  0.00  0.00    +0.000 C 
ENDBRANCH  29  31
ENDBRANCH  22  29
ENDBRANCH  18  28
ENDBRANCH   1  19
TORSDOF 5
ENDMDL
MODEL 9
REMARK VINA RESULT:      -7.5      3.807      8.929
REMARK  Name = 
REMARK  5 active torsions:
REMARK  status: ('A' for Active; 'I' for Inactive)
REMARK    1  A    between atoms: C_2  and  C_3
REMARK    2  A    between atoms: C_3  and  N_4
REMARK    3  A    between atoms: N_10  and  N_11
REMARK    4  A    between atoms: C_12  and  C_14
REMARK    5  A    between atoms: C_23  and  C_24
REMARK                            x       y       z     vdW  Elec       q    Type
REMARK                         _______ _______ _______ _____ _____    ______ ____
ROOT
ATOM      1  C   UNL     1       0.312  10.125  18.080  0.00  0.00    +0.000 A 
ATOM      2  N   UNL     1      -0.785   9.421  17.629  0.00  0.00    +0.000 N 
ATOM      3  C   UNL     1      -1.957  10.084  17.889  0.00  0.00    +0.000 A 
ATOM      4  C   UNL     1      -3.277   9.734  17.568  0.00  0.00    +0.000 A 
ATOM      5  C   UNL     1      -4.288  10.618  17.938  0.00  0.00    +0.000 A 
ATOM      6  C   UNL     1      -3.982  11.789  18.617  0.00  0.00    +0.000 A 
ATOM      7  F   UNL     1      -4.971  12.629  18.958  0.00  0.00    +0.000 F 
ATOM      8  C   UNL     1      -2.668  12.123  18.944  0.00  0.00    +0.000 A 
ATOM      9  C   UNL     1      -1.616  11.261  18.554  0.00  0.00    +0.000 A 
ATOM     10  C   UNL     1      -0.177  11.300  18.662  0.00  0.00    +0.000 A 
ATOM     11  H   UNL     1      -0.730   8.563  17.099  0.00  0.00    +0.000 HD
ENDROOT
BRANCH  10  12
ATOM     12  C   UNL     1       0.652  12.369  19.238  0.00  0.00    +0.000 A 
ATOM     13  C   UNL     1       1.084  12.338  20.571  0.00  0.00    +0.000 A 
ATOM     14  C   UNL     1       1.879  13.364  21.094  0.00  0.00    +0.000 A 
ATOM     15  C   UNL     1       2.219  14.459  20.306  0.00  0.00    +0.000 A 
ATOM     16  C   UNL     1       1.780  14.521  18.988  0.00  0.00    +0.000 A 
ATOM     17  C   UNL     1       1.018  13.476  18.455  0.00  0.00    +0.000 A 
ENDBRANCH  10  12
BRANCH   1  19
ATOM     18  N   UNL     1       1.850   8.299  18.002  0.00  0.00    +0.000 N 
ATOM     19  C   UNL     1       1.671   9.670  17.834  0.00  0.00    +0.000 C 
ATOM     20  O   UNL     1       2.588  10.424  17.520  0.00  0.00    +0.000 OA
ATOM     21  H   UNL     1       1.148   7.723  18.453  0.00  0.00    +0.000 HD
BRANCH  18  28
ATOM     22  N   UNL     1       4.594   6.017  18.197  0.00  0.00    +0.000 N 
ATOM     23  C   UNL     1       4.795   4.843  18.884  0.00  0.00    +0.000 C 
ATOM     24  O   UNL     1       5.796   4.137  18.808  0.00  0.00    +0.000 OA
ATOM     25  C   UNL     1       3.630   4.504  19.778  0.00  0.00    +0.000 C 
ATOM     26  S   UNL     1       2.345   5.727  19.421  0.00  0.00    +0.000 S 
ATOM     27  C   UNL     1       3.388   6.636  18.361  0.00  0.00    +0.000 C 
ATOM     28  N   UNL     1       3.090   7.757  17.792  0.00  0.00    +0.000 NA
BRANCH  22  29
ATOM     29  C   UNL     1       5.622   6.557  17.326  0.00  0.00    +0.000 C 
BRANCH  29  31
ATOM     30  C   UNL     1       6.195   5.167  15.308  0.00  0.00    +0.000 C 
ATOM     31  C   UNL     1       5.403   6.054  15.926  0.00  0.00    +0.000 C 
ENDBRANCH  29  31
ENDBRANCH  22  29
ENDBRANCH  18  28
ENDBRANCH   1  19
TORSDOF 5
ENDMDL
