MODEL 1
REMARK VINA RESULT:      -7.7      0.000      0.000
REMARK  Name = 
REMARK  7 active torsions:
REMARK  status: ('A' for Active; 'I' for Inactive)
REMARK    1  A    between atoms: C_1  and  N_2
REMARK    2  A    between atoms: C_11  and  S_12
REMARK    3  A    between atoms: S_12  and  C_13
REMARK    4  A    between atoms: C_13  and  C_14
REMARK    5  A    between atoms: C_14  and  O_16
REMARK    6  A    between atoms: N_17  and  C_18
REMARK    7  A    between atoms: C_18  and  C_19
REMARK                            x       y       z     vdW  Elec       q    Type
REMARK                         _______ _______ _______ _____ _____    ______ ____
ROOT
ATOM      1  C   UNL     1       5.982   3.609  13.780  0.00  0.00    +0.000 C 
ATOM      2  N   UNL     1       6.133   4.511  14.903  0.00  0.00    +0.000 N 
ATOM      3  C   UNL     1       7.207   5.400  14.942  0.00  0.00    +0.000 A 
ATOM      4  O   UNL     1       8.057   5.490  14.058  0.00  0.00    +0.000 OA
ATOM      5  N   UNL     1       7.319   6.203  16.059  0.00  0.00    +0.000 N 
ATOM      6  C   UNL     1       6.536   6.168  17.189  0.00  0.00    +0.000 A 
ATOM      7  O   UNL     1       6.847   6.763  18.212  0.00  0.00    +0.000 OA
ATOM      8  C   UNL     1       5.396   5.332  17.035  0.00  0.00    +0.000 A 
ATOM      9  C   UNL     1       5.231   4.516  15.951  0.00  0.00    +0.000 A 
ATOM     10  N   UNL     1       4.145   3.701  16.091  0.00  0.00    +0.000 NA
ATOM     11  C   UNL     1       3.585   4.101  17.219  0.00  0.00    +0.000 A 
ATOM     12  N   UNL     1       4.294   5.115  17.828  0.00  0.00    +0.000 N 
ATOM     13  H   UNL     1       8.146   6.779  16.100  0.00  0.00    +0.000 HD
ENDROOT
BRANCH  11  14
ATOM     14  S   UNL     1       2.184   3.366  17.924  0.00  0.00    +0.000 S 
BRANCH  14  15
ATOM     15  C   UNL     1       2.868   1.903  18.743  0.00  0.00    +0.000 C 
BRANCH  15  16
ATOM     16  C   UNL     1       3.704   2.271  19.946  0.00  0.00    +0.000 C 
ATOM     17  O   UNL     1       3.236   2.581  21.030  0.00  0.00    +0.000 OA
BRANCH  16  18
ATOM     18  O   UNL     1       5.043   2.211  19.736  0.00  0.00    +0.000 OA
ATOM     19  H   UNL     1       5.271   1.791  18.872  0.00  0.00    +0.000 HD
ENDBRANCH  16  18
ENDBRANCH  15  16
ENDBRANCH  14  15
ENDBRANCH  11  14
BRANCH  12  20
ATOM     20  C   UNL     1       4.025   5.750  19.111  0.00  0.00    +0.000 C 
BRANCH  20  21
ATOM     21  C   UNL     1       3.050   6.900  19.013  0.00  0.00    +0.000 A 
ATOM     22  C   UNL     1       2.211   7.230  20.089  0.00  0.00    +0.000 A 
ATOM     23  C   UNL     1       1.384   8.354  20.033  0.00  0.00    +0.000 A 
ATOM     24  C   UNL     1       1.377   9.161  18.897  0.00  0.00    +0.000 A 
ATOM     25  C   UNL     1       2.182   8.831  17.811  0.00  0.00    +0.000 A 
ATOM     26  C   UNL     1       3.008   7.706  17.865  0.00  0.00    +0.000 A 
ENDBRANCH  20  21
ENDBRANCH  12  20
TORSDOF 6
ENDMDL
MODEL 2
REMARK VINA RESULT:      -7.5      0.572      1.202
REMARK  Name = 
REMARK  7 active torsions:
REMARK  status: ('A' for Active; 'I' for Inactive)
REMARK    1  A    between atoms: C_1  and  N_2
REMARK    2  A    between atoms: C_11  and  S_12
REMARK    3  A    between atoms: S_12  and  C_13
REMARK    4  A    between atoms: C_13  and  C_14
REMARK    5  A    between atoms: C_14  and  O_16
REMARK    6  A    between atoms: N_17  and  C_18
REMARK    7  A    between atoms: C_18  and  C_19
REMARK                            x       y       z     vdW  Elec       q    Type
REMARK                         _______ _______ _______ _____ _____    ______ ____
ROOT
ATOM      1  C   UNL     1       5.769   3.557  14.018  0.00  0.00    +0.000 C 
ATOM      2  N   UNL     1       5.930   4.460  15.139  0.00  0.00    +0.000 N 
ATOM      3  C   UNL     1       7.035   5.309  15.196  0.00  0.00    +0.000 A 
ATOM      4  O   UNL     1       7.907   5.361  14.330  0.00  0.00    +0.000 OA
ATOM      5  N   UNL     1       7.154   6.114  16.311  0.00  0.00    +0.000 N 
ATOM      6  C   UNL     1       6.346   6.114  17.424  0.00  0.00    +0.000 A 
ATOM      7  O   UNL     1       6.658   6.704  18.451  0.00  0.00    +0.000 OA
ATOM      8  C   UNL     1       5.179   5.321  17.250  0.00  0.00    +0.000 A 
ATOM      9  C   UNL     1       5.006   4.505  16.168  0.00  0.00    +0.000 A 
ATOM     10  N   UNL     1       3.889   3.732  16.289  0.00  0.00    +0.000 NA
ATOM     11  C   UNL     1       3.320   4.159  17.403  0.00  0.00    +0.000 A 
ATOM     12  N   UNL     1       4.053   5.150  18.021  0.00  0.00    +0.000 N 
ATOM     13  H   UNL     1       8.000   6.659  16.367  0.00  0.00    +0.000 HD
ENDROOT
BRANCH  11  14
ATOM     14  S   UNL     1       1.878   3.481  18.081  0.00  0.00    +0.000 S 
BRANCH  14  15
ATOM     15  C   UNL     1       2.497   2.591  19.531  0.00  0.00    +0.000 C 
BRANCH  15  16
ATOM     16  C   UNL     1       3.890   2.052  19.308  0.00  0.00    +0.000 C 
ATOM     17  O   UNL     1       4.856   2.361  19.988  0.00  0.00    +0.000 OA
BRANCH  16  18
ATOM     18  O   UNL     1       3.990   1.163  18.288  0.00  0.00    +0.000 OA
ATOM     19  H   UNL     1       4.713   1.392  17.657  0.00  0.00    +0.000 HD
ENDBRANCH  16  18
ENDBRANCH  15  16
ENDBRANCH  14  15
ENDBRANCH  11  14
BRANCH  12  20
ATOM     20  C   UNL     1       3.781   5.802  19.295  0.00  0.00    +0.000 C 
BRANCH  20  21
ATOM     21  C   UNL     1       2.935   7.046  19.157  0.00  0.00    +0.000 A 
ATOM     22  C   UNL     1       2.922   7.782  17.961  0.00  0.00    +0.000 A 
ATOM     23  C   UNL     1       2.063   8.871  17.801  0.00  0.00    +0.000 A 
ATOM     24  C   UNL     1       1.209   9.247  18.836  0.00  0.00    +0.000 A 
ATOM     25  C   UNL     1       1.231   8.545  20.038  0.00  0.00    +0.000 A 
ATOM     26  C   UNL     1       2.090   7.456  20.200  0.00  0.00    +0.000 A 
ENDBRANCH  20  21
ENDBRANCH  12  20
TORSDOF 6
ENDMDL
MODEL 3
REMARK VINA RESULT:      -7.5      3.131      5.861
REMARK  Name = 
REMARK  7 active torsions:
REMARK  status: ('A' for Active; 'I' for Inactive)
REMARK    1  A    between atoms: C_1  and  N_2
REMARK    2  A    between atoms: C_11  and  S_12
REMARK    3  A    between atoms: S_12  and  C_13
REMARK    4  A    between atoms: C_13  and  C_14
REMARK    5  A    between atoms: C_14  and  O_16
REMARK    6  A    between atoms: N_17  and  C_18
REMARK    7  A    between atoms: C_18  and  C_19
REMARK                            x       y       z     vdW  Elec       q    Type
REMARK                         _______ _______ _______ _____ _____    ______ ____
ROOT
ATOM      1  C   UNL     1       0.271   9.065  21.647  0.00  0.00    +0.000 C 
ATOM      2  N   UNL     1       1.037   8.893  20.430  0.00  0.00    +0.000 N 
ATOM      3  C   UNL     1       1.168   9.954  19.535  0.00  0.00    +0.000 A 
ATOM      4  O   UNL     1       0.677  11.068  19.712  0.00  0.00    +0.000 OA
ATOM      5  N   UNL     1       1.874   9.714  18.373  0.00  0.00    +0.000 N 
ATOM      6  C   UNL     1       2.395   8.513  17.952  0.00  0.00    +0.000 A 
ATOM      7  O   UNL     1       2.810   8.350  16.812  0.00  0.00    +0.000 OA
ATOM      8  C   UNL     1       2.335   7.510  18.959  0.00  0.00    +0.000 A 
ATOM      9  C   UNL     1       1.651   7.691  20.128  0.00  0.00    +0.000 A 
ATOM     10  N   UNL     1       1.605   6.547  20.871  0.00  0.00    +0.000 NA
ATOM     11  C   UNL     1       2.359   5.696  20.198  0.00  0.00    +0.000 A 
ATOM     12  N   UNL     1       2.854   6.239  19.031  0.00  0.00    +0.000 N 
ATOM     13  H   UNL     1       1.887  10.470  17.706  0.00  0.00    +0.000 HD
ENDROOT
BRANCH  11  14
ATOM     14  S   UNL     1       2.612   4.046  20.660  0.00  0.00    +0.000 S 
BRANCH  14  15
ATOM     15  C   UNL     1       1.109   3.229  20.066  0.00  0.00    +0.000 C 
BRANCH  15  16
ATOM     16  C   UNL     1       1.264   2.723  18.652  0.00  0.00    +0.000 C 
ATOM     17  O   UNL     1       0.958   3.367  17.661  0.00  0.00    +0.000 OA
BRANCH  16  18
ATOM     18  O   UNL     1       1.800   1.480  18.558  0.00  0.00    +0.000 OA
ATOM     19  H   UNL     1       2.718   1.491  18.194  0.00  0.00    +0.000 HD
ENDBRANCH  16  18
ENDBRANCH  15  16
ENDBRANCH  14  15
ENDBRANCH  11  14
BRANCH  12  20
ATOM     20  C   UNL     1       3.652   5.581  18.005  0.00  0.00    +0.000 C 
BRANCH  20  21
ATOM     21  C   UNL     1       5.130   5.870  18.126  0.00  0.00    +0.000 A 
ATOM     22  C   UNL     1       5.758   6.792  17.273  0.00  0.00    +0.000 A 
ATOM     23  C   UNL     1       7.100   7.132  17.452  0.00  0.00    +0.000 A 
ATOM     24  C   UNL     1       7.838   6.551  18.481  0.00  0.00    +0.000 A 
ATOM     25  C   UNL     1       7.238   5.615  19.317  0.00  0.00    +0.000 A 
ATOM     26  C   UNL     1       5.895   5.272  19.139  0.00  0.00    +0.000 A 
ENDBRANCH  20  21
ENDBRANCH  12  20
TORSDOF 6
ENDMDL
MODEL 4
REMARK VINA RESULT:      -7.5      0.811      1.460
REMARK  Name = 
REMARK  7 active torsions:
REMARK  status: ('A' for Active; 'I' for Inactive)
REMARK    1  A    between atoms: C_1  and  N_2
REMARK    2  A    between atoms: C_11  and  S_12
REMARK    3  A    between atoms: S_12  and  C_13
REMARK    4  A    between atoms: C_13  and  C_14
REMARK    5  A    between atoms: C_14  and  O_16
REMARK    6  A    between atoms: N_17  and  C_18
REMARK    7  A    between atoms: C_18  and  C_19
REMARK                            x       y       z     vdW  Elec       q    Type
REMARK                         _______ _______ _______ _____ _____    ______ ____
ROOT
ATOM      1  C   UNL     1       5.788   3.536  14.030  0.00  0.00    +0.000 C 
ATOM      2  N   UNL     1       5.941   4.438  15.152  0.00  0.00    +0.000 N 
ATOM      3  C   UNL     1       7.029   5.309  15.200  0.00  0.00    +0.000 A 
ATOM      4  O   UNL     1       7.892   5.382  14.326  0.00  0.00    +0.000 OA
ATOM      5  N   UNL     1       7.143   6.114  16.317  0.00  0.00    +0.000 N 
ATOM      6  C   UNL     1       6.346   6.095  17.437  0.00  0.00    +0.000 A 
ATOM      7  O   UNL     1       6.655   6.688  18.463  0.00  0.00    +0.000 OA
ATOM      8  C   UNL     1       5.194   5.278  17.272  0.00  0.00    +0.000 A 
ATOM      9  C   UNL     1       5.027   4.462  16.189  0.00  0.00    +0.000 A 
ATOM     10  N   UNL     1       3.927   3.666  16.319  0.00  0.00    +0.000 NA
ATOM     11  C   UNL     1       3.360   4.078  17.439  0.00  0.00    +0.000 A 
ATOM     12  N   UNL     1       4.079   5.082  18.053  0.00  0.00    +0.000 N 
ATOM     13  H   UNL     1       7.978   6.676  16.366  0.00  0.00    +0.000 HD
ENDROOT
BRANCH  11  14
ATOM     14  S   UNL     1       1.939   3.369  18.129  0.00  0.00    +0.000 S 
BRANCH  14  15
ATOM     15  C   UNL     1       2.607   2.364  19.479  0.00  0.00    +0.000 C 
BRANCH  15  16
ATOM     16  C   UNL     1       2.005   2.739  20.812  0.00  0.00    +0.000 C 
ATOM     17  O   UNL     1       2.592   2.633  21.878  0.00  0.00    +0.000 OA
BRANCH  16  18
ATOM     18  O   UNL     1       0.744   3.233  20.737  0.00  0.00    +0.000 OA
ATOM     19  H   UNL     1       0.251   3.141  21.588  0.00  0.00    +0.000 HD
ENDBRANCH  16  18
ENDBRANCH  15  16
ENDBRANCH  14  15
ENDBRANCH  11  14
BRANCH  12  20
ATOM     20  C   UNL     1       3.806   5.725  19.332  0.00  0.00    +0.000 C 
BRANCH  20  21
ATOM     21  C   UNL     1       2.960   6.970  19.202  0.00  0.00    +0.000 A 
ATOM     22  C   UNL     1       2.917   7.692  17.998  0.00  0.00    +0.000 A 
ATOM     23  C   UNL     1       2.058   8.783  17.849  0.00  0.00    +0.000 A 
ATOM     24  C   UNL     1       1.233   9.173  18.902  0.00  0.00    +0.000 A 
ATOM     25  C   UNL     1       1.285   8.486  20.111  0.00  0.00    +0.000 A 
ATOM     26  C   UNL     1       2.145   7.395  20.262  0.00  0.00    +0.000 A 
ENDBRANCH  20  21
ENDBRANCH  12  20
TORSDOF 6
ENDMDL
MODEL 5
REMARK VINA RESULT:      -7.4      3.034      4.917
REMARK  Name = 
REMARK  7 active torsions:
REMARK  status: ('A' for Active; 'I' for Inactive)
REMARK    1  A    between atoms: C_1  and  N_2
REMARK    2  A    between atoms: C_11  and  S_12
REMARK    3  A    between atoms: S_12  and  C_13
REMARK    4  A    between atoms: C_13  and  C_14
REMARK    5  A    between atoms: C_14  and  O_16
REMARK    6  A    between atoms: N_17  and  C_18
REMARK    7  A    between atoms: C_18  and  C_19
REMARK                            x       y       z     vdW  Elec       q    Type
REMARK                         _______ _______ _______ _____ _____    ______ ____
ROOT
ATOM      1  C   UNL     1       7.490   7.145  17.246  0.00  0.00    +0.000 C 
ATOM      2  N   UNL     1       6.536   6.057  17.318  0.00  0.00    +0.000 N 
ATOM      3  C   UNL     1       6.972   4.740  17.183  0.00  0.00    +0.000 A 
ATOM      4  O   UNL     1       8.148   4.418  17.016  0.00  0.00    +0.000 OA
ATOM      5  N   UNL     1       6.009   3.751  17.216  0.00  0.00    +0.000 N 
ATOM      6  C   UNL     1       4.646   3.923  17.282  0.00  0.00    +0.000 A 
ATOM      7  O   UNL     1       3.866   3.000  17.085  0.00  0.00    +0.000 OA
ATOM      8  C   UNL     1       4.279   5.272  17.539  0.00  0.00    +0.000 A 
ATOM      9  C   UNL     1       5.188   6.292  17.518  0.00  0.00    +0.000 A 
ATOM     10  N   UNL     1       4.586   7.510  17.642  0.00  0.00    +0.000 NA
ATOM     11  C   UNL     1       3.313   7.222  17.848  0.00  0.00    +0.000 A 
ATOM     12  N   UNL     1       3.071   5.865  17.821  0.00  0.00    +0.000 N 
ATOM     13  H   UNL     1       6.339   2.815  17.037  0.00  0.00    +0.000 HD
ENDROOT
BRANCH  11  14
ATOM     14  S   UNL     1       2.062   8.407  18.020  0.00  0.00    +0.000 S 
BRANCH  14  15
ATOM     15  C   UNL     1       1.700   8.354  19.793  0.00  0.00    +0.000 C 
BRANCH  15  16
ATOM     16  C   UNL     1       0.800   9.490  20.218  0.00  0.00    +0.000 C 
ATOM     17  O   UNL     1       0.647  10.515  19.572  0.00  0.00    +0.000 OA
BRANCH  16  18
ATOM     18  O   UNL     1       0.141   9.276  21.385  0.00  0.00    +0.000 OA
ATOM     19  H   UNL     1       0.716   9.420  22.174  0.00  0.00    +0.000 HD
ENDBRANCH  16  18
ENDBRANCH  15  16
ENDBRANCH  14  15
ENDBRANCH  11  14
BRANCH  12  20
ATOM     20  C   UNL     1       1.788   5.182  17.932  0.00  0.00    +0.000 C 
BRANCH  20  21
ATOM     21  C   UNL     1       1.663   4.353  19.188  0.00  0.00    +0.000 A 
ATOM     22  C   UNL     1       1.075   3.078  19.156  0.00  0.00    +0.000 A 
ATOM     23  C   UNL     1       1.052   2.273  20.298  0.00  0.00    +0.000 A 
ATOM     24  C   UNL     1       1.608   2.733  21.490  0.00  0.00    +0.000 A 
ATOM     25  C   UNL     1       2.168   4.006  21.544  0.00  0.00    +0.000 A 
ATOM     26  C   UNL     1       2.191   4.813  20.404  0.00  0.00    +0.000 A 
ENDBRANCH  20  21
ENDBRANCH  12  20
TORSDOF 6
ENDMDL
MODEL 6
REMARK VINA RESULT:      -7.4      3.344      6.027
REMARK  Name = 
REMARK  7 active torsions:
REMARK  status: ('A' for Active; 'I' for Inactive)
REMARK    1  A    between atoms: C_1  and  N_2
REMARK    2  A    between atoms: C_11  and  S_12
REMARK    3  A    between atoms: S_12  and  C_13
REMARK    4  A    between atoms: C_13  and  C_14
REMARK    5  A    between atoms: C_14  and  O_16
REMARK    6  A    between atoms: N_17  and  C_18
REMARK    7  A    between atoms: C_18  and  C_19
REMARK                            x       y       z     vdW  Elec       q    Type
REMARK                         _______ _______ _______ _____ _____    ______ ____
ROOT
ATOM      1  C   UNL     1       0.169   9.256  22.061  0.00  0.00    +0.000 C 
ATOM      2  N   UNL     1       0.856   9.130  20.792  0.00  0.00    +0.000 N 
ATOM      3  C   UNL     1       0.938  10.227  19.934  0.00  0.00    +0.000 A 
ATOM      4  O   UNL     1       0.466  11.334  20.186  0.00  0.00    +0.000 OA
ATOM      5  N   UNL     1       1.567  10.031  18.721  0.00  0.00    +0.000 N 
ATOM      6  C   UNL     1       2.053   8.846  18.219  0.00  0.00    +0.000 A 
ATOM      7  O   UNL     1       2.394   8.729  17.050  0.00  0.00    +0.000 OA
ATOM      8  C   UNL     1       2.049   7.804  19.186  0.00  0.00    +0.000 A 
ATOM      9  C   UNL     1       1.441   7.939  20.403  0.00  0.00    +0.000 A 
ATOM     10  N   UNL     1       1.435   6.766  21.100  0.00  0.00    +0.000 NA
ATOM     11  C   UNL     1       2.139   5.940  20.347  0.00  0.00    +0.000 A 
ATOM     12  N   UNL     1       2.563   6.528  19.174  0.00  0.00    +0.000 N 
ATOM     13  H   UNL     1       1.543  10.814  18.086  0.00  0.00    +0.000 HD
ENDROOT
BRANCH  11  14
ATOM     14  S   UNL     1       2.409   4.271  20.723  0.00  0.00    +0.000 S 
BRANCH  14  15
ATOM     15  C   UNL     1       0.917   3.469  20.084  0.00  0.00    +0.000 C 
BRANCH  15  16
ATOM     16  C   UNL     1       1.158   2.821  18.741  0.00  0.00    +0.000 C 
ATOM     17  O   UNL     1       1.056   3.407  17.675  0.00  0.00    +0.000 OA
BRANCH  16  18
ATOM     18  O   UNL     1       1.523   1.516  18.807  0.00  0.00    +0.000 OA
ATOM     19  H   UNL     1       1.126   1.051  19.583  0.00  0.00    +0.000 HD
ENDBRANCH  16  18
ENDBRANCH  15  16
ENDBRANCH  14  15
ENDBRANCH  11  14
BRANCH  12  20
ATOM     20  C   UNL     1       3.291   5.910  18.074  0.00  0.00    +0.000 C 
BRANCH  20  21
ATOM     21  C   UNL     1       4.788   6.082  18.180  0.00  0.00    +0.000 A 
ATOM     22  C   UNL     1       5.526   5.396  19.158  0.00  0.00    +0.000 A 
ATOM     23  C   UNL     1       6.920   5.479  19.190  0.00  0.00    +0.000 A 
ATOM     24  C   UNL     1       7.597   6.254  18.251  0.00  0.00    +0.000 A 
ATOM     25  C   UNL     1       6.877   6.963  17.293  0.00  0.00    +0.000 A 
ATOM     26  C   UNL     1       5.483   6.882  17.261  0.00  0.00    +0.000 A 
ENDBRANCH  20  21
ENDBRANCH  12  20
TORSDOF 6
ENDMDL
MODEL 7
REMARK VINA RESULT:      -7.4      3.065      4.889
REMARK  Name = 
REMARK  7 active torsions:
REMARK  status: ('A' for Active; 'I' for Inactive)
REMARK    1  A    between atoms: C_1  and  N_2
REMARK    2  A    between atoms: C_11  and  S_12
REMARK    3  A    between atoms: S_12  and  C_13
REMARK    4  A    between atoms: C_13  and  C_14
REMARK    5  A    between atoms: C_14  and  O_16
REMARK    6  A    between atoms: N_17  and  C_18
REMARK    7  A    between atoms: C_18  and  C_19
REMARK                            x       y       z     vdW  Elec       q    Type
REMARK                         _______ _______ _______ _____ _____    ______ ____
ROOT
ATOM      1  C   UNL     1       7.518   7.187  17.230  0.00  0.00    +0.000 C 
ATOM      2  N   UNL     1       6.577   6.089  17.306  0.00  0.00    +0.000 N 
ATOM      3  C   UNL     1       7.027   4.776  17.173  0.00  0.00    +0.000 A 
ATOM      4  O   UNL     1       8.206   4.467  17.004  0.00  0.00    +0.000 OA
ATOM      5  N   UNL     1       6.076   3.777  17.211  0.00  0.00    +0.000 N 
ATOM      6  C   UNL     1       4.711   3.933  17.279  0.00  0.00    +0.000 A 
ATOM      7  O   UNL     1       3.942   3.001  17.086  0.00  0.00    +0.000 OA
ATOM      8  C   UNL     1       4.329   5.279  17.534  0.00  0.00    +0.000 A 
ATOM      9  C   UNL     1       5.227   6.309  17.510  0.00  0.00    +0.000 A 
ATOM     10  N   UNL     1       4.611   7.520  17.633  0.00  0.00    +0.000 NA
ATOM     11  C   UNL     1       3.342   7.218  17.842  0.00  0.00    +0.000 A 
ATOM     12  N   UNL     1       3.115   5.858  17.818  0.00  0.00    +0.000 N 
ATOM     13  H   UNL     1       6.416   2.845  17.033  0.00  0.00    +0.000 HD
ENDROOT
BRANCH  11  14
ATOM     14  S   UNL     1       2.078   8.389  18.015  0.00  0.00    +0.000 S 
BRANCH  14  15
ATOM     15  C   UNL     1       1.743   8.358  19.794  0.00  0.00    +0.000 C 
BRANCH  15  16
ATOM     16  C   UNL     1       0.836   9.491  20.215  0.00  0.00    +0.000 C 
ATOM     17  O   UNL     1      -0.036   9.964  19.505  0.00  0.00    +0.000 OA
BRANCH  16  18
ATOM     18  O   UNL     1       1.053   9.941  21.477  0.00  0.00    +0.000 OA
ATOM     19  H   UNL     1       1.996   9.847  21.754  0.00  0.00    +0.000 HD
ENDBRANCH  16  18
ENDBRANCH  15  16
ENDBRANCH  14  15
ENDBRANCH  11  14
BRANCH  12  20
ATOM     20  C   UNL     1       1.840   5.161  17.934  0.00  0.00    +0.000 C 
BRANCH  20  21
ATOM     21  C   UNL     1       1.754   4.279  19.157  0.00  0.00    +0.000 A 
ATOM     22  C   UNL     1       2.270   4.704  20.392  0.00  0.00    +0.000 A 
ATOM     23  C   UNL     1       2.100   3.930  21.542  0.00  0.00    +0.000 A 
ATOM     24  C   UNL     1       1.419   2.717  21.475  0.00  0.00    +0.000 A 
ATOM     25  C   UNL     1       0.927   2.268  20.252  0.00  0.00    +0.000 A 
ATOM     26  C   UNL     1       1.098   3.040  19.100  0.00  0.00    +0.000 A 
ENDBRANCH  20  21
ENDBRANCH  12  20
TORSDOF 6
ENDMDL
MODEL 8
REMARK VINA RESULT:      -6.8      3.010      5.253
REMARK  Name = 
REMARK  7 active torsions:
REMARK  status: ('A' for Active; 'I' for Inactive)
REMARK    1  A    between atoms: C_1  and  N_2
REMARK    2  A    between atoms: C_11  and  S_12
REMARK    3  A    between atoms: S_12  and  C_13
REMARK    4  A    between atoms: C_13  and  C_14
REMARK    5  A    between atoms: C_14  and  O_16
REMARK    6  A    between atoms: N_17  and  C_18
REMARK    7  A    between atoms: C_18  and  C_19
REMARK                            x       y       z     vdW  Elec       q    Type
REMARK                         _______ _______ _______ _____ _____    ______ ____
ROOT
ATOM      1  C   UNL     1       7.297   7.274  17.135  0.00  0.00    +0.000 C 
ATOM      2  N   UNL     1       6.405   6.136  17.228  0.00  0.00    +0.000 N 
ATOM      3  C   UNL     1       6.906   4.845  17.067  0.00  0.00    +0.000 A 
ATOM      4  O   UNL     1       8.091   4.587  16.859  0.00  0.00    +0.000 OA
ATOM      5  N   UNL     1       5.999   3.806  17.124  0.00  0.00    +0.000 N 
ATOM      6  C   UNL     1       4.631   3.904  17.236  0.00  0.00    +0.000 A 
ATOM      7  O   UNL     1       3.896   2.942  17.056  0.00  0.00    +0.000 OA
ATOM      8  C   UNL     1       4.202   5.230  17.516  0.00  0.00    +0.000 A 
ATOM      9  C   UNL     1       5.054   6.297  17.475  0.00  0.00    +0.000 A 
ATOM     10  N   UNL     1       4.393   7.481  17.630  0.00  0.00    +0.000 NA
ATOM     11  C   UNL     1       3.144   7.123  17.875  0.00  0.00    +0.000 A 
ATOM     12  N   UNL     1       2.974   5.755  17.843  0.00  0.00    +0.000 N 
ATOM     13  H   UNL     1       6.371   2.891  16.926  0.00  0.00    +0.000 HD
ENDROOT
BRANCH  11  14
ATOM     14  S   UNL     1       1.839   8.239  18.098  0.00  0.00    +0.000 S 
BRANCH  14  15
ATOM     15  C   UNL     1       2.630   9.843  17.820  0.00  0.00    +0.000 C 
BRANCH  15  16
ATOM     16  C   UNL     1       1.818  10.979  18.396  0.00  0.00    +0.000 C 
ATOM     17  O   UNL     1       1.067  10.862  19.351  0.00  0.00    +0.000 OA
BRANCH  16  18
ATOM     18  O   UNL     1       2.003  12.170  17.774  0.00  0.00    +0.000 OA
ATOM     19  H   UNL     1       2.933  12.297  17.469  0.00  0.00    +0.000 HD
ENDBRANCH  16  18
ENDBRANCH  15  16
ENDBRANCH  14  15
ENDBRANCH  11  14
BRANCH  12  20
ATOM     20  C   UNL     1       1.733   5.004  17.990  0.00  0.00    +0.000 C 
BRANCH  20  21
ATOM     21  C   UNL     1       1.701   4.149  19.235  0.00  0.00    +0.000 A 
ATOM     22  C   UNL     1       2.228   4.620  20.448  0.00  0.00    +0.000 A 
ATOM     23  C   UNL     1       2.106   3.869  21.620  0.00  0.00    +0.000 A 
ATOM     24  C   UNL     1       1.462   2.634  21.596  0.00  0.00    +0.000 A 
ATOM     25  C   UNL     1       0.960   2.141  20.395  0.00  0.00    +0.000 A 
ATOM     26  C   UNL     1       1.082   2.890  19.222  0.00  0.00    +0.000 A 
ENDBRANCH  20  21
ENDBRANCH  12  20
TORSDOF 6
ENDMDL
MODEL 9
REMARK VINA RESULT:      -6.8      3.033      5.291
REMARK  Name = 
REMARK  7 active torsions:
REMARK  status: ('A' for Active; 'I' for Inactive)
REMARK    1  A    between atoms: C_1  and  N_2
REMARK    2  A    between atoms: C_11  and  S_12
REMARK    3  A    between atoms: S_12  and  C_13
REMARK    4  A    between atoms: C_13  and  C_14
REMARK    5  A    between atoms: C_14  and  O_16
REMARK    6  A    between atoms: N_17  and  C_18
REMARK    7  A    between atoms: C_18  and  C_19
REMARK                            x       y       z     vdW  Elec       q    Type
REMARK                         _______ _______ _______ _____ _____    ______ ____
ROOT
ATOM      1  C   UNL     1       7.280   7.214  17.146  0.00  0.00    +0.000 C 
ATOM      2  N   UNL     1       6.347   6.106  17.143  0.00  0.00    +0.000 N 
ATOM      3  C   UNL     1       6.782   4.832  16.781  0.00  0.00    +0.000 A 
ATOM      4  O   UNL     1       7.941   4.565  16.465  0.00  0.00    +0.000 OA
ATOM      5  N   UNL     1       5.836   3.827  16.756  0.00  0.00    +0.000 N 
ATOM      6  C   UNL     1       4.483   3.956  16.966  0.00  0.00    +0.000 A 
ATOM      7  O   UNL     1       3.698   3.053  16.707  0.00  0.00    +0.000 OA
ATOM      8  C   UNL     1       4.128   5.245  17.448  0.00  0.00    +0.000 A 
ATOM      9  C   UNL     1       5.021   6.278  17.495  0.00  0.00    +0.000 A 
ATOM     10  N   UNL     1       4.421   7.452  17.848  0.00  0.00    +0.000 NA
ATOM     11  C   UNL     1       3.175   7.107  18.122  0.00  0.00    +0.000 A 
ATOM     12  N   UNL     1       2.944   5.763  17.920  0.00  0.00    +0.000 N 
ATOM     13  H   UNL     1       6.158   2.934  16.414  0.00  0.00    +0.000 HD
ENDROOT
BRANCH  11  14
ATOM     14  S   UNL     1       1.933   8.227  18.574  0.00  0.00    +0.000 S 
BRANCH  14  15
ATOM     15  C   UNL     1       2.432   9.745  17.722  0.00  0.00    +0.000 C 
BRANCH  15  16
ATOM     16  C   UNL     1       1.656  10.945  18.211  0.00  0.00    +0.000 C 
ATOM     17  O   UNL     1       2.169  11.909  18.758  0.00  0.00    +0.000 OA
BRANCH  16  18
ATOM     18  O   UNL     1       0.322  10.883  17.975  0.00  0.00    +0.000 OA
ATOM     19  H   UNL     1      -0.143  10.269  18.593  0.00  0.00    +0.000 HD
ENDBRANCH  16  18
ENDBRANCH  15  16
ENDBRANCH  14  15
ENDBRANCH  11  14
BRANCH  12  20
ATOM     20  C   UNL     1       1.684   5.042  18.044  0.00  0.00    +0.000 C 
BRANCH  20  21
ATOM     21  C   UNL     1       1.603   4.199  19.294  0.00  0.00    +0.000 A 
ATOM     22  C   UNL     1       1.098   2.889  19.250  0.00  0.00    +0.000 A 
ATOM     23  C   UNL     1       1.117   2.077  20.386  0.00  0.00    +0.000 A 
ATOM     24  C   UNL     1       1.635   2.563  21.585  0.00  0.00    +0.000 A 
ATOM     25  C   UNL     1       2.113   3.869  21.652  0.00  0.00    +0.000 A 
ATOM     26  C   UNL     1       2.093   4.683  20.517  0.00  0.00    +0.000 A 
ENDBRANCH  20  21
ENDBRANCH  12  20
TORSDOF 6
ENDMDL
