MODEL 1
REMARK VINA RESULT:      -5.8      0.000      0.000
REMARK  Name = 
REMARK  5 active torsions:
REMARK  status: ('A' for Active; 'I' for Inactive)
REMARK    1  A    between atoms: C_1  and  C_2
REMARK    2  A    between atoms: C_5  and  C_6
REMARK    3  A    between atoms: C_6  and  C_7
REMARK    4  A    between atoms: C_6  and  C_8
REMARK    5  A    between atoms: C_6  and  S_9
REMARK                            x       y       z     vdW  Elec       q    Type
REMARK                         _______ _______ _______ _____ _____    ______ ____
ROOT
ATOM      1  C   UNL     1       0.945   2.839  19.439  0.00  0.00    +0.000 C 
ATOM      2  C   UNL     1       1.747   3.040  18.150  0.00  0.00    +0.000 C 
ATOM      3  C   UNL     1       1.787   4.521  17.750  0.00  0.00    +0.000 C 
ATOM      4  C   UNL     1       2.815   5.338  18.527  0.00  0.00    +0.000 C 
ATOM      5  C   UNL     1       4.242   4.761  18.521  0.00  0.00    +0.000 C 
ATOM      6  C   UNL     1       4.147   3.300  18.952  0.00  0.00    +0.000 C 
ATOM      7  O   UNL     1       4.925   2.826  19.781  0.00  0.00    +0.000 OA
ATOM      8  C   UNL     1       3.134   2.411  18.264  0.00  0.00    +0.000 C 
ENDROOT
BRANCH   5   9
ATOM      9  C   UNL     1       5.127   5.031  17.259  0.00  0.00    +0.000 C 
ATOM     10  C   UNL     1       4.978   4.051  16.089  0.00  0.00    +0.000 C 
ATOM     11  C   UNL     1       4.858   6.450  16.714  0.00  0.00    +0.000 C 
BRANCH   9  12
ATOM     12  S   UNL     1       6.925   5.026  17.710  0.00  0.00    +0.000 S 
ATOM     13  H   UNL     1       6.795   5.493  18.963  0.00  0.00    +0.000 HD
ENDBRANCH   9  12
ENDBRANCH   5   9
TORSDOF 2
ENDMDL
MODEL 2
REMARK VINA RESULT:      -5.6      1.321      1.474
REMARK  Name = 
REMARK  5 active torsions:
REMARK  status: ('A' for Active; 'I' for Inactive)
REMARK    1  A    between atoms: C_1  and  C_2
REMARK    2  A    between atoms: C_5  and  C_6
REMARK    3  A    between atoms: C_6  and  C_7
REMARK    4  A    between atoms: C_6  and  C_8
REMARK    5  A    between atoms: C_6  and  S_9
REMARK                            x       y       z     vdW  Elec       q    Type
REMARK                         _______ _______ _______ _____ _____    ______ ____
ROOT
ATOM      1  C   UNL     1       1.338   2.686  21.620  0.00  0.00    +0.000 C 
ATOM      2  C   UNL     1       1.510   2.986  20.128  0.00  0.00    +0.000 C 
ATOM      3  C   UNL     1       1.573   4.498  19.872  0.00  0.00    +0.000 C 
ATOM      4  C   UNL     1       2.939   5.112  20.162  0.00  0.00    +0.000 C 
ATOM      5  C   UNL     1       4.123   4.418  19.464  0.00  0.00    +0.000 C 
ATOM      6  C   UNL     1       4.028   2.927  19.773  0.00  0.00    +0.000 C 
ATOM      7  O   UNL     1       5.018   2.282  20.119  0.00  0.00    +0.000 OA
ATOM      8  C   UNL     1       2.704   2.229  19.550  0.00  0.00    +0.000 C 
ENDROOT
BRANCH   5   9
ATOM      9  C   UNL     1       4.390   4.776  17.963  0.00  0.00    +0.000 C 
ATOM     10  C   UNL     1       3.756   3.858  16.913  0.00  0.00    +0.000 C 
ATOM     11  C   UNL     1       3.918   6.217  17.668  0.00  0.00    +0.000 C 
BRANCH   9  12
ATOM     12  S   UNL     1       6.209   4.788  17.610  0.00  0.00    +0.000 S 
ATOM     13  H   UNL     1       6.496   5.964  18.191  0.00  0.00    +0.000 HD
ENDBRANCH   9  12
ENDBRANCH   5   9
TORSDOF 2
ENDMDL
MODEL 3
REMARK VINA RESULT:      -5.5      0.979      1.342
REMARK  Name = 
REMARK  5 active torsions:
REMARK  status: ('A' for Active; 'I' for Inactive)
REMARK    1  A    between atoms: C_1  and  C_2
REMARK    2  A    between atoms: C_5  and  C_6
REMARK    3  A    between atoms: C_6  and  C_7
REMARK    4  A    between atoms: C_6  and  C_8
REMARK    5  A    between atoms: C_6  and  S_9
REMARK                            x       y       z     vdW  Elec       q    Type
REMARK                         _______ _______ _______ _____ _____    ______ ____
ROOT
ATOM      1  C   UNL     1       0.910   2.527  19.265  0.00  0.00    +0.000 C 
ATOM      2  C   UNL     1       1.823   2.811  18.069  0.00  0.00    +0.000 C 
ATOM      3  C   UNL     1       1.896   4.314  17.774  0.00  0.00    +0.000 C 
ATOM      4  C   UNL     1       2.850   5.073  18.693  0.00  0.00    +0.000 C 
ATOM      5  C   UNL     1       4.272   4.492  18.774  0.00  0.00    +0.000 C 
ATOM      6  C   UNL     1       4.142   3.006  19.097  0.00  0.00    +0.000 C 
ATOM      7  O   UNL     1       4.844   2.475  19.957  0.00  0.00    +0.000 OA
ATOM      8  C   UNL     1       3.196   2.169  18.263  0.00  0.00    +0.000 C 
ENDROOT
BRANCH   5   9
ATOM      9  C   UNL     1       5.266   4.842  17.617  0.00  0.00    +0.000 C 
ATOM     10  C   UNL     1       6.761   4.793  17.953  0.00  0.00    +0.000 C 
ATOM     11  C   UNL     1       5.029   3.907  16.411  0.00  0.00    +0.000 C 
BRANCH   9  12
ATOM     12  S   UNL     1       4.937   6.548  16.970  0.00  0.00    +0.000 S 
ATOM     13  H   UNL     1       6.071   6.692  16.265  0.00  0.00    +0.000 HD
ENDBRANCH   9  12
ENDBRANCH   5   9
TORSDOF 2
ENDMDL
MODEL 4
REMARK VINA RESULT:      -5.5      2.123      4.025
REMARK  Name = 
REMARK  5 active torsions:
REMARK  status: ('A' for Active; 'I' for Inactive)
REMARK    1  A    between atoms: C_1  and  C_2
REMARK    2  A    between atoms: C_5  and  C_6
REMARK    3  A    between atoms: C_6  and  C_7
REMARK    4  A    between atoms: C_6  and  C_8
REMARK    5  A    between atoms: C_6  and  S_9
REMARK                            x       y       z     vdW  Elec       q    Type
REMARK                         _______ _______ _______ _____ _____    ______ ____
ROOT
ATOM      1  C   UNL     1       7.270   4.855  17.411  0.00  0.00    +0.000 C 
ATOM      2  C   UNL     1       5.985   5.509  17.926  0.00  0.00    +0.000 C 
ATOM      3  C   UNL     1       4.857   5.400  16.892  0.00  0.00    +0.000 C 
ATOM      4  C   UNL     1       4.168   4.038  16.878  0.00  0.00    +0.000 C 
ATOM      5  C   UNL     1       3.664   3.552  18.248  0.00  0.00    +0.000 C 
ATOM      6  C   UNL     1       4.829   3.654  19.228  0.00  0.00    +0.000 C 
ATOM      7  O   UNL     1       5.093   2.737  20.006  0.00  0.00    +0.000 OA
ATOM      8  C   UNL     1       5.599   4.955  19.297  0.00  0.00    +0.000 C 
ENDROOT
BRANCH   5   9
ATOM      9  C   UNL     1       2.301   4.125  18.764  0.00  0.00    +0.000 C 
ATOM     10  C   UNL     1       2.366   5.409  19.599  0.00  0.00    +0.000 C 
ATOM     11  C   UNL     1       1.352   4.390  17.575  0.00  0.00    +0.000 C 
BRANCH   9  12
ATOM     12  S   UNL     1       1.421   2.873  19.808  0.00  0.00    +0.000 S 
ATOM     13  H   UNL     1       0.948   3.718  20.738  0.00  0.00    +0.000 HD
ENDBRANCH   9  12
ENDBRANCH   5   9
TORSDOF 2
ENDMDL
MODEL 5
REMARK VINA RESULT:      -5.4      2.118      2.980
REMARK  Name = 
REMARK  5 active torsions:
REMARK  status: ('A' for Active; 'I' for Inactive)
REMARK    1  A    between atoms: C_1  and  C_2
REMARK    2  A    between atoms: C_5  and  C_6
REMARK    3  A    between atoms: C_6  and  C_7
REMARK    4  A    between atoms: C_6  and  C_8
REMARK    5  A    between atoms: C_6  and  S_9
REMARK                            x       y       z     vdW  Elec       q    Type
REMARK                         _______ _______ _______ _____ _____    ______ ____
ROOT
ATOM      1  C   UNL     1       1.485   4.194  17.699  0.00  0.00    +0.000 C 
ATOM      2  C   UNL     1       2.800   4.173  18.483  0.00  0.00    +0.000 C 
ATOM      3  C   UNL     1       3.889   3.414  17.715  0.00  0.00    +0.000 C 
ATOM      4  C   UNL     1       4.549   4.238  16.613  0.00  0.00    +0.000 C 
ATOM      5  C   UNL     1       5.091   5.607  17.064  0.00  0.00    +0.000 C 
ATOM      6  C   UNL     1       3.962   6.328  17.796  0.00  0.00    +0.000 C 
ATOM      7  O   UNL     1       3.707   7.511  17.569  0.00  0.00    +0.000 OA
ATOM      8  C   UNL     1       3.221   5.585  18.885  0.00  0.00    +0.000 C 
ENDROOT
BRANCH   5   9
ATOM      9  C   UNL     1       6.482   5.635  17.783  0.00  0.00    +0.000 C 
ATOM     10  C   UNL     1       6.474   5.455  19.305  0.00  0.00    +0.000 C 
ATOM     11  C   UNL     1       7.408   4.550  17.191  0.00  0.00    +0.000 C 
BRANCH   9  12
ATOM     12  S   UNL     1       7.352   7.238  17.455  0.00  0.00    +0.000 S 
ATOM     13  H   UNL     1       6.283   8.044  17.554  0.00  0.00    +0.000 HD
ENDBRANCH   9  12
ENDBRANCH   5   9
TORSDOF 2
ENDMDL
MODEL 6
REMARK VINA RESULT:      -5.4      0.929      1.269
REMARK  Name = 
REMARK  5 active torsions:
REMARK  status: ('A' for Active; 'I' for Inactive)
REMARK    1  A    between atoms: C_1  and  C_2
REMARK    2  A    between atoms: C_5  and  C_6
REMARK    3  A    between atoms: C_6  and  C_7
REMARK    4  A    between atoms: C_6  and  C_8
REMARK    5  A    between atoms: C_6  and  S_9
REMARK                            x       y       z     vdW  Elec       q    Type
REMARK                         _______ _______ _______ _____ _____    ______ ____
ROOT
ATOM      1  C   UNL     1       0.968   2.670  19.184  0.00  0.00    +0.000 C 
ATOM      2  C   UNL     1       1.835   3.098  17.996  0.00  0.00    +0.000 C 
ATOM      3  C   UNL     1       1.797   4.619  17.804  0.00  0.00    +0.000 C 
ATOM      4  C   UNL     1       2.715   5.380  18.757  0.00  0.00    +0.000 C 
ATOM      5  C   UNL     1       4.176   4.896  18.776  0.00  0.00    +0.000 C 
ATOM      6  C   UNL     1       4.155   3.386  18.997  0.00  0.00    +0.000 C 
ATOM      7  O   UNL     1       4.910   2.849  19.808  0.00  0.00    +0.000 OA
ATOM      8  C   UNL     1       3.252   2.543  18.123  0.00  0.00    +0.000 C 
ENDROOT
BRANCH   5   9
ATOM      9  C   UNL     1       5.118   5.393  17.630  0.00  0.00    +0.000 C 
ATOM     10  C   UNL     1       4.697   6.672  16.897  0.00  0.00    +0.000 C 
ATOM     11  C   UNL     1       6.546   5.617  18.174  0.00  0.00    +0.000 C 
BRANCH   9  12
ATOM     12  S   UNL     1       5.303   4.089  16.326  0.00  0.00    +0.000 S 
ATOM     13  H   UNL     1       4.293   4.484  15.535  0.00  0.00    +0.000 HD
ENDBRANCH   9  12
ENDBRANCH   5   9
TORSDOF 2
ENDMDL
MODEL 7
REMARK VINA RESULT:      -5.3      2.653      4.732
REMARK  Name = 
REMARK  5 active torsions:
REMARK  status: ('A' for Active; 'I' for Inactive)
REMARK    1  A    between atoms: C_1  and  C_2
REMARK    2  A    between atoms: C_5  and  C_6
REMARK    3  A    between atoms: C_6  and  C_7
REMARK    4  A    between atoms: C_6  and  C_8
REMARK    5  A    between atoms: C_6  and  S_9
REMARK                            x       y       z     vdW  Elec       q    Type
REMARK                         _______ _______ _______ _____ _____    ______ ____
ROOT
ATOM      1  C   UNL     1       7.690   7.699  17.642  0.00  0.00    +0.000 C 
ATOM      2  C   UNL     1       7.101   6.381  17.131  0.00  0.00    +0.000 C 
ATOM      3  C   UNL     1       7.145   5.298  18.217  0.00  0.00    +0.000 C 
ATOM      4  C   UNL     1       6.021   5.413  19.242  0.00  0.00    +0.000 C 
ATOM      5  C   UNL     1       4.604   5.491  18.646  0.00  0.00    +0.000 C 
ATOM      6  C   UNL     1       4.610   6.598  17.596  0.00  0.00    +0.000 C 
ATOM      7  O   UNL     1       3.705   7.432  17.541  0.00  0.00    +0.000 OA
ATOM      8  C   UNL     1       5.704   6.594  16.551  0.00  0.00    +0.000 C 
ENDROOT
BRANCH   5   9
ATOM      9  C   UNL     1       3.930   4.150  18.203  0.00  0.00    +0.000 C 
ATOM     10  C   UNL     1       4.275   3.635  16.800  0.00  0.00    +0.000 C 
ATOM     11  C   UNL     1       4.269   3.026  19.207  0.00  0.00    +0.000 C 
BRANCH   9  12
ATOM     12  S   UNL     1       2.083   4.299  18.259  0.00  0.00    +0.000 S 
ATOM     13  H   UNL     1       2.008   5.632  18.116  0.00  0.00    +0.000 HD
ENDBRANCH   9  12
ENDBRANCH   5   9
TORSDOF 2
ENDMDL
MODEL 8
REMARK VINA RESULT:      -5.3      2.120      4.147
REMARK  Name = 
REMARK  5 active torsions:
REMARK  status: ('A' for Active; 'I' for Inactive)
REMARK    1  A    between atoms: C_1  and  C_2
REMARK    2  A    between atoms: C_5  and  C_6
REMARK    3  A    between atoms: C_6  and  C_7
REMARK    4  A    between atoms: C_6  and  C_8
REMARK    5  A    between atoms: C_6  and  S_9
REMARK                            x       y       z     vdW  Elec       q    Type
REMARK                         _______ _______ _______ _____ _____    ______ ____
ROOT
ATOM      1  C   UNL     1       7.224   4.755  15.994  0.00  0.00    +0.000 C 
ATOM      2  C   UNL     1       5.880   5.478  16.125  0.00  0.00    +0.000 C 
ATOM      3  C   UNL     1       4.710   4.519  15.873  0.00  0.00    +0.000 C 
ATOM      4  C   UNL     1       4.365   3.644  17.075  0.00  0.00    +0.000 C 
ATOM      5  C   UNL     1       4.134   4.410  18.390  0.00  0.00    +0.000 C 
ATOM      6  C   UNL     1       5.336   5.325  18.605  0.00  0.00    +0.000 C 
ATOM      7  O   UNL     1       5.888   5.407  19.703  0.00  0.00    +0.000 OA
ATOM      8  C   UNL     1       5.780   6.211  17.462  0.00  0.00    +0.000 C 
ENDROOT
BRANCH   5   9
ATOM      9  C   UNL     1       2.735   5.080  18.601  0.00  0.00    +0.000 C 
ATOM     10  C   UNL     1       2.617   6.562  18.228  0.00  0.00    +0.000 C 
ATOM     11  C   UNL     1       1.653   4.314  17.809  0.00  0.00    +0.000 C 
BRANCH   9  12
ATOM     12  S   UNL     1       2.211   4.950  20.374  0.00  0.00    +0.000 S 
ATOM     13  H   UNL     1       1.739   6.199  20.512  0.00  0.00    +0.000 HD
ENDBRANCH   9  12
ENDBRANCH   5   9
TORSDOF 2
ENDMDL
MODEL 9
REMARK VINA RESULT:      -5.3      1.746      2.368
REMARK  Name = 
REMARK  5 active torsions:
REMARK  status: ('A' for Active; 'I' for Inactive)
REMARK    1  A    between atoms: C_1  and  C_2
REMARK    2  A    between atoms: C_5  and  C_6
REMARK    3  A    between atoms: C_6  and  C_7
REMARK    4  A    between atoms: C_6  and  C_8
REMARK    5  A    between atoms: C_6  and  S_9
REMARK                            x       y       z     vdW  Elec       q    Type
REMARK                         _______ _______ _______ _____ _____    ______ ____
ROOT
ATOM      1  C   UNL     1       0.903   3.458  20.240  0.00  0.00    +0.000 C 
ATOM      2  C   UNL     1       1.757   4.587  19.657  0.00  0.00    +0.000 C 
ATOM      3  C   UNL     1       3.179   4.557  20.232  0.00  0.00    +0.000 C 
ATOM      4  C   UNL     1       4.085   3.520  19.574  0.00  0.00    +0.000 C 
ATOM      5  C   UNL     1       4.149   3.596  18.038  0.00  0.00    +0.000 C 
ATOM      6  C   UNL     1       2.713   3.594  17.519  0.00  0.00    +0.000 C 
ATOM      7  O   UNL     1       2.377   2.882  16.572  0.00  0.00    +0.000 OA
ATOM      8  C   UNL     1       1.726   4.565  18.129  0.00  0.00    +0.000 C 
ENDROOT
BRANCH   5   9
ATOM      9  C   UNL     1       5.089   4.675  17.404  0.00  0.00    +0.000 C 
ATOM     10  C   UNL     1       4.464   6.041  17.100  0.00  0.00    +0.000 C 
ATOM     11  C   UNL     1       6.313   4.915  18.315  0.00  0.00    +0.000 C 
BRANCH   9  12
ATOM     12  S   UNL     1       5.797   4.063  15.804  0.00  0.00    +0.000 S 
ATOM     13  H   UNL     1       5.038   4.803  14.980  0.00  0.00    +0.000 HD
ENDBRANCH   9  12
ENDBRANCH   5   9
TORSDOF 2
ENDMDL
