MODEL 1
REMARK VINA RESULT:      -7.5      0.000      0.000
REMARK  Name = 
REMARK  8 active torsions:
REMARK  status: ('A' for Active; 'I' for Inactive)
REMARK    1  A    between atoms: C_1  and  C_2
REMARK    2  A    between atoms: C_4  and  C_5
REMARK    3  A    between atoms: N_7  and  C_8
REMARK    4  A    between atoms: C_8  and  N_10
REMARK    5  A    between atoms: N_10  and  C_11
REMARK    6  A    between atoms: C_16  and  C_17
REMARK    7  A    between atoms: C_18  and  C_19
REMARK    8  A    between atoms: C_29  and  O_30
REMARK                            x       y       z     vdW  Elec       q    Type
REMARK                         _______ _______ _______ _____ _____    ______ ____
ROOT
ATOM      1  C   UNL     1       1.166   9.436  20.013  0.00  0.00    +0.000 C 
ATOM      2  N   UNL     1       0.622  10.097  19.033  0.00  0.00    +0.000 NA
ATOM      3  N   UNL     1       0.406  11.377  19.503  0.00  0.00    +0.000 N 
ATOM      4  C   UNL     1       0.827  11.558  20.901  0.00  0.00    +0.000 C 
ATOM      5  C   UNL     1       1.339  10.184  21.306  0.00  0.00    +0.000 C 
ENDROOT
BRANCH   1   9
ATOM      6  C   UNL     1       3.756   5.920  17.531  0.00  0.00    +0.000 C 
ATOM      7  C   UNL     1       2.881   6.332  18.681  0.00  0.00    +0.000 A 
ATOM      8  C   UNL     1       2.421   7.653  18.784  0.00  0.00    +0.000 A 
ATOM      9  C   UNL     1       1.649   8.047  19.882  0.00  0.00    +0.000 A 
ATOM     10  C   UNL     1       1.308   7.118  20.870  0.00  0.00    +0.000 A 
ATOM     11  C   UNL     1       1.738   5.795  20.762  0.00  0.00    +0.000 A 
ATOM     12  C   UNL     1       2.523   5.414  19.674  0.00  0.00    +0.000 A 
BRANCH  12  13
ATOM     13  O   UNL     1       2.964   4.127  19.562  0.00  0.00    +0.000 OA
ATOM     14  H   UNL     1       2.471   3.683  18.852  0.00  0.00    +0.000 HD
ENDBRANCH  12  13
ENDBRANCH   1   9
BRANCH   4  15
ATOM     15  C   UNL     1      -0.299  12.015  21.822  0.00  0.00    +0.000 A 
ATOM     16  C   UNL     1      -1.212  11.109  22.389  0.00  0.00    +0.000 A 
ATOM     17  C   UNL     1      -2.247  11.559  23.214  0.00  0.00    +0.000 A 
ATOM     18  C   UNL     1      -2.368  12.915  23.494  0.00  0.00    +0.000 A 
ATOM     19 CL   UNL     1      -3.645  13.471  24.506  0.00  0.00    +0.000 Cl
ATOM     20  C   UNL     1      -1.460  13.828  22.961  0.00  0.00    +0.000 A 
ATOM     21  C   UNL     1      -0.430  13.380  22.129  0.00  0.00    +0.000 A 
ENDBRANCH   4  15
BRANCH   3  22
ATOM     22  C   UNL     1      -0.043  12.387  18.641  0.00  0.00    +0.000 C 
ATOM     23  S   UNL     1       0.575  13.957  18.690  0.00  0.00    +0.000 S 
BRANCH  22  24
ATOM     24  N   UNL     1      -1.023  11.928  17.761  0.00  0.00    +0.000 N 
ATOM     25  H   UNL     1      -0.655  11.660  16.857  0.00  0.00    +0.000 HD
BRANCH  24  26
ATOM     26  C   UNL     1      -2.418  11.830  17.995  0.00  0.00    +0.000 A 
ATOM     27  C   UNL     1      -2.949  12.207  19.239  0.00  0.00    +0.000 A 
ATOM     28  C   UNL     1      -4.319  12.165  19.490  0.00  0.00    +0.000 A 
ATOM     29  C   UNL     1      -5.184  11.727  18.500  0.00  0.00    +0.000 A 
ATOM     30  C   UNL     1      -4.670  11.282  17.281  0.00  0.00    +0.000 A 
ATOM     31  C   UNL     1      -3.283  11.298  17.024  0.00  0.00    +0.000 A 
ATOM     32  C   UNL     1      -2.802  10.780  15.696  0.00  0.00    +0.000 C 
ENDBRANCH  24  26
ENDBRANCH  22  24
ENDBRANCH   3  22
TORSDOF 6
ENDMDL
MODEL 2
REMARK VINA RESULT:      -7.4      0.686      1.578
REMARK  Name = 
REMARK  8 active torsions:
REMARK  status: ('A' for Active; 'I' for Inactive)
REMARK    1  A    between atoms: C_1  and  C_2
REMARK    2  A    between atoms: C_4  and  C_5
REMARK    3  A    between atoms: N_7  and  C_8
REMARK    4  A    between atoms: C_8  and  N_10
REMARK    5  A    between atoms: N_10  and  C_11
REMARK    6  A    between atoms: C_16  and  C_17
REMARK    7  A    between atoms: C_18  and  C_19
REMARK    8  A    between atoms: C_29  and  O_30
REMARK                            x       y       z     vdW  Elec       q    Type
REMARK                         _______ _______ _______ _____ _____    ______ ____
ROOT
ATOM      1  C   UNL     1       1.095   9.901  19.570  0.00  0.00    +0.000 C 
ATOM      2  N   UNL     1       0.448  10.578  18.666  0.00  0.00    +0.000 NA
ATOM      3  N   UNL     1       0.109  11.780  19.253  0.00  0.00    +0.000 N 
ATOM      4  C   UNL     1       0.555  11.887  20.651  0.00  0.00    +0.000 C 
ATOM      5  C   UNL     1       1.229  10.550  20.920  0.00  0.00    +0.000 C 
ENDROOT
BRANCH   1   9
ATOM      6  C   UNL     1       2.083   5.168  20.929  0.00  0.00    +0.000 C 
ATOM      7  C   UNL     1       2.225   6.306  19.959  0.00  0.00    +0.000 A 
ATOM      8  C   UNL     1       1.633   7.548  20.232  0.00  0.00    +0.000 A 
ATOM      9  C   UNL     1       1.723   8.591  19.305  0.00  0.00    +0.000 A 
ATOM     10  C   UNL     1       2.429   8.411  18.111  0.00  0.00    +0.000 A 
ATOM     11  C   UNL     1       3.046   7.188  17.844  0.00  0.00    +0.000 A 
ATOM     12  C   UNL     1       2.936   6.146  18.765  0.00  0.00    +0.000 A 
BRANCH  12  13
ATOM     13  O   UNL     1       3.521   4.939  18.511  0.00  0.00    +0.000 OA
ATOM     14  H   UNL     1       4.469   5.075  18.347  0.00  0.00    +0.000 HD
ENDBRANCH  12  13
ENDBRANCH   1   9
BRANCH   4  15
ATOM     15  C   UNL     1      -0.582  12.135  21.636  0.00  0.00    +0.000 A 
ATOM     16  C   UNL     1      -1.135  13.413  21.830  0.00  0.00    +0.000 A 
ATOM     17  C   UNL     1      -2.163  13.615  22.755  0.00  0.00    +0.000 A 
ATOM     18  C   UNL     1      -2.661  12.538  23.481  0.00  0.00    +0.000 A 
ATOM     19 CL   UNL     1      -3.924  12.785  24.624  0.00  0.00    +0.000 Cl
ATOM     20  C   UNL     1      -2.143  11.259  23.288  0.00  0.00    +0.000 A 
ATOM     21  C   UNL     1      -1.109  11.057  22.369  0.00  0.00    +0.000 A 
ENDBRANCH   4  15
BRANCH   3  22
ATOM     22  C   UNL     1      -0.479  12.802  18.496  0.00  0.00    +0.000 C 
ATOM     23  S   UNL     1      -0.023  14.420  18.654  0.00  0.00    +0.000 S 
BRANCH  22  24
ATOM     24  N   UNL     1      -1.444  12.315  17.614  0.00  0.00    +0.000 N 
ATOM     25  H   UNL     1      -1.112  12.237  16.661  0.00  0.00    +0.000 HD
BRANCH  24  26
ATOM     26  C   UNL     1      -2.783  11.958  17.910  0.00  0.00    +0.000 A 
ATOM     27  C   UNL     1      -3.322  12.243  19.175  0.00  0.00    +0.000 A 
ATOM     28  C   UNL     1      -4.648  11.946  19.487  0.00  0.00    +0.000 A 
ATOM     29  C   UNL     1      -5.456  11.341  18.538  0.00  0.00    +0.000 A 
ATOM     30  C   UNL     1      -4.920  10.987  17.299  0.00  0.00    +0.000 A 
ATOM     31  C   UNL     1      -3.573  11.261  16.981  0.00  0.00    +0.000 A 
ATOM     32  C   UNL     1      -3.061  10.828  15.635  0.00  0.00    +0.000 C 
ENDBRANCH  24  26
ENDBRANCH  22  24
ENDBRANCH   3  22
TORSDOF 6
ENDMDL
MODEL 3
REMARK VINA RESULT:      -7.4      0.648      1.326
REMARK  Name = 
REMARK  8 active torsions:
REMARK  status: ('A' for Active; 'I' for Inactive)
REMARK    1  A    between atoms: C_1  and  C_2
REMARK    2  A    between atoms: C_4  and  C_5
REMARK    3  A    between atoms: N_7  and  C_8
REMARK    4  A    between atoms: C_8  and  N_10
REMARK    5  A    between atoms: N_10  and  C_11
REMARK    6  A    between atoms: C_16  and  C_17
REMARK    7  A    between atoms: C_18  and  C_19
REMARK    8  A    between atoms: C_29  and  O_30
REMARK                            x       y       z     vdW  Elec       q    Type
REMARK                         _______ _______ _______ _____ _____    ______ ____
ROOT
ATOM      1  C   UNL     1       1.305   9.169  19.677  0.00  0.00    +0.000 C 
ATOM      2  N   UNL     1       0.696   9.831  18.736  0.00  0.00    +0.000 NA
ATOM      3  N   UNL     1       0.376  11.061  19.275  0.00  0.00    +0.000 N 
ATOM      4  C   UNL     1       0.793  11.204  20.678  0.00  0.00    +0.000 C 
ATOM      5  C   UNL     1       1.426   9.860  21.007  0.00  0.00    +0.000 C 
ENDROOT
BRANCH   1   9
ATOM      6  C   UNL     1       2.127   4.457  21.209  0.00  0.00    +0.000 C 
ATOM      7  C   UNL     1       2.326   5.560  20.209  0.00  0.00    +0.000 A 
ATOM      8  C   UNL     1       1.760   6.825  20.427  0.00  0.00    +0.000 A 
ATOM      9  C   UNL     1       1.904   7.836  19.470  0.00  0.00    +0.000 A 
ATOM     10  C   UNL     1       2.637   7.599  18.303  0.00  0.00    +0.000 A 
ATOM     11  C   UNL     1       3.227   6.352  18.091  0.00  0.00    +0.000 A 
ATOM     12  C   UNL     1       3.064   5.344  19.040  0.00  0.00    +0.000 A 
BRANCH  12  13
ATOM     13  O   UNL     1       3.622   4.114  18.840  0.00  0.00    +0.000 OA
ATOM     14  H   UNL     1       3.528   3.871  17.904  0.00  0.00    +0.000 HD
ENDBRANCH  12  13
ENDBRANCH   1   9
BRANCH   4  15
ATOM     15  C   UNL     1      -0.358  11.514  21.628  0.00  0.00    +0.000 A 
ATOM     16  C   UNL     1      -0.852  10.562  22.537  0.00  0.00    +0.000 A 
ATOM     17  C   UNL     1      -1.923  10.866  23.381  0.00  0.00    +0.000 A 
ATOM     18  C   UNL     1      -2.498  12.132  23.340  0.00  0.00    +0.000 A 
ATOM     19 CL   UNL     1      -3.819  12.508  24.377  0.00  0.00    +0.000 Cl
ATOM     20  C   UNL     1      -2.009  13.099  22.463  0.00  0.00    +0.000 A 
ATOM     21  C   UNL     1      -0.944  12.792  21.611  0.00  0.00    +0.000 A 
ENDBRANCH   4  15
BRANCH   3  22
ATOM     22  C   UNL     1      -0.168  12.072  18.470  0.00  0.00    +0.000 C 
ATOM     23  S   UNL     1       0.345  13.677  18.568  0.00  0.00    +0.000 S 
BRANCH  22  24
ATOM     24  N   UNL     1      -1.142  11.584  17.599  0.00  0.00    +0.000 N 
ATOM     25  H   UNL     1      -0.757  11.177  16.756  0.00  0.00    +0.000 HD
BRANCH  24  26
ATOM     26  C   UNL     1      -2.549  11.622  17.767  0.00  0.00    +0.000 A 
ATOM     27  C   UNL     1      -3.097  11.978  19.009  0.00  0.00    +0.000 A 
ATOM     28  C   UNL     1      -4.476  12.069  19.199  0.00  0.00    +0.000 A 
ATOM     29  C   UNL     1      -5.332  11.787  18.147  0.00  0.00    +0.000 A 
ATOM     30  C   UNL     1      -4.808  11.364  16.925  0.00  0.00    +0.000 A 
ATOM     31  C   UNL     1      -3.416  11.246  16.728  0.00  0.00    +0.000 A 
ATOM     32  C   UNL     1      -2.928  10.761  15.391  0.00  0.00    +0.000 C 
ENDBRANCH  24  26
ENDBRANCH  22  24
ENDBRANCH   3  22
TORSDOF 6
ENDMDL
MODEL 4
REMARK VINA RESULT:      -7.4      5.723      9.925
REMARK  Name = 
REMARK  8 active torsions:
REMARK  status: ('A' for Active; 'I' for Inactive)
REMARK    1  A    between atoms: C_1  and  C_2
REMARK    2  A    between atoms: C_4  and  C_5
REMARK    3  A    between atoms: N_7  and  C_8
REMARK    4  A    between atoms: C_8  and  N_10
REMARK    5  A    between atoms: N_10  and  C_11
REMARK    6  A    between atoms: C_16  and  C_17
REMARK    7  A    between atoms: C_18  and  C_19
REMARK    8  A    between atoms: C_29  and  O_30
REMARK                            x       y       z     vdW  Elec       q    Type
REMARK                         _______ _______ _______ _____ _____    ______ ____
ROOT
ATOM      1  C   UNL     1       3.602   7.122  18.259  0.00  0.00    +0.000 C 
ATOM      2  N   UNL     1       3.920   6.065  18.949  0.00  0.00    +0.000 NA
ATOM      3  N   UNL     1       5.105   5.599  18.416  0.00  0.00    +0.000 N 
ATOM      4  C   UNL     1       5.587   6.404  17.283  0.00  0.00    +0.000 C 
ATOM      5  C   UNL     1       4.520   7.476  17.122  0.00  0.00    +0.000 C 
ENDROOT
BRANCH   1   9
ATOM      6  C   UNL     1       0.179   8.805  21.526  0.00  0.00    +0.000 C 
ATOM      7  C   UNL     1       0.771   8.788  20.146  0.00  0.00    +0.000 A 
ATOM      8  C   UNL     1       1.863   7.957  19.853  0.00  0.00    +0.000 A 
ATOM      9  C   UNL     1       2.445   7.980  18.581  0.00  0.00    +0.000 A 
ATOM     10  C   UNL     1       1.924   8.812  17.585  0.00  0.00    +0.000 A 
ATOM     11  C   UNL     1       0.820   9.621  17.859  0.00  0.00    +0.000 A 
ATOM     12  C   UNL     1       0.257   9.607  19.135  0.00  0.00    +0.000 A 
BRANCH  12  13
ATOM     13  O   UNL     1      -0.814  10.404  19.423  0.00  0.00    +0.000 OA
ATOM     14  H   UNL     1      -1.507  10.255  18.759  0.00  0.00    +0.000 HD
ENDBRANCH  12  13
ENDBRANCH   1   9
BRANCH   4  15
ATOM     15  C   UNL     1       5.758   5.605  15.997  0.00  0.00    +0.000 A 
ATOM     16  C   UNL     1       4.705   4.863  15.434  0.00  0.00    +0.000 A 
ATOM     17  C   UNL     1       4.896   4.122  14.265  0.00  0.00    +0.000 A 
ATOM     18  C   UNL     1       6.136   4.131  13.635  0.00  0.00    +0.000 A 
ATOM     19 CL   UNL     1       6.375   3.216  12.198  0.00  0.00    +0.000 Cl
ATOM     20  C   UNL     1       7.188   4.878  14.163  0.00  0.00    +0.000 A 
ATOM     21  C   UNL     1       7.000   5.612  15.338  0.00  0.00    +0.000 A 
ENDBRANCH   4  15
BRANCH   3  22
ATOM     22  C   UNL     1       5.795   4.543  19.029  0.00  0.00    +0.000 C 
ATOM     23  S   UNL     1       7.318   4.746  19.729  0.00  0.00    +0.000 S 
BRANCH  22  24
ATOM     24  N   UNL     1       5.070   3.352  18.995  0.00  0.00    +0.000 N 
ATOM     25  H   UNL     1       5.536   2.615  18.481  0.00  0.00    +0.000 HD
BRANCH  24  26
ATOM     26  C   UNL     1       3.798   3.098  19.567  0.00  0.00    +0.000 A 
ATOM     27  C   UNL     1       3.672   2.942  20.956  0.00  0.00    +0.000 A 
ATOM     28  C   UNL     1       2.432   2.734  21.558  0.00  0.00    +0.000 A 
ATOM     29  C   UNL     1       1.293   2.663  20.772  0.00  0.00    +0.000 A 
ATOM     30  C   UNL     1       1.406   2.747  19.383  0.00  0.00    +0.000 A 
ATOM     31  C   UNL     1       2.659   2.933  18.762  0.00  0.00    +0.000 A 
ATOM     32  C   UNL     1       2.703   2.989  17.260  0.00  0.00    +0.000 C 
ENDBRANCH  24  26
ENDBRANCH  22  24
ENDBRANCH   3  22
TORSDOF 6
ENDMDL
MODEL 5
REMARK VINA RESULT:      -7.3      8.433      9.810
REMARK  Name = 
REMARK  8 active torsions:
REMARK  status: ('A' for Active; 'I' for Inactive)
REMARK    1  A    between atoms: C_1  and  C_2
REMARK    2  A    between atoms: C_4  and  C_5
REMARK    3  A    between atoms: N_7  and  C_8
REMARK    4  A    between atoms: C_8  and  N_10
REMARK    5  A    between atoms: N_10  and  C_11
REMARK    6  A    between atoms: C_16  and  C_17
REMARK    7  A    between atoms: C_18  and  C_19
REMARK    8  A    between atoms: C_29  and  O_30
REMARK                            x       y       z     vdW  Elec       q    Type
REMARK                         _______ _______ _______ _____ _____    ______ ____
ROOT
ATOM      1  C   UNL     1       8.764   9.786  18.540  0.00  0.00    +0.000 C 
ATOM      2  N   UNL     1       8.738  10.754  17.671  0.00  0.00    +0.000 NA
ATOM      3  N   UNL     1       9.535  11.757  18.186  0.00  0.00    +0.000 N 
ATOM      4  C   UNL     1      10.110  11.421  19.498  0.00  0.00    +0.000 C 
ATOM      5  C   UNL     1       9.551  10.039  19.796  0.00  0.00    +0.000 C 
ENDROOT
BRANCH   1   9
ATOM      6  C   UNL     1       5.415   6.922  16.129  0.00  0.00    +0.000 C 
ATOM      7  C   UNL     1       6.485   7.087  17.170  0.00  0.00    +0.000 A 
ATOM      8  C   UNL     1       7.083   8.339  17.380  0.00  0.00    +0.000 A 
ATOM      9  C   UNL     1       8.114   8.479  18.315  0.00  0.00    +0.000 A 
ATOM     10  C   UNL     1       8.536   7.378  19.066  0.00  0.00    +0.000 A 
ATOM     11  C   UNL     1       7.928   6.135  18.884  0.00  0.00    +0.000 A 
ATOM     12  C   UNL     1       6.913   5.998  17.937  0.00  0.00    +0.000 A 
BRANCH  12  13
ATOM     13  O   UNL     1       6.318   4.786  17.737  0.00  0.00    +0.000 OA
ATOM     14  H   UNL     1       6.995   4.141  17.472  0.00  0.00    +0.000 HD
ENDBRANCH  12  13
ENDBRANCH   1   9
BRANCH   4  15
ATOM     15  C   UNL     1       9.739  12.410  20.596  0.00  0.00    +0.000 A 
ATOM     16  C   UNL     1       8.699  12.157  21.507  0.00  0.00    +0.000 A 
ATOM     17  C   UNL     1       8.366  13.092  22.491  0.00  0.00    +0.000 A 
ATOM     18  C   UNL     1       9.083  14.279  22.588  0.00  0.00    +0.000 A 
ATOM     19 CL   UNL     1       8.673  15.433  23.798  0.00  0.00    +0.000 Cl
ATOM     20  C   UNL     1      10.134  14.540  21.711  0.00  0.00    +0.000 A 
ATOM     21  C   UNL     1      10.462  13.610  20.720  0.00  0.00    +0.000 A 
ENDBRANCH   4  15
BRANCH   3  22
ATOM     22  C   UNL     1       9.834  12.893  17.422  0.00  0.00    +0.000 C 
ATOM     23  S   UNL     1      11.367  13.166  16.770  0.00  0.00    +0.000 S 
BRANCH  22  24
ATOM     24  N   UNL     1       8.726  13.728  17.267  0.00  0.00    +0.000 N 
ATOM     25  H   UNL     1       8.261  13.613  16.375  0.00  0.00    +0.000 HD
BRANCH  24  26
ATOM     26  C   UNL     1       8.232  14.687  18.185  0.00  0.00    +0.000 A 
ATOM     27  C   UNL     1       7.123  14.380  18.991  0.00  0.00    +0.000 A 
ATOM     28  C   UNL     1       6.636  15.282  19.936  0.00  0.00    +0.000 A 
ATOM     29  C   UNL     1       7.244  16.519  20.080  0.00  0.00    +0.000 A 
ATOM     30  C   UNL     1       8.304  16.868  19.241  0.00  0.00    +0.000 A 
ATOM     31  C   UNL     1       8.790  15.973  18.266  0.00  0.00    +0.000 A 
ATOM     32  C   UNL     1       9.918  16.432  17.383  0.00  0.00    +0.000 C 
ENDBRANCH  24  26
ENDBRANCH  22  24
ENDBRANCH   3  22
TORSDOF 6
ENDMDL
MODEL 6
REMARK VINA RESULT:      -7.3      2.974      4.461
REMARK  Name = 
REMARK  8 active torsions:
REMARK  status: ('A' for Active; 'I' for Inactive)
REMARK    1  A    between atoms: C_1  and  C_2
REMARK    2  A    between atoms: C_4  and  C_5
REMARK    3  A    between atoms: N_7  and  C_8
REMARK    4  A    between atoms: C_8  and  N_10
REMARK    5  A    between atoms: N_10  and  C_11
REMARK    6  A    between atoms: C_16  and  C_17
REMARK    7  A    between atoms: C_18  and  C_19
REMARK    8  A    between atoms: C_29  and  O_30
REMARK                            x       y       z     vdW  Elec       q    Type
REMARK                         _______ _______ _______ _____ _____    ______ ____
ROOT
ATOM      1  C   UNL     1       1.534   8.752  19.335  0.00  0.00    +0.000 C 
ATOM      2  N   UNL     1       1.173   8.982  20.564  0.00  0.00    +0.000 NA
ATOM      3  N   UNL     1       0.311  10.059  20.519  0.00  0.00    +0.000 N 
ATOM      4  C   UNL     1       0.108  10.580  19.159  0.00  0.00    +0.000 C 
ATOM      5  C   UNL     1       0.994   9.695  18.295  0.00  0.00    +0.000 C 
ENDROOT
BRANCH   1   9
ATOM      6  C   UNL     1       4.904   6.662  16.254  0.00  0.00    +0.000 C 
ATOM      7  C   UNL     1       3.994   6.578  17.446  0.00  0.00    +0.000 A 
ATOM      8  C   UNL     1       3.188   7.670  17.800  0.00  0.00    +0.000 A 
ATOM      9  C   UNL     1       2.379   7.608  18.940  0.00  0.00    +0.000 A 
ATOM     10  C   UNL     1       2.348   6.446  19.717  0.00  0.00    +0.000 A 
ATOM     11  C   UNL     1       3.125   5.345  19.356  0.00  0.00    +0.000 A 
ATOM     12  C   UNL     1       3.944   5.420  18.230  0.00  0.00    +0.000 A 
BRANCH  12  13
ATOM     13  O   UNL     1       4.721   4.356  17.872  0.00  0.00    +0.000 OA
ATOM     14  H   UNL     1       4.148   3.636  17.561  0.00  0.00    +0.000 HD
ENDBRANCH  12  13
ENDBRANCH   1   9
BRANCH   4  15
ATOM     15  C   UNL     1       0.488  12.049  19.007  0.00  0.00    +0.000 A 
ATOM     16  C   UNL     1      -0.454  13.029  18.647  0.00  0.00    +0.000 A 
ATOM     17  C   UNL     1      -0.074  14.365  18.494  0.00  0.00    +0.000 A 
ATOM     18  C   UNL     1       1.246  14.738  18.720  0.00  0.00    +0.000 A 
ATOM     19 CL   UNL     1       1.718  16.382  18.529  0.00  0.00    +0.000 Cl
ATOM     20  C   UNL     1       2.192  13.787  19.100  0.00  0.00    +0.000 A 
ATOM     21  C   UNL     1       1.814  12.449  19.244  0.00  0.00    +0.000 A 
ENDBRANCH   4  15
BRANCH   3  22
ATOM     22  C   UNL     1      -0.372  10.473  21.671  0.00  0.00    +0.000 C 
ATOM     23  S   UNL     1      -0.211   9.678  23.151  0.00  0.00    +0.000 S 
BRANCH  22  24
ATOM     24  N   UNL     1      -1.161  11.600  21.438  0.00  0.00    +0.000 N 
ATOM     25  H   UNL     1      -1.296  11.797  20.454  0.00  0.00    +0.000 HD
BRANCH  24  26
ATOM     26  C   UNL     1      -1.742  12.463  22.401  0.00  0.00    +0.000 A 
ATOM     27  C   UNL     1      -3.000  12.160  22.944  0.00  0.00    +0.000 A 
ATOM     28  C   UNL     1      -3.584  12.961  23.925  0.00  0.00    +0.000 A 
ATOM     29  C   UNL     1      -2.920  14.094  24.368  0.00  0.00    +0.000 A 
ATOM     30  C   UNL     1      -1.700  14.449  23.790  0.00  0.00    +0.000 A 
ATOM     31  C   UNL     1      -1.111  13.659  22.781  0.00  0.00    +0.000 A 
ATOM     32  C   UNL     1       0.193  14.120  22.190  0.00  0.00    +0.000 C 
ENDBRANCH  24  26
ENDBRANCH  22  24
ENDBRANCH   3  22
TORSDOF 6
ENDMDL
MODEL 7
REMARK VINA RESULT:      -7.2      8.766     10.063
REMARK  Name = 
REMARK  8 active torsions:
REMARK  status: ('A' for Active; 'I' for Inactive)
REMARK    1  A    between atoms: C_1  and  C_2
REMARK    2  A    between atoms: C_4  and  C_5
REMARK    3  A    between atoms: N_7  and  C_8
REMARK    4  A    between atoms: C_8  and  N_10
REMARK    5  A    between atoms: N_10  and  C_11
REMARK    6  A    between atoms: C_16  and  C_17
REMARK    7  A    between atoms: C_18  and  C_19
REMARK    8  A    between atoms: C_29  and  O_30
REMARK                            x       y       z     vdW  Elec       q    Type
REMARK                         _______ _______ _______ _____ _____    ______ ____
ROOT
ATOM      1  C   UNL     1       8.937  10.069  18.591  0.00  0.00    +0.000 C 
ATOM      2  N   UNL     1       8.998  11.033  17.719  0.00  0.00    +0.000 NA
ATOM      3  N   UNL     1       9.801  12.008  18.277  0.00  0.00    +0.000 N 
ATOM      4  C   UNL     1      10.285  11.659  19.621  0.00  0.00    +0.000 C 
ATOM      5  C   UNL     1       9.658  10.299  19.890  0.00  0.00    +0.000 C 
ENDROOT
BRANCH   1   9
ATOM      6  C   UNL     1       8.209   5.212  19.638  0.00  0.00    +0.000 C 
ATOM      7  C   UNL     1       7.907   6.431  18.814  0.00  0.00    +0.000 A 
ATOM      8  C   UNL     1       8.573   7.639  19.066  0.00  0.00    +0.000 A 
ATOM      9  C   UNL     1       8.255   8.786  18.331  0.00  0.00    +0.000 A 
ATOM     10  C   UNL     1       7.289   8.727  17.322  0.00  0.00    +0.000 A 
ATOM     11  C   UNL     1       6.641   7.523  17.045  0.00  0.00    +0.000 A 
ATOM     12  C   UNL     1       6.950   6.388  17.795  0.00  0.00    +0.000 A 
BRANCH  12  13
ATOM     13  O   UNL     1       6.314   5.205  17.546  0.00  0.00    +0.000 OA
ATOM     14  H   UNL     1       5.379   5.290  17.796  0.00  0.00    +0.000 HD
ENDBRANCH  12  13
ENDBRANCH   1   9
BRANCH   4  15
ATOM     15  C   UNL     1       9.886  12.666  20.693  0.00  0.00    +0.000 A 
ATOM     16  C   UNL     1       8.820  12.430  21.578  0.00  0.00    +0.000 A 
ATOM     17  C   UNL     1       8.462  13.381  22.539  0.00  0.00    +0.000 A 
ATOM     18  C   UNL     1       9.180  14.568  22.637  0.00  0.00    +0.000 A 
ATOM     19 CL   UNL     1       8.740  15.742  23.816  0.00  0.00    +0.000 Cl
ATOM     20  C   UNL     1      10.256  14.813  21.785  0.00  0.00    +0.000 A 
ATOM     21  C   UNL     1      10.608  13.866  20.818  0.00  0.00    +0.000 A 
ENDBRANCH   4  15
BRANCH   3  22
ATOM     22  C   UNL     1      10.185  13.130  17.529  0.00  0.00    +0.000 C 
ATOM     23  S   UNL     1      11.766  13.350  16.981  0.00  0.00    +0.000 S 
BRANCH  22  24
ATOM     24  N   UNL     1       9.117  13.996  17.295  0.00  0.00    +0.000 N 
ATOM     25  H   UNL     1       8.763  13.948  16.347  0.00  0.00    +0.000 HD
BRANCH  24  26
ATOM     26  C   UNL     1       8.527  14.907  18.206  0.00  0.00    +0.000 A 
ATOM     27  C   UNL     1       7.371  14.540  18.914  0.00  0.00    +0.000 A 
ATOM     28  C   UNL     1       6.788  15.392  19.851  0.00  0.00    +0.000 A 
ATOM     29  C   UNL     1       7.346  16.639  20.084  0.00  0.00    +0.000 A 
ATOM     30  C   UNL     1       8.455  17.048  19.341  0.00  0.00    +0.000 A 
ATOM     31  C   UNL     1       9.039  16.204  18.374  0.00  0.00    +0.000 A 
ATOM     32  C   UNL     1      10.216  16.725  17.596  0.00  0.00    +0.000 C 
ENDBRANCH  24  26
ENDBRANCH  22  24
ENDBRANCH   3  22
TORSDOF 6
ENDMDL
MODEL 8
REMARK VINA RESULT:      -7.1      2.970      4.593
REMARK  Name = 
REMARK  8 active torsions:
REMARK  status: ('A' for Active; 'I' for Inactive)
REMARK    1  A    between atoms: C_1  and  C_2
REMARK    2  A    between atoms: C_4  and  C_5
REMARK    3  A    between atoms: N_7  and  C_8
REMARK    4  A    between atoms: C_8  and  N_10
REMARK    5  A    between atoms: N_10  and  C_11
REMARK    6  A    between atoms: C_16  and  C_17
REMARK    7  A    between atoms: C_18  and  C_19
REMARK    8  A    between atoms: C_29  and  O_30
REMARK                            x       y       z     vdW  Elec       q    Type
REMARK                         _______ _______ _______ _____ _____    ______ ____
ROOT
ATOM      1  C   UNL     1       1.594   8.655  19.274  0.00  0.00    +0.000 C 
ATOM      2  N   UNL     1       1.258   8.895  20.509  0.00  0.00    +0.000 NA
ATOM      3  N   UNL     1       0.403   9.978  20.473  0.00  0.00    +0.000 N 
ATOM      4  C   UNL     1       0.179  10.492  19.113  0.00  0.00    +0.000 C 
ATOM      5  C   UNL     1       1.042   9.595  18.239  0.00  0.00    +0.000 C 
ENDROOT
BRANCH   1   9
ATOM      6  C   UNL     1       5.021   6.578  16.247  0.00  0.00    +0.000 C 
ATOM      7  C   UNL     1       4.065   6.479  17.401  0.00  0.00    +0.000 A 
ATOM      8  C   UNL     1       3.275   7.580  17.764  0.00  0.00    +0.000 A 
ATOM      9  C   UNL     1       2.423   7.502  18.871  0.00  0.00    +0.000 A 
ATOM     10  C   UNL     1       2.334   6.316  19.606  0.00  0.00    +0.000 A 
ATOM     11  C   UNL     1       3.095   5.207  19.235  0.00  0.00    +0.000 A 
ATOM     12  C   UNL     1       3.956   5.297  18.142  0.00  0.00    +0.000 A 
BRANCH  12  13
ATOM     13  O   UNL     1       4.718   4.225  17.776  0.00  0.00    +0.000 OA
ATOM     14  H   UNL     1       5.641   4.512  17.674  0.00  0.00    +0.000 HD
ENDBRANCH  12  13
ENDBRANCH   1   9
BRANCH   4  15
ATOM     15  C   UNL     1       0.566  11.957  18.944  0.00  0.00    +0.000 A 
ATOM     16  C   UNL     1       1.869  12.417  19.200  0.00  0.00    +0.000 A 
ATOM     17  C   UNL     1       2.191  13.770  19.057  0.00  0.00    +0.000 A 
ATOM     18  C   UNL     1       1.219  14.672  18.638  0.00  0.00    +0.000 A 
ATOM     19 CL   UNL     1       1.613  16.338  18.466  0.00  0.00    +0.000 Cl
ATOM     20  C   UNL     1      -0.073  14.233  18.357  0.00  0.00    +0.000 A 
ATOM     21  C   UNL     1      -0.399  12.882  18.509  0.00  0.00    +0.000 A 
ENDBRANCH   4  15
BRANCH   3  22
ATOM     22  C   UNL     1      -0.255  10.404  21.634  0.00  0.00    +0.000 C 
ATOM     23  S   UNL     1      -0.100   9.596  23.108  0.00  0.00    +0.000 S 
BRANCH  22  24
ATOM     24  N   UNL     1      -1.014  11.555  21.416  0.00  0.00    +0.000 N 
ATOM     25  H   UNL     1      -1.612  11.491  20.602  0.00  0.00    +0.000 HD
BRANCH  24  26
ATOM     26  C   UNL     1      -1.009  12.751  22.177  0.00  0.00    +0.000 A 
ATOM     27  C   UNL     1       0.020  13.690  22.000  0.00  0.00    +0.000 A 
ATOM     28  C   UNL     1       0.034  14.897  22.698  0.00  0.00    +0.000 A 
ATOM     29  C   UNL     1      -0.978  15.177  23.602  0.00  0.00    +0.000 A 
ATOM     30  C   UNL     1      -1.971  14.227  23.842  0.00  0.00    +0.000 A 
ATOM     31  C   UNL     1      -1.983  12.993  23.159  0.00  0.00    +0.000 A 
ATOM     32  C   UNL     1      -3.072  12.010  23.490  0.00  0.00    +0.000 C 
ENDBRANCH  24  26
ENDBRANCH  22  24
ENDBRANCH   3  22
TORSDOF 6
ENDMDL
MODEL 9
REMARK VINA RESULT:      -7.1      2.973      4.570
REMARK  Name = 
REMARK  8 active torsions:
REMARK  status: ('A' for Active; 'I' for Inactive)
REMARK    1  A    between atoms: C_1  and  C_2
REMARK    2  A    between atoms: C_4  and  C_5
REMARK    3  A    between atoms: N_7  and  C_8
REMARK    4  A    between atoms: C_8  and  N_10
REMARK    5  A    between atoms: N_10  and  C_11
REMARK    6  A    between atoms: C_16  and  C_17
REMARK    7  A    between atoms: C_18  and  C_19
REMARK    8  A    between atoms: C_29  and  O_30
REMARK                            x       y       z     vdW  Elec       q    Type
REMARK                         _______ _______ _______ _____ _____    ______ ____
ROOT
ATOM      1  C   UNL     1       1.485   8.814  19.331  0.00  0.00    +0.000 C 
ATOM      2  N   UNL     1       1.130   9.032  20.564  0.00  0.00    +0.000 NA
ATOM      3  N   UNL     1       0.269  10.110  20.533  0.00  0.00    +0.000 N 
ATOM      4  C   UNL     1       0.062  10.646  19.179  0.00  0.00    +0.000 C 
ATOM      5  C   UNL     1       0.943   9.768  18.303  0.00  0.00    +0.000 C 
ENDROOT
BRANCH   1   9
ATOM      6  C   UNL     1       3.106   4.109  20.007  0.00  0.00    +0.000 C 
ATOM      7  C   UNL     1       3.135   5.405  19.248  0.00  0.00    +0.000 A 
ATOM      8  C   UNL     1       2.338   6.484  19.658  0.00  0.00    +0.000 A 
ATOM      9  C   UNL     1       2.327   7.673  18.922  0.00  0.00    +0.000 A 
ATOM     10  C   UNL     1       3.133   7.802  17.786  0.00  0.00    +0.000 A 
ATOM     11  C   UNL     1       3.950   6.744  17.387  0.00  0.00    +0.000 A 
ATOM     12  C   UNL     1       3.941   5.555  18.115  0.00  0.00    +0.000 A 
BRANCH  12  13
ATOM     13  O   UNL     1       4.724   4.505  17.729  0.00  0.00    +0.000 OA
ATOM     14  H   UNL     1       4.537   3.742  18.300  0.00  0.00    +0.000 HD
ENDBRANCH  12  13
ENDBRANCH   1   9
BRANCH   4  15
ATOM     15  C   UNL     1       0.443  12.115  19.040  0.00  0.00    +0.000 A 
ATOM     16  C   UNL     1      -0.498  13.099  18.689  0.00  0.00    +0.000 A 
ATOM     17  C   UNL     1      -0.116  14.436  18.548  0.00  0.00    +0.000 A 
ATOM     18  C   UNL     1       1.205  14.806  18.777  0.00  0.00    +0.000 A 
ATOM     19 CL   UNL     1       1.678  16.451  18.600  0.00  0.00    +0.000 Cl
ATOM     20  C   UNL     1       2.149  13.851  19.149  0.00  0.00    +0.000 A 
ATOM     21  C   UNL     1       1.770  12.511  19.281  0.00  0.00    +0.000 A 
ENDBRANCH   4  15
BRANCH   3  22
ATOM     22  C   UNL     1      -0.409  10.514  21.692  0.00  0.00    +0.000 C 
ATOM     23  S   UNL     1      -0.237   9.709  23.165  0.00  0.00    +0.000 S 
BRANCH  22  24
ATOM     24  N   UNL     1      -1.202  11.640  21.471  0.00  0.00    +0.000 N 
ATOM     25  H   UNL     1      -1.344  11.843  20.490  0.00  0.00    +0.000 HD
BRANCH  24  26
ATOM     26  C   UNL     1      -1.781  12.494  22.443  0.00  0.00    +0.000 A 
ATOM     27  C   UNL     1      -3.038  12.188  22.987  0.00  0.00    +0.000 A 
ATOM     28  C   UNL     1      -3.618  12.981  23.976  0.00  0.00    +0.000 A 
ATOM     29  C   UNL     1      -2.952  14.108  24.428  0.00  0.00    +0.000 A 
ATOM     30  C   UNL     1      -1.733  14.468  23.851  0.00  0.00    +0.000 A 
ATOM     31  C   UNL     1      -1.148  13.686  22.833  0.00  0.00    +0.000 A 
ATOM     32  C   UNL     1       0.155  14.152  22.243  0.00  0.00    +0.000 C 
ENDBRANCH  24  26
ENDBRANCH  22  24
ENDBRANCH   3  22
TORSDOF 6
ENDMDL
