MODEL 1
REMARK VINA RESULT:      -7.7      0.000      0.000
REMARK  Name = 
REMARK  4 active torsions:
REMARK  status: ('A' for Active; 'I' for Inactive)
REMARK    1  A    between atoms: C_1  and  C_2
REMARK    2  A    between atoms: C_2  and  C_3
REMARK    3  A    between atoms: C_2  and  S_11
REMARK    4  A    between atoms: S_11  and  C_14
REMARK                            x       y       z     vdW  Elec       q    Type
REMARK                         _______ _______ _______ _____ _____    ______ ____
ROOT
ATOM      1  C   UNL     1       2.304   3.319  19.064  0.00  0.00    +0.000 C 
ATOM      2  C   UNL     1       3.088   4.500  18.489  0.00  0.00    +0.000 C 
ENDROOT
BRANCH   2   3
ATOM      3  C   UNL     1       2.517   5.826  19.009  0.00  0.00    +0.000 A 
ATOM      4  C   UNL     1       2.482   7.008  18.238  0.00  0.00    +0.000 A 
ATOM      5  C   UNL     1       1.987   8.207  18.766  0.00  0.00    +0.000 A 
ATOM      6 CL   UNL     1       1.910   9.613  17.775  0.00  0.00    +0.000 Cl
ATOM      7  C   UNL     1       1.557   8.282  20.087  0.00  0.00    +0.000 A 
ATOM      8  C   UNL     1       1.614   7.143  20.882  0.00  0.00    +0.000 A 
ATOM      9  C   UNL     1       2.077   5.929  20.350  0.00  0.00    +0.000 A 
ATOM     10 CL   UNL     1       2.109   4.584  21.441  0.00  0.00    +0.000 Cl
ENDBRANCH   2   3
BRANCH   2  11
ATOM     11  S   UNL     1       4.853   4.300  18.819  0.00  0.00    +0.000 S 
ATOM     12  O   UNL     1       5.356   5.374  19.652  0.00  0.00    +0.000 OA
ATOM     13  O   UNL     1       5.073   2.923  19.240  0.00  0.00    +0.000 OA
BRANCH  11  14
ATOM     14  C   UNL     1       5.658   4.448  17.237  0.00  0.00    +0.000 A 
ATOM     15  C   UNL     1       4.868   4.534  16.071  0.00  0.00    +0.000 A 
ATOM     16  C   UNL     1       5.466   4.676  14.820  0.00  0.00    +0.000 A 
ATOM     17  C   UNL     1       6.849   4.731  14.722  0.00  0.00    +0.000 A 
ATOM     18  C   UNL     1       7.610   4.643  15.882  0.00  0.00    +0.000 A 
ATOM     19  N   UNL     1       7.032   4.507  17.143  0.00  0.00    +0.000 N 
ATOM     20  O   UNL     1       7.786   4.487  18.162  0.00  0.00    +0.000 OA
ENDBRANCH  11  14
ENDBRANCH   2  11
TORSDOF 3
ENDMDL
MODEL 2
REMARK VINA RESULT:      -7.4      2.979      5.985
REMARK  Name = 
REMARK  4 active torsions:
REMARK  status: ('A' for Active; 'I' for Inactive)
REMARK    1  A    between atoms: C_1  and  C_2
REMARK    2  A    between atoms: C_2  and  C_3
REMARK    3  A    between atoms: C_2  and  S_11
REMARK    4  A    between atoms: S_11  and  C_14
REMARK                            x       y       z     vdW  Elec       q    Type
REMARK                         _______ _______ _______ _____ _____    ______ ____
ROOT
ATOM      1  C   UNL     1       4.297   7.039  17.435  0.00  0.00    +0.000 C 
ATOM      2  C   UNL     1       4.337   5.532  17.177  0.00  0.00    +0.000 C 
ENDROOT
BRANCH   2   3
ATOM      3  C   UNL     1       5.317   5.208  16.040  0.00  0.00    +0.000 A 
ATOM      4  C   UNL     1       4.956   4.462  14.898  0.00  0.00    +0.000 A 
ATOM      5  C   UNL     1       5.893   4.157  13.902  0.00  0.00    +0.000 A 
ATOM      6 CL   UNL     1       5.401   3.291  12.498  0.00  0.00    +0.000 Cl
ATOM      7  C   UNL     1       7.223   4.541  14.032  0.00  0.00    +0.000 A 
ATOM      8  C   UNL     1       7.616   5.247  15.163  0.00  0.00    +0.000 A 
ATOM      9  C   UNL     1       6.676   5.586  16.150  0.00  0.00    +0.000 A 
ATOM     10 CL   UNL     1       7.288   6.457  17.516  0.00  0.00    +0.000 Cl
ENDBRANCH   2   3
BRANCH   2  11
ATOM     11  S   UNL     1       4.697   4.643  18.708  0.00  0.00    +0.000 S 
ATOM     12  O   UNL     1       5.606   3.539  18.473  0.00  0.00    +0.000 OA
ATOM     13  O   UNL     1       5.039   5.629  19.724  0.00  0.00    +0.000 OA
BRANCH  11  14
ATOM     14  C   UNL     1       3.147   3.939  19.231  0.00  0.00    +0.000 A 
ATOM     15  C   UNL     1       2.492   4.483  20.356  0.00  0.00    +0.000 A 
ATOM     16  C   UNL     1       1.265   3.972  20.776  0.00  0.00    +0.000 A 
ATOM     17  C   UNL     1       0.685   2.919  20.083  0.00  0.00    +0.000 A 
ATOM     18  C   UNL     1       1.347   2.396  18.977  0.00  0.00    +0.000 A 
ATOM     19  N   UNL     1       2.572   2.896  18.538  0.00  0.00    +0.000 N 
ATOM     20  O   UNL     1       3.091   2.405  17.492  0.00  0.00    +0.000 OA
ENDBRANCH  11  14
ENDBRANCH   2  11
TORSDOF 3
ENDMDL
MODEL 3
REMARK VINA RESULT:      -7.4      2.893      5.540
REMARK  Name = 
REMARK  4 active torsions:
REMARK  status: ('A' for Active; 'I' for Inactive)
REMARK    1  A    between atoms: C_1  and  C_2
REMARK    2  A    between atoms: C_2  and  C_3
REMARK    3  A    between atoms: C_2  and  S_11
REMARK    4  A    between atoms: S_11  and  C_14
REMARK                            x       y       z     vdW  Elec       q    Type
REMARK                         _______ _______ _______ _____ _____    ______ ____
ROOT
ATOM      1  C   UNL     1       2.881   6.192  19.029  0.00  0.00    +0.000 C 
ATOM      2  C   UNL     1       3.582   5.568  17.821  0.00  0.00    +0.000 C 
ENDROOT
BRANCH   2   3
ATOM      3  C   UNL     1       5.098   5.791  17.906  0.00  0.00    +0.000 A 
ATOM      4  C   UNL     1       5.855   5.525  19.066  0.00  0.00    +0.000 A 
ATOM      5  C   UNL     1       7.232   5.781  19.112  0.00  0.00    +0.000 A 
ATOM      6 CL   UNL     1       8.130   5.391  20.529  0.00  0.00    +0.000 Cl
ATOM      7  C   UNL     1       7.889   6.352  18.027  0.00  0.00    +0.000 A 
ATOM      8  C   UNL     1       7.162   6.658  16.882  0.00  0.00    +0.000 A 
ATOM      9  C   UNL     1       5.788   6.374  16.816  0.00  0.00    +0.000 A 
ATOM     10 CL   UNL     1       4.992   6.810  15.342  0.00  0.00    +0.000 Cl
ENDBRANCH   2   3
BRANCH   2  11
ATOM     11  S   UNL     1       3.122   3.828  17.661  0.00  0.00    +0.000 S 
ATOM     12  O   UNL     1       1.968   3.667  16.799  0.00  0.00    +0.000 OA
ATOM     13  O   UNL     1       4.333   3.074  17.362  0.00  0.00    +0.000 OA
BRANCH  11  14
ATOM     14  C   UNL     1       2.630   3.308  19.292  0.00  0.00    +0.000 A 
ATOM     15  C   UNL     1       1.271   3.399  19.660  0.00  0.00    +0.000 A 
ATOM     16  C   UNL     1       0.850   2.977  20.920  0.00  0.00    +0.000 A 
ATOM     17  C   UNL     1       1.774   2.465  21.818  0.00  0.00    +0.000 A 
ATOM     18  C   UNL     1       3.109   2.384  21.437  0.00  0.00    +0.000 A 
ATOM     19  N   UNL     1       3.550   2.796  20.181  0.00  0.00    +0.000 N 
ATOM     20  O   UNL     1       4.773   2.643  19.883  0.00  0.00    +0.000 OA
ENDBRANCH  11  14
ENDBRANCH   2  11
TORSDOF 3
ENDMDL
MODEL 4
REMARK VINA RESULT:      -7.3      1.179      1.397
REMARK  Name = 
REMARK  4 active torsions:
REMARK  status: ('A' for Active; 'I' for Inactive)
REMARK    1  A    between atoms: C_1  and  C_2
REMARK    2  A    between atoms: C_2  and  C_3
REMARK    3  A    between atoms: C_2  and  S_11
REMARK    4  A    between atoms: S_11  and  C_14
REMARK                            x       y       z     vdW  Elec       q    Type
REMARK                         _______ _______ _______ _____ _____    ______ ____
ROOT
ATOM      1  C   UNL     1       1.167   2.624  18.720  0.00  0.00    +0.000 C 
ATOM      2  C   UNL     1       2.263   3.551  18.193  0.00  0.00    +0.000 C 
ENDROOT
BRANCH   2   3
ATOM      3  C   UNL     1       2.129   4.948  18.815  0.00  0.00    +0.000 A 
ATOM      4  C   UNL     1       2.408   6.139  18.110  0.00  0.00    +0.000 A 
ATOM      5  C   UNL     1       2.309   7.391  18.729  0.00  0.00    +0.000 A 
ATOM      6 CL   UNL     1       2.605   8.823  17.819  0.00  0.00    +0.000 Cl
ATOM      7  C   UNL     1       1.977   7.498  20.075  0.00  0.00    +0.000 A 
ATOM      8  C   UNL     1       1.731   6.341  20.805  0.00  0.00    +0.000 A 
ATOM      9  C   UNL     1       1.795   5.083  20.184  0.00  0.00    +0.000 A 
ATOM     10 CL   UNL     1       1.478   3.717  21.199  0.00  0.00    +0.000 Cl
ENDBRANCH   2   3
BRANCH   2  11
ATOM     11  S   UNL     1       3.889   2.807  18.447  0.00  0.00    +0.000 S 
ATOM     12  O   UNL     1       4.298   2.898  19.834  0.00  0.00    +0.000 OA
ATOM     13  O   UNL     1       3.886   1.501  17.800  0.00  0.00    +0.000 OA
BRANCH  11  14
ATOM     14  C   UNL     1       5.026   3.801  17.503  0.00  0.00    +0.000 A 
ATOM     15  C   UNL     1       4.838   3.922  16.109  0.00  0.00    +0.000 A 
ATOM     16  C   UNL     1       5.695   4.713  15.346  0.00  0.00    +0.000 A 
ATOM     17  C   UNL     1       6.741   5.385  15.961  0.00  0.00    +0.000 A 
ATOM     18  C   UNL     1       6.910   5.252  17.335  0.00  0.00    +0.000 A 
ATOM     19  N   UNL     1       6.062   4.471  18.117  0.00  0.00    +0.000 N 
ATOM     20  O   UNL     1       6.244   4.439  19.371  0.00  0.00    +0.000 OA
ENDBRANCH  11  14
ENDBRANCH   2  11
TORSDOF 3
ENDMDL
MODEL 5
REMARK VINA RESULT:      -7.3      2.650      3.548
REMARK  Name = 
REMARK  4 active torsions:
REMARK  status: ('A' for Active; 'I' for Inactive)
REMARK    1  A    between atoms: C_1  and  C_2
REMARK    2  A    between atoms: C_2  and  C_3
REMARK    3  A    between atoms: C_2  and  S_11
REMARK    4  A    between atoms: S_11  and  C_14
REMARK                            x       y       z     vdW  Elec       q    Type
REMARK                         _______ _______ _______ _____ _____    ______ ____
ROOT
ATOM      1  C   UNL     1       6.639   4.540  18.144  0.00  0.00    +0.000 C 
ATOM      2  C   UNL     1       5.671   4.627  16.963  0.00  0.00    +0.000 C 
ENDROOT
BRANCH   2   3
ATOM      3  C   UNL     1       4.259   4.982  17.451  0.00  0.00    +0.000 A 
ATOM      4  C   UNL     1       3.852   6.301  17.743  0.00  0.00    +0.000 A 
ATOM      5  C   UNL     1       2.565   6.575  18.223  0.00  0.00    +0.000 A 
ATOM      6 CL   UNL     1       2.087   8.204  18.517  0.00  0.00    +0.000 Cl
ATOM      7  C   UNL     1       1.661   5.547  18.472  0.00  0.00    +0.000 A 
ATOM      8  C   UNL     1       2.047   4.234  18.227  0.00  0.00    +0.000 A 
ATOM      9  C   UNL     1       3.324   3.953  17.714  0.00  0.00    +0.000 A 
ATOM     10 CL   UNL     1       3.690   2.280  17.460  0.00  0.00    +0.000 Cl
ENDBRANCH   2   3
BRANCH   2  11
ATOM     11  S   UNL     1       6.307   5.769  15.715  0.00  0.00    +0.000 S 
ATOM     12  O   UNL     1       5.378   6.855  15.476  0.00  0.00    +0.000 OA
ATOM     13  O   UNL     1       7.685   6.088  16.066  0.00  0.00    +0.000 OA
BRANCH  11  14
ATOM     14  C   UNL     1       6.407   4.827  14.207  0.00  0.00    +0.000 A 
ATOM     15  C   UNL     1       5.367   3.926  13.891  0.00  0.00    +0.000 A 
ATOM     16  C   UNL     1       5.403   3.193  12.706  0.00  0.00    +0.000 A 
ATOM     17  C   UNL     1       6.469   3.350  11.832  0.00  0.00    +0.000 A 
ATOM     18  C   UNL     1       7.484   4.242  12.162  0.00  0.00    +0.000 A 
ATOM     19  N   UNL     1       7.465   4.988  13.339  0.00  0.00    +0.000 N 
ATOM     20  O   UNL     1       8.397   5.821  13.549  0.00  0.00    +0.000 OA
ENDBRANCH  11  14
ENDBRANCH   2  11
TORSDOF 3
ENDMDL
MODEL 6
REMARK VINA RESULT:      -7.2      3.165      5.979
REMARK  Name = 
REMARK  4 active torsions:
REMARK  status: ('A' for Active; 'I' for Inactive)
REMARK    1  A    between atoms: C_1  and  C_2
REMARK    2  A    between atoms: C_2  and  C_3
REMARK    3  A    between atoms: C_2  and  S_11
REMARK    4  A    between atoms: S_11  and  C_14
REMARK                            x       y       z     vdW  Elec       q    Type
REMARK                         _______ _______ _______ _____ _____    ______ ____
ROOT
ATOM      1  C   UNL     1       3.886   2.409  17.332  0.00  0.00    +0.000 C 
ATOM      2  C   UNL     1       4.946   3.478  17.600  0.00  0.00    +0.000 C 
ENDROOT
BRANCH   2   3
ATOM      3  C   UNL     1       5.591   3.936  16.284  0.00  0.00    +0.000 A 
ATOM      4  C   UNL     1       5.014   3.700  15.018  0.00  0.00    +0.000 A 
ATOM      5  C   UNL     1       5.656   4.102  13.840  0.00  0.00    +0.000 A 
ATOM      6 CL   UNL     1       4.894   3.844  12.317  0.00  0.00    +0.000 Cl
ATOM      7  C   UNL     1       6.909   4.706  13.879  0.00  0.00    +0.000 A 
ATOM      8  C   UNL     1       7.518   4.920  15.111  0.00  0.00    +0.000 A 
ATOM      9  C   UNL     1       6.866   4.550  16.298  0.00  0.00    +0.000 A 
ATOM     10 CL   UNL     1       7.730   4.858  17.767  0.00  0.00    +0.000 Cl
ENDBRANCH   2   3
BRANCH   2  11
ATOM     11  S   UNL     1       4.239   4.834  18.562  0.00  0.00    +0.000 S 
ATOM     12  O   UNL     1       5.249   5.486  19.372  0.00  0.00    +0.000 OA
ATOM     13  O   UNL     1       3.432   5.645  17.660  0.00  0.00    +0.000 OA
BRANCH  11  14
ATOM     14  C   UNL     1       3.082   4.076  19.683  0.00  0.00    +0.000 A 
ATOM     15  C   UNL     1       1.728   4.471  19.642  0.00  0.00    +0.000 A 
ATOM     16  C   UNL     1       0.793   3.879  20.489  0.00  0.00    +0.000 A 
ATOM     17  C   UNL     1       1.197   2.895  21.379  0.00  0.00    +0.000 A 
ATOM     18  C   UNL     1       2.536   2.520  21.405  0.00  0.00    +0.000 A 
ATOM     19  N   UNL     1       3.486   3.095  20.564  0.00  0.00    +0.000 N 
ATOM     20  O   UNL     1       4.678   2.667  20.605  0.00  0.00    +0.000 OA
ENDBRANCH  11  14
ENDBRANCH   2  11
TORSDOF 3
ENDMDL
MODEL 7
REMARK VINA RESULT:      -7.1      1.653      2.087
REMARK  Name = 
REMARK  4 active torsions:
REMARK  status: ('A' for Active; 'I' for Inactive)
REMARK    1  A    between atoms: C_1  and  C_2
REMARK    2  A    between atoms: C_2  and  C_3
REMARK    3  A    between atoms: C_2  and  S_11
REMARK    4  A    between atoms: S_11  and  C_14
REMARK                            x       y       z     vdW  Elec       q    Type
REMARK                         _______ _______ _______ _____ _____    ______ ____
ROOT
ATOM      1  C   UNL     1       1.208   2.786  18.583  0.00  0.00    +0.000 C 
ATOM      2  C   UNL     1       2.345   3.714  18.153  0.00  0.00    +0.000 C 
ENDROOT
BRANCH   2   3
ATOM      3  C   UNL     1       2.168   5.105  18.778  0.00  0.00    +0.000 A 
ATOM      4  C   UNL     1       2.404   6.305  18.074  0.00  0.00    +0.000 A 
ATOM      5  C   UNL     1       2.267   7.553  18.696  0.00  0.00    +0.000 A 
ATOM      6 CL   UNL     1       2.512   8.995  17.787  0.00  0.00    +0.000 Cl
ATOM      7  C   UNL     1       1.937   7.647  20.044  0.00  0.00    +0.000 A 
ATOM      8  C   UNL     1       1.733   6.480  20.772  0.00  0.00    +0.000 A 
ATOM      9  C   UNL     1       1.836   5.227  20.149  0.00  0.00    +0.000 A 
ATOM     10 CL   UNL     1       1.568   3.849  21.162  0.00  0.00    +0.000 Cl
ENDBRANCH   2   3
BRANCH   2  11
ATOM     11  S   UNL     1       3.944   2.960  18.525  0.00  0.00    +0.000 S 
ATOM     12  O   UNL     1       4.068   2.661  19.937  0.00  0.00    +0.000 OA
ATOM     13  O   UNL     1       4.167   1.892  17.559  0.00  0.00    +0.000 OA
BRANCH  11  14
ATOM     14  C   UNL     1       5.162   4.204  18.147  0.00  0.00    +0.000 A 
ATOM     15  C   UNL     1       5.909   4.774  19.200  0.00  0.00    +0.000 A 
ATOM     16  C   UNL     1       6.887   5.731  18.935  0.00  0.00    +0.000 A 
ATOM     17  C   UNL     1       7.126   6.127  17.627  0.00  0.00    +0.000 A 
ATOM     18  C   UNL     1       6.379   5.553  16.603  0.00  0.00    +0.000 A 
ATOM     19  N   UNL     1       5.401   4.591  16.846  0.00  0.00    +0.000 N 
ATOM     20  O   UNL     1       4.796   4.073  15.860  0.00  0.00    +0.000 OA
ENDBRANCH  11  14
ENDBRANCH   2  11
TORSDOF 3
ENDMDL
MODEL 8
REMARK VINA RESULT:      -7.0      3.022      5.652
REMARK  Name = 
REMARK  4 active torsions:
REMARK  status: ('A' for Active; 'I' for Inactive)
REMARK    1  A    between atoms: C_1  and  C_2
REMARK    2  A    between atoms: C_2  and  C_3
REMARK    3  A    between atoms: C_2  and  S_11
REMARK    4  A    between atoms: S_11  and  C_14
REMARK                            x       y       z     vdW  Elec       q    Type
REMARK                         _______ _______ _______ _____ _____    ______ ____
ROOT
ATOM      1  C   UNL     1       2.935   6.424  18.457  0.00  0.00    +0.000 C 
ATOM      2  C   UNL     1       3.396   5.418  17.402  0.00  0.00    +0.000 C 
ENDROOT
BRANCH   2   3
ATOM      3  C   UNL     1       4.907   5.168  17.523  0.00  0.00    +0.000 A 
ATOM      4  C   UNL     1       5.637   5.410  18.706  0.00  0.00    +0.000 A 
ATOM      5  C   UNL     1       7.022   5.205  18.760  0.00  0.00    +0.000 A 
ATOM      6 CL   UNL     1       7.869   5.459  20.238  0.00  0.00    +0.000 Cl
ATOM      7  C   UNL     1       7.729   4.801  17.633  0.00  0.00    +0.000 A 
ATOM      8  C   UNL     1       7.041   4.590  16.443  0.00  0.00    +0.000 A 
ATOM      9  C   UNL     1       5.649   4.760  16.389  0.00  0.00    +0.000 A 
ATOM     10 CL   UNL     1       4.908   4.477  14.850  0.00  0.00    +0.000 Cl
ENDBRANCH   2   3
BRANCH   2  11
ATOM     11  S   UNL     1       2.410   3.907  17.503  0.00  0.00    +0.000 S 
ATOM     12  O   UNL     1       1.039   4.148  17.101  0.00  0.00    +0.000 OA
ATOM     13  O   UNL     1       3.158   2.844  16.844  0.00  0.00    +0.000 OA
BRANCH  11  14
ATOM     14  C   UNL     1       2.379   3.468  19.228  0.00  0.00    +0.000 A 
ATOM     15  C   UNL     1       1.261   3.832  20.009  0.00  0.00    +0.000 A 
ATOM     16  C   UNL     1       1.195   3.481  21.356  0.00  0.00    +0.000 A 
ATOM     17  C   UNL     1       2.236   2.770  21.933  0.00  0.00    +0.000 A 
ATOM     18  C   UNL     1       3.329   2.420  21.148  0.00  0.00    +0.000 A 
ATOM     19  N   UNL     1       3.413   2.757  19.798  0.00  0.00    +0.000 N 
ATOM     20  O   UNL     1       4.415   2.359  19.131  0.00  0.00    +0.000 OA
ENDBRANCH  11  14
ENDBRANCH   2  11
TORSDOF 3
ENDMDL
MODEL 9
REMARK VINA RESULT:      -7.0      3.108      5.882
REMARK  Name = 
REMARK  4 active torsions:
REMARK  status: ('A' for Active; 'I' for Inactive)
REMARK    1  A    between atoms: C_1  and  C_2
REMARK    2  A    between atoms: C_2  and  C_3
REMARK    3  A    between atoms: C_2  and  S_11
REMARK    4  A    between atoms: S_11  and  C_14
REMARK                            x       y       z     vdW  Elec       q    Type
REMARK                         _______ _______ _______ _____ _____    ______ ____
ROOT
ATOM      1  C   UNL     1       4.620   7.124  17.423  0.00  0.00    +0.000 C 
ATOM      2  C   UNL     1       4.479   5.637  17.093  0.00  0.00    +0.000 C 
ENDROOT
BRANCH   2   3
ATOM      3  C   UNL     1       5.403   5.257  15.928  0.00  0.00    +0.000 A 
ATOM      4  C   UNL     1       4.970   4.517  14.807  0.00  0.00    +0.000 A 
ATOM      5  C   UNL     1       5.858   4.158  13.785  0.00  0.00    +0.000 A 
ATOM      6 CL   UNL     1       5.279   3.302  12.407  0.00  0.00    +0.000 Cl
ATOM      7  C   UNL     1       7.209   4.480  13.866  0.00  0.00    +0.000 A 
ATOM      8  C   UNL     1       7.672   5.178  14.976  0.00  0.00    +0.000 A 
ATOM      9  C   UNL     1       6.782   5.570  15.989  0.00  0.00    +0.000 A 
ATOM     10 CL   UNL     1       7.480   6.425  17.324  0.00  0.00    +0.000 Cl
ENDBRANCH   2   3
BRANCH   2  11
ATOM     11  S   UNL     1       4.744   4.639  18.575  0.00  0.00    +0.000 S 
ATOM     12  O   UNL     1       5.756   3.626  18.351  0.00  0.00    +0.000 OA
ATOM     13  O   UNL     1       4.900   5.550  19.702  0.00  0.00    +0.000 OA
BRANCH  11  14
ATOM     14  C   UNL     1       3.208   3.786  18.862  0.00  0.00    +0.000 A 
ATOM     15  C   UNL     1       2.092   4.091  18.054  0.00  0.00    +0.000 A 
ATOM     16  C   UNL     1       0.883   3.423  18.236  0.00  0.00    +0.000 A 
ATOM     17  C   UNL     1       0.775   2.452  19.220  0.00  0.00    +0.000 A 
ATOM     18  C   UNL     1       1.886   2.165  20.007  0.00  0.00    +0.000 A 
ATOM     19  N   UNL     1       3.105   2.818  19.838  0.00  0.00    +0.000 N 
ATOM     20  O   UNL     1       4.090   2.467  20.555  0.00  0.00    +0.000 OA
ENDBRANCH  11  14
ENDBRANCH   2  11
TORSDOF 3
ENDMDL
