MODEL 1
REMARK VINA RESULT:      -8.3      0.000      0.000
REMARK  Name = 
REMARK  8 active torsions:
REMARK  status: ('A' for Active; 'I' for Inactive)
REMARK    1  A    between atoms: C_1  and  C_2
REMARK    2  A    between atoms: C_2  and  C_3
REMARK    3  A    between atoms: C_5  and  C_6
REMARK    4  A    between atoms: C_6  and  N_7
REMARK    5  A    between atoms: C_8  and  C_10
REMARK    6  A    between atoms: C_10  and  C_11
REMARK    7  A    between atoms: C_11  and  C_12
REMARK    8  A    between atoms: C_19  and  C_20
REMARK                            x       y       z     vdW  Elec       q    Type
REMARK                         _______ _______ _______ _____ _____    ______ ____
ROOT
ATOM      1  N   UNL     1       5.860   5.483  17.016  0.00  0.00    +0.000 N 
ATOM      2  C   UNL     1       5.891   6.847  17.179  0.00  0.00    +0.000 C 
ATOM      3  O   UNL     1       6.883   7.533  16.939  0.00  0.00    +0.000 OA
ATOM      4  H   UNL     1       5.046   4.932  17.265  0.00  0.00    +0.000 HD
ENDROOT
BRANCH   1   5
ATOM      5  C   UNL     1       7.008   4.753  16.522  0.00  0.00    +0.000 C 
BRANCH   5   8
ATOM      6  C   UNL     1       6.402   3.801  13.141  0.00  0.00    +0.000 A 
ATOM      7  N   UNL     1       6.143   3.631  14.422  0.00  0.00    +0.000 NA
ATOM      8  C   UNL     1       6.929   4.589  15.038  0.00  0.00    +0.000 A 
ATOM      9  N   UNL     1       7.646   5.340  14.189  0.00  0.00    +0.000 NA
ATOM     10  N   UNL     1       7.296   4.827  13.002  0.00  0.00    +0.000 N 
ATOM     11  H   UNL     1       7.713   5.198  12.157  0.00  0.00    +0.000 HD
BRANCH   6  13
ATOM     12  C   UNL     1       4.447   3.404  11.677  0.00  0.00    +0.000 C 
ATOM     13  C   UNL     1       5.886   3.023  11.987  0.00  0.00    +0.000 C 
ENDBRANCH   6  13
ENDBRANCH   5   8
ENDBRANCH   1   5
BRANCH   2  14
ATOM     14  C   UNL     1       4.576   7.445  17.640  0.00  0.00    +0.000 C 
BRANCH  14  15
ATOM     15  C   UNL     1       3.393   6.503  17.406  0.00  0.00    +0.000 C 
BRANCH  15  16
ATOM     16  C   UNL     1       2.776   5.995  18.678  0.00  0.00    +0.000 A 
ATOM     17  C   UNL     1       2.481   6.836  19.738  0.00  0.00    +0.000 A 
ATOM     18  N   UNL     1       1.939   6.101  20.743  0.00  0.00    +0.000 N 
ATOM     19  C   UNL     1       1.863   4.776  20.380  0.00  0.00    +0.000 A 
ATOM     20  C   UNL     1       1.361   3.708  21.128  0.00  0.00    +0.000 A 
ATOM     21  C   UNL     1       1.395   2.443  20.563  0.00  0.00    +0.000 A 
ATOM     22  C   UNL     1       1.923   2.259  19.294  0.00  0.00    +0.000 A 
ATOM     23  C   UNL     1       2.443   3.338  18.524  0.00  0.00    +0.000 A 
ATOM     24  C   UNL     1       3.002   2.985  17.172  0.00  0.00    +0.000 C 
ATOM     25  C   UNL     1       2.395   4.652  19.088  0.00  0.00    +0.000 A 
ATOM     26  H   UNL     1       1.635   6.461  21.636  0.00  0.00    +0.000 HD
ENDBRANCH  15  16
ENDBRANCH  14  15
ENDBRANCH   2  14
TORSDOF 6
ENDMDL
MODEL 2
REMARK VINA RESULT:      -7.9      0.895      1.021
REMARK  Name = 
REMARK  8 active torsions:
REMARK  status: ('A' for Active; 'I' for Inactive)
REMARK    1  A    between atoms: C_1  and  C_2
REMARK    2  A    between atoms: C_2  and  C_3
REMARK    3  A    between atoms: C_5  and  C_6
REMARK    4  A    between atoms: C_6  and  N_7
REMARK    5  A    between atoms: C_8  and  C_10
REMARK    6  A    between atoms: C_10  and  C_11
REMARK    7  A    between atoms: C_11  and  C_12
REMARK    8  A    between atoms: C_19  and  C_20
REMARK                            x       y       z     vdW  Elec       q    Type
REMARK                         _______ _______ _______ _____ _____    ______ ____
ROOT
ATOM      1  N   UNL     1       6.259   6.082  16.066  0.00  0.00    +0.000 N 
ATOM      2  C   UNL     1       5.625   6.049  17.283  0.00  0.00    +0.000 C 
ATOM      3  O   UNL     1       5.785   5.147  18.105  0.00  0.00    +0.000 OA
ATOM      4  H   UNL     1       6.076   6.812  15.386  0.00  0.00    +0.000 HD
ENDROOT
BRANCH   1   5
ATOM      5  C   UNL     1       7.192   5.048  15.669  0.00  0.00    +0.000 C 
BRANCH   5   8
ATOM      6  C   UNL     1       6.196   3.566  12.585  0.00  0.00    +0.000 A 
ATOM      7  N   UNL     1       6.066   3.634  13.894  0.00  0.00    +0.000 NA
ATOM      8  C   UNL     1       6.951   4.636  14.252  0.00  0.00    +0.000 A 
ATOM      9  N   UNL     1       7.603   5.187  13.219  0.00  0.00    +0.000 NA
ATOM     10  N   UNL     1       7.111   4.499  12.181  0.00  0.00    +0.000 N 
ATOM     11  H   UNL     1       7.450   4.695  11.247  0.00  0.00    +0.000 HD
BRANCH   6  13
ATOM     12  C   UNL     1       6.482   1.525  11.213  0.00  0.00    +0.000 C 
ATOM     13  C   UNL     1       5.531   2.632  11.642  0.00  0.00    +0.000 C 
ENDBRANCH   6  13
ENDBRANCH   5   8
ENDBRANCH   1   5
BRANCH   2  14
ATOM     14  C   UNL     1       4.739   7.249  17.553  0.00  0.00    +0.000 C 
BRANCH  14  15
ATOM     15  C   UNL     1       3.251   6.919  17.414  0.00  0.00    +0.000 C 
BRANCH  15  16
ATOM     16  C   UNL     1       2.654   6.328  18.659  0.00  0.00    +0.000 A 
ATOM     17  C   UNL     1       2.349   7.102  19.767  0.00  0.00    +0.000 A 
ATOM     18  N   UNL     1       1.829   6.302  20.732  0.00  0.00    +0.000 N 
ATOM     19  C   UNL     1       1.778   4.998  20.295  0.00  0.00    +0.000 A 
ATOM     20  C   UNL     1       1.304   3.879  20.986  0.00  0.00    +0.000 A 
ATOM     21  C   UNL     1       1.359   2.649  20.350  0.00  0.00    +0.000 A 
ATOM     22  C   UNL     1       1.881   2.547  19.070  0.00  0.00    +0.000 A 
ATOM     23  C   UNL     1       2.374   3.678  18.359  0.00  0.00    +0.000 A 
ATOM     24  C   UNL     1       2.931   3.413  16.986  0.00  0.00    +0.000 C 
ATOM     25  C   UNL     1       2.304   4.957  18.996  0.00  0.00    +0.000 A 
ATOM     26  H   UNL     1       1.525   6.605  21.646  0.00  0.00    +0.000 HD
ENDBRANCH  15  16
ENDBRANCH  14  15
ENDBRANCH   2  14
TORSDOF 6
ENDMDL
MODEL 3
REMARK VINA RESULT:      -7.8      2.716      4.917
REMARK  Name = 
REMARK  8 active torsions:
REMARK  status: ('A' for Active; 'I' for Inactive)
REMARK    1  A    between atoms: C_1  and  C_2
REMARK    2  A    between atoms: C_2  and  C_3
REMARK    3  A    between atoms: C_5  and  C_6
REMARK    4  A    between atoms: C_6  and  N_7
REMARK    5  A    between atoms: C_8  and  C_10
REMARK    6  A    between atoms: C_10  and  C_11
REMARK    7  A    between atoms: C_11  and  C_12
REMARK    8  A    between atoms: C_19  and  C_20
REMARK                            x       y       z     vdW  Elec       q    Type
REMARK                         _______ _______ _______ _____ _____    ______ ____
ROOT
ATOM      1  N   UNL     1       6.603   5.069  17.824  0.00  0.00    +0.000 N 
ATOM      2  C   UNL     1       6.795   4.487  16.594  0.00  0.00    +0.000 C 
ATOM      3  O   UNL     1       7.894   4.409  16.047  0.00  0.00    +0.000 OA
ATOM      4  H   UNL     1       5.681   5.164  18.234  0.00  0.00    +0.000 HD
ENDROOT
BRANCH   1   5
ATOM      5  C   UNL     1       7.708   5.621  18.580  0.00  0.00    +0.000 C 
BRANCH   5   8
ATOM      6  C   UNL     1       8.542   9.083  18.427  0.00  0.00    +0.000 A 
ATOM      7  N   UNL     1       8.712   7.909  19.000  0.00  0.00    +0.000 NA
ATOM      8  C   UNL     1       7.888   7.072  18.268  0.00  0.00    +0.000 A 
ATOM      9  N   UNL     1       7.233   7.683  17.270  0.00  0.00    +0.000 NA
ATOM     10  N   UNL     1       7.662   8.947  17.389  0.00  0.00    +0.000 N 
ATOM     11  H   UNL     1       7.305   9.655  16.759  0.00  0.00    +0.000 HD
BRANCH   6  13
ATOM     12  C   UNL     1       8.717  11.481  17.839  0.00  0.00    +0.000 C 
ATOM     13  C   UNL     1       9.135  10.389  18.812  0.00  0.00    +0.000 C 
ENDBRANCH   6  13
ENDBRANCH   5   8
ENDBRANCH   1   5
BRANCH   2  14
ATOM     14  C   UNL     1       5.536   3.905  15.983  0.00  0.00    +0.000 C 
BRANCH  14  15
ATOM     15  C   UNL     1       4.263   4.493  16.596  0.00  0.00    +0.000 C 
BRANCH  15  16
ATOM     16  C   UNL     1       3.582   3.564  17.561  0.00  0.00    +0.000 A 
ATOM     17  C   UNL     1       3.639   2.187  17.419  0.00  0.00    +0.000 A 
ATOM     18  N   UNL     1       2.935   1.613  18.427  0.00  0.00    +0.000 N 
ATOM     19  C   UNL     1       2.401   2.579  19.249  0.00  0.00    +0.000 A 
ATOM     20  C   UNL     1       1.623   2.398  20.396  0.00  0.00    +0.000 A 
ATOM     21  C   UNL     1       1.180   3.525  21.068  0.00  0.00    +0.000 A 
ATOM     22  C   UNL     1       1.499   4.790  20.597  0.00  0.00    +0.000 A 
ATOM     23  C   UNL     1       2.285   4.988  19.427  0.00  0.00    +0.000 A 
ATOM     24  C   UNL     1       2.535   6.417  19.024  0.00  0.00    +0.000 C 
ATOM     25  C   UNL     1       2.767   3.832  18.736  0.00  0.00    +0.000 A 
ATOM     26  H   UNL     1       2.807   0.620  18.564  0.00  0.00    +0.000 HD
ENDBRANCH  15  16
ENDBRANCH  14  15
ENDBRANCH   2  14
TORSDOF 6
ENDMDL
MODEL 4
REMARK VINA RESULT:      -7.8      1.673      2.268
REMARK  Name = 
REMARK  8 active torsions:
REMARK  status: ('A' for Active; 'I' for Inactive)
REMARK    1  A    between atoms: C_1  and  C_2
REMARK    2  A    between atoms: C_2  and  C_3
REMARK    3  A    between atoms: C_5  and  C_6
REMARK    4  A    between atoms: C_6  and  N_7
REMARK    5  A    between atoms: C_8  and  C_10
REMARK    6  A    between atoms: C_10  and  C_11
REMARK    7  A    between atoms: C_11  and  C_12
REMARK    8  A    between atoms: C_19  and  C_20
REMARK                            x       y       z     vdW  Elec       q    Type
REMARK                         _______ _______ _______ _____ _____    ______ ____
ROOT
ATOM      1  N   UNL     1       6.112   4.580  14.766  0.00  0.00    +0.000 N 
ATOM      2  C   UNL     1       6.586   5.494  15.675  0.00  0.00    +0.000 C 
ATOM      3  O   UNL     1       7.699   6.013  15.595  0.00  0.00    +0.000 OA
ATOM      4  H   UNL     1       5.211   4.131  14.877  0.00  0.00    +0.000 HD
ENDROOT
BRANCH   1   5
ATOM      5  C   UNL     1       6.900   4.176  13.620  0.00  0.00    +0.000 C 
BRANCH   5   8
ATOM      6  C   UNL     1       4.374   3.088  11.353  0.00  0.00    +0.000 A 
ATOM      7  N   UNL     1       4.799   3.987  12.216  0.00  0.00    +0.000 NA
ATOM      8  C   UNL     1       6.038   3.504  12.599  0.00  0.00    +0.000 A 
ATOM      9  N   UNL     1       6.388   2.357  11.999  0.00  0.00    +0.000 NA
ATOM     10  N   UNL     1       5.326   2.116  11.219  0.00  0.00    +0.000 N 
ATOM     11  H   UNL     1       5.306   1.278  10.650  0.00  0.00    +0.000 HD
BRANCH   6  13
ATOM     12  C   UNL     1       2.969   4.175   9.629  0.00  0.00    +0.000 C 
ATOM     13  C   UNL     1       3.073   3.042  10.638  0.00  0.00    +0.000 C 
ENDBRANCH   6  13
ENDBRANCH   5   8
ENDBRANCH   1   5
BRANCH   2  14
ATOM     14  C   UNL     1       5.597   5.847  16.768  0.00  0.00    +0.000 C 
BRANCH  14  15
ATOM     15  C   UNL     1       5.269   4.653  17.666  0.00  0.00    +0.000 C 
BRANCH  15  16
ATOM     16  C   UNL     1       4.124   4.910  18.605  0.00  0.00    +0.000 A 
ATOM     17  C   UNL     1       3.898   6.158  19.162  0.00  0.00    +0.000 A 
ATOM     18  N   UNL     1       2.805   6.088  19.965  0.00  0.00    +0.000 N 
ATOM     19  C   UNL     1       2.289   4.812  19.960  0.00  0.00    +0.000 A 
ATOM     20  C   UNL     1       1.169   4.336  20.648  0.00  0.00    +0.000 A 
ATOM     21  C   UNL     1       0.836   2.999  20.505  0.00  0.00    +0.000 A 
ATOM     22  C   UNL     1       1.608   2.169  19.706  0.00  0.00    +0.000 A 
ATOM     23  C   UNL     1       2.754   2.640  19.006  0.00  0.00    +0.000 A 
ATOM     24  C   UNL     1       3.507   1.620  18.194  0.00  0.00    +0.000 C 
ATOM     25  C   UNL     1       3.097   4.023  19.129  0.00  0.00    +0.000 A 
ATOM     26  H   UNL     1       2.418   6.853  20.499  0.00  0.00    +0.000 HD
ENDBRANCH  15  16
ENDBRANCH  14  15
ENDBRANCH   2  14
TORSDOF 6
ENDMDL
MODEL 5
REMARK VINA RESULT:      -7.6      1.916      2.673
REMARK  Name = 
REMARK  8 active torsions:
REMARK  status: ('A' for Active; 'I' for Inactive)
REMARK    1  A    between atoms: C_1  and  C_2
REMARK    2  A    between atoms: C_2  and  C_3
REMARK    3  A    between atoms: C_5  and  C_6
REMARK    4  A    between atoms: C_6  and  N_7
REMARK    5  A    between atoms: C_8  and  C_10
REMARK    6  A    between atoms: C_10  and  C_11
REMARK    7  A    between atoms: C_11  and  C_12
REMARK    8  A    between atoms: C_19  and  C_20
REMARK                            x       y       z     vdW  Elec       q    Type
REMARK                         _______ _______ _______ _____ _____    ______ ____
ROOT
ATOM      1  N   UNL     1       5.709   4.919  14.954  0.00  0.00    +0.000 N 
ATOM      2  C   UNL     1       6.158   5.863  15.845  0.00  0.00    +0.000 C 
ATOM      3  O   UNL     1       7.351   6.078  16.057  0.00  0.00    +0.000 OA
ATOM      4  H   UNL     1       4.722   4.726  14.830  0.00  0.00    +0.000 HD
ENDROOT
BRANCH   1   5
ATOM      5  C   UNL     1       6.628   4.115  14.175  0.00  0.00    +0.000 C 
BRANCH   5   8
ATOM      6  C   UNL     1       4.441   3.162  11.528  0.00  0.00    +0.000 A 
ATOM      7  N   UNL     1       4.636   3.853  12.632  0.00  0.00    +0.000 NA
ATOM      8  C   UNL     1       5.954   3.581  12.952  0.00  0.00    +0.000 A 
ATOM      9  N   UNL     1       6.571   2.765  12.085  0.00  0.00    +0.000 NA
ATOM     10  N   UNL     1       5.600   2.516  11.198  0.00  0.00    +0.000 N 
ATOM     11  H   UNL     1       5.783   1.893  10.420  0.00  0.00    +0.000 HD
BRANCH   6  13
ATOM     12  C   UNL     1       3.129   4.060   9.629  0.00  0.00    +0.000 C 
ATOM     13  C   UNL     1       3.190   3.022  10.739  0.00  0.00    +0.000 C 
ENDBRANCH   6  13
ENDBRANCH   5   8
ENDBRANCH   1   5
BRANCH   2  14
ATOM     14  C   UNL     1       5.054   6.654  16.517  0.00  0.00    +0.000 C 
BRANCH  14  15
ATOM     15  C   UNL     1       5.023   6.442  18.032  0.00  0.00    +0.000 C 
BRANCH  15  16
ATOM     16  C   UNL     1       4.744   5.019  18.428  0.00  0.00    +0.000 A 
ATOM     17  C   UNL     1       5.753   4.154  18.819  0.00  0.00    +0.000 A 
ATOM     18  N   UNL     1       5.206   2.947  19.113  0.00  0.00    +0.000 N 
ATOM     19  C   UNL     1       3.843   2.981  18.926  0.00  0.00    +0.000 A 
ATOM     20  C   UNL     1       2.922   1.949  19.127  0.00  0.00    +0.000 A 
ATOM     21  C   UNL     1       1.587   2.206  18.862  0.00  0.00    +0.000 A 
ATOM     22  C   UNL     1       1.193   3.453  18.403  0.00  0.00    +0.000 A 
ATOM     23  C   UNL     1       2.122   4.511  18.188  0.00  0.00    +0.000 A 
ATOM     24  C   UNL     1       1.552   5.803  17.667  0.00  0.00    +0.000 C 
ATOM     25  C   UNL     1       3.500   4.265  18.477  0.00  0.00    +0.000 A 
ATOM     26  H   UNL     1       5.714   2.131  19.420  0.00  0.00    +0.000 HD
ENDBRANCH  15  16
ENDBRANCH  14  15
ENDBRANCH   2  14
TORSDOF 6
ENDMDL
MODEL 6
REMARK VINA RESULT:      -7.6      5.655      8.347
REMARK  Name = 
REMARK  8 active torsions:
REMARK  status: ('A' for Active; 'I' for Inactive)
REMARK    1  A    between atoms: C_1  and  C_2
REMARK    2  A    between atoms: C_2  and  C_3
REMARK    3  A    between atoms: C_5  and  C_6
REMARK    4  A    between atoms: C_6  and  N_7
REMARK    5  A    between atoms: C_8  and  C_10
REMARK    6  A    between atoms: C_10  and  C_11
REMARK    7  A    between atoms: C_11  and  C_12
REMARK    8  A    between atoms: C_19  and  C_20
REMARK                            x       y       z     vdW  Elec       q    Type
REMARK                         _______ _______ _______ _____ _____    ______ ____
ROOT
ATOM      1  N   UNL     1       6.700   7.689  17.231  0.00  0.00    +0.000 N 
ATOM      2  C   UNL     1       7.807   7.947  18.001  0.00  0.00    +0.000 C 
ATOM      3  O   UNL     1       8.344   7.103  18.717  0.00  0.00    +0.000 OA
ATOM      4  H   UNL     1       6.246   8.412  16.685  0.00  0.00    +0.000 HD
ENDROOT
BRANCH   1   5
ATOM      5  C   UNL     1       6.093   6.374  17.194  0.00  0.00    +0.000 C 
BRANCH   5   8
ATOM      6  C   UNL     1       6.165   4.471  14.181  0.00  0.00    +0.000 A 
ATOM      7  N   UNL     1       5.481   4.914  15.216  0.00  0.00    +0.000 NA
ATOM      8  C   UNL     1       6.401   5.688  15.901  0.00  0.00    +0.000 A 
ATOM      9  N   UNL     1       7.609   5.744  15.323  0.00  0.00    +0.000 NA
ATOM     10  N   UNL     1       7.436   4.972  14.242  0.00  0.00    +0.000 N 
ATOM     11  H   UNL     1       8.215   4.814  13.614  0.00  0.00    +0.000 HD
BRANCH   6  13
ATOM     12  C   UNL     1       6.697   3.548  11.947  0.00  0.00    +0.000 C 
ATOM     13  C   UNL     1       5.717   3.546  13.110  0.00  0.00    +0.000 C 
ENDBRANCH   6  13
ENDBRANCH   5   8
ENDBRANCH   1   5
BRANCH   2  14
ATOM     14  C   UNL     1       8.343   9.358  17.860  0.00  0.00    +0.000 C 
BRANCH  14  15
ATOM     15  C   UNL     1       9.059   9.840  19.124  0.00  0.00    +0.000 C 
BRANCH  15  16
ATOM     16  C   UNL     1       9.789  11.139  18.937  0.00  0.00    +0.000 A 
ATOM     17  C   UNL     1      10.492  11.427  17.778  0.00  0.00    +0.000 A 
ATOM     18  N   UNL     1      11.045  12.661  17.896  0.00  0.00    +0.000 N 
ATOM     19  C   UNL     1      10.728  13.213  19.116  0.00  0.00    +0.000 A 
ATOM     20  C   UNL     1      11.097  14.466  19.613  0.00  0.00    +0.000 A 
ATOM     21  C   UNL     1      10.671  14.814  20.885  0.00  0.00    +0.000 A 
ATOM     22  C   UNL     1       9.909  13.928  21.632  0.00  0.00    +0.000 A 
ATOM     23  C   UNL     1       9.532  12.647  21.140  0.00  0.00    +0.000 A 
ATOM     24  C   UNL     1       8.722  11.785  22.071  0.00  0.00    +0.000 C 
ATOM     25  C   UNL     1       9.949  12.284  19.820  0.00  0.00    +0.000 A 
ATOM     26  H   UNL     1      11.614  13.118  17.198  0.00  0.00    +0.000 HD
ENDBRANCH  15  16
ENDBRANCH  14  15
ENDBRANCH   2  14
TORSDOF 6
ENDMDL
MODEL 7
REMARK VINA RESULT:      -7.6      1.967      3.120
REMARK  Name = 
REMARK  8 active torsions:
REMARK  status: ('A' for Active; 'I' for Inactive)
REMARK    1  A    between atoms: C_1  and  C_2
REMARK    2  A    between atoms: C_2  and  C_3
REMARK    3  A    between atoms: C_5  and  C_6
REMARK    4  A    between atoms: C_6  and  N_7
REMARK    5  A    between atoms: C_8  and  C_10
REMARK    6  A    between atoms: C_10  and  C_11
REMARK    7  A    between atoms: C_11  and  C_12
REMARK    8  A    between atoms: C_19  and  C_20
REMARK                            x       y       z     vdW  Elec       q    Type
REMARK                         _______ _______ _______ _____ _____    ______ ____
ROOT
ATOM      1  N   UNL     1       6.376   3.945  14.781  0.00  0.00    +0.000 N 
ATOM      2  C   UNL     1       5.855   5.020  15.458  0.00  0.00    +0.000 C 
ATOM      3  O   UNL     1       5.824   6.160  14.994  0.00  0.00    +0.000 OA
ATOM      4  H   UNL     1       6.435   3.024  15.201  0.00  0.00    +0.000 HD
ENDROOT
BRANCH   1   5
ATOM      5  C   UNL     1       6.915   4.081  13.444  0.00  0.00    +0.000 C 
BRANCH   5   8
ATOM      6  C   UNL     1       4.384   2.992  11.182  0.00  0.00    +0.000 A 
ATOM      7  N   UNL     1       4.849   3.928  11.984  0.00  0.00    +0.000 NA
ATOM      8  C   UNL     1       6.036   3.390  12.450  0.00  0.00    +0.000 A 
ATOM      9  N   UNL     1       6.318   2.175  11.958  0.00  0.00    +0.000 NA
ATOM     10  N   UNL     1       5.266   1.947  11.162  0.00  0.00    +0.000 N 
ATOM     11  H   UNL     1       5.200   1.067  10.663  0.00  0.00    +0.000 HD
BRANCH   6  13
ATOM     12  C   UNL     1       2.925   4.273   9.647  0.00  0.00    +0.000 C 
ATOM     13  C   UNL     1       3.106   2.980  10.426  0.00  0.00    +0.000 C 
ENDBRANCH   6  13
ENDBRANCH   5   8
ENDBRANCH   1   5
BRANCH   2  14
ATOM     14  C   UNL     1       5.276   4.675  16.815  0.00  0.00    +0.000 C 
BRANCH  14  15
ATOM     15  C   UNL     1       3.766   4.435  16.762  0.00  0.00    +0.000 C 
BRANCH  15  16
ATOM     16  C   UNL     1       3.280   3.465  17.801  0.00  0.00    +0.000 A 
ATOM     17  C   UNL     1       3.228   2.101  17.566  0.00  0.00    +0.000 A 
ATOM     18  N   UNL     1       2.749   1.482  18.676  0.00  0.00    +0.000 N 
ATOM     19  C   UNL     1       2.475   2.407  19.658  0.00  0.00    +0.000 A 
ATOM     20  C   UNL     1       1.977   2.173  20.943  0.00  0.00    +0.000 A 
ATOM     21  C   UNL     1       1.764   3.265  21.768  0.00  0.00    +0.000 A 
ATOM     22  C   UNL     1       2.033   4.547  21.313  0.00  0.00    +0.000 A 
ATOM     23  C   UNL     1       2.533   4.799  20.005  0.00  0.00    +0.000 A 
ATOM     24  C   UNL     1       2.758   6.243  19.642  0.00  0.00    +0.000 C 
ATOM     25  C   UNL     1       2.777   3.679  19.150  0.00  0.00    +0.000 A 
ATOM     26  H   UNL     1       2.604   0.488  18.778  0.00  0.00    +0.000 HD
ENDBRANCH  15  16
ENDBRANCH  14  15
ENDBRANCH   2  14
TORSDOF 6
ENDMDL
MODEL 8
REMARK VINA RESULT:      -7.4      1.697      2.451
REMARK  Name = 
REMARK  8 active torsions:
REMARK  status: ('A' for Active; 'I' for Inactive)
REMARK    1  A    between atoms: C_1  and  C_2
REMARK    2  A    between atoms: C_2  and  C_3
REMARK    3  A    between atoms: C_5  and  C_6
REMARK    4  A    between atoms: C_6  and  N_7
REMARK    5  A    between atoms: C_8  and  C_10
REMARK    6  A    between atoms: C_10  and  C_11
REMARK    7  A    between atoms: C_11  and  C_12
REMARK    8  A    between atoms: C_19  and  C_20
REMARK                            x       y       z     vdW  Elec       q    Type
REMARK                         _______ _______ _______ _____ _____    ______ ____
ROOT
ATOM      1  N   UNL     1       6.788   4.270  15.349  0.00  0.00    +0.000 N 
ATOM      2  C   UNL     1       7.034   5.038  16.460  0.00  0.00    +0.000 C 
ATOM      3  O   UNL     1       7.437   6.200  16.403  0.00  0.00    +0.000 OA
ATOM      4  H   UNL     1       6.502   3.300  15.420  0.00  0.00    +0.000 HD
ENDROOT
BRANCH   1   5
ATOM      5  C   UNL     1       6.970   4.794  14.011  0.00  0.00    +0.000 C 
BRANCH   5   8
ATOM      6  C   UNL     1       4.711   3.186  11.772  0.00  0.00    +0.000 A 
ATOM      7  N   UNL     1       4.954   4.176  12.605  0.00  0.00    +0.000 NA
ATOM      8  C   UNL     1       6.257   3.942  13.010  0.00  0.00    +0.000 A 
ATOM      9  N   UNL     1       6.818   2.860  12.452  0.00  0.00    +0.000 NA
ATOM     10  N   UNL     1       5.827   2.402  11.676  0.00  0.00    +0.000 N 
ATOM     11  H   UNL     1       5.967   1.556  11.136  0.00  0.00    +0.000 HD
BRANCH   6  13
ATOM     12  C   UNL     1       3.192   3.892   9.949  0.00  0.00    +0.000 C 
ATOM     13  C   UNL     1       3.448   2.878  11.053  0.00  0.00    +0.000 C 
ENDBRANCH   6  13
ENDBRANCH   5   8
ENDBRANCH   1   5
BRANCH   2  14
ATOM     14  C   UNL     1       6.723   4.346  17.772  0.00  0.00    +0.000 C 
BRANCH  14  15
ATOM     15  C   UNL     1       5.887   5.220  18.709  0.00  0.00    +0.000 C 
BRANCH  15  16
ATOM     16  C   UNL     1       4.411   5.140  18.439  0.00  0.00    +0.000 A 
ATOM     17  C   UNL     1       3.720   6.171  17.823  0.00  0.00    +0.000 A 
ATOM     18  N   UNL     1       2.413   5.820  17.716  0.00  0.00    +0.000 N 
ATOM     19  C   UNL     1       2.208   4.568  18.250  0.00  0.00    +0.000 A 
ATOM     20  C   UNL     1       1.011   3.852  18.324  0.00  0.00    +0.000 A 
ATOM     21  C   UNL     1       1.035   2.601  18.919  0.00  0.00    +0.000 A 
ATOM     22  C   UNL     1       2.220   2.094  19.431  0.00  0.00    +0.000 A 
ATOM     23  C   UNL     1       3.445   2.817  19.367  0.00  0.00    +0.000 A 
ATOM     24  C   UNL     1       4.646   2.150  19.982  0.00  0.00    +0.000 C 
ATOM     25  C   UNL     1       3.437   4.100  18.737  0.00  0.00    +0.000 A 
ATOM     26  H   UNL     1       1.684   6.388  17.310  0.00  0.00    +0.000 HD
ENDBRANCH  15  16
ENDBRANCH  14  15
ENDBRANCH   2  14
TORSDOF 6
ENDMDL
MODEL 9
REMARK VINA RESULT:      -7.4      1.361      2.208
REMARK  Name = 
REMARK  8 active torsions:
REMARK  status: ('A' for Active; 'I' for Inactive)
REMARK    1  A    between atoms: C_1  and  C_2
REMARK    2  A    between atoms: C_2  and  C_3
REMARK    3  A    between atoms: C_5  and  C_6
REMARK    4  A    between atoms: C_6  and  N_7
REMARK    5  A    between atoms: C_8  and  C_10
REMARK    6  A    between atoms: C_10  and  C_11
REMARK    7  A    between atoms: C_11  and  C_12
REMARK    8  A    between atoms: C_19  and  C_20
REMARK                            x       y       z     vdW  Elec       q    Type
REMARK                         _______ _______ _______ _____ _____    ______ ____
ROOT
ATOM      1  N   UNL     1       6.243   5.767  16.137  0.00  0.00    +0.000 N 
ATOM      2  C   UNL     1       6.255   6.137  17.459  0.00  0.00    +0.000 C 
ATOM      3  O   UNL     1       7.262   6.088  18.165  0.00  0.00    +0.000 OA
ATOM      4  H   UNL     1       5.391   5.770  15.587  0.00  0.00    +0.000 HD
ENDROOT
BRANCH   1   5
ATOM      5  C   UNL     1       7.442   5.307  15.468  0.00  0.00    +0.000 C 
BRANCH   5   8
ATOM      6  C   UNL     1       6.250   3.577  12.589  0.00  0.00    +0.000 A 
ATOM      7  N   UNL     1       6.191   3.769  13.891  0.00  0.00    +0.000 NA
ATOM      8  C   UNL     1       7.117   4.773  14.110  0.00  0.00    +0.000 A 
ATOM      9  N   UNL     1       7.727   5.208  12.998  0.00  0.00    +0.000 NA
ATOM     10  N   UNL     1       7.164   4.442  12.054  0.00  0.00    +0.000 N 
ATOM     11  H   UNL     1       7.458   4.542  11.090  0.00  0.00    +0.000 HD
BRANCH   6  13
ATOM     12  C   UNL     1       6.470   1.577  11.148  0.00  0.00    +0.000 C 
ATOM     13  C   UNL     1       5.513   2.580  11.772  0.00  0.00    +0.000 C 
ENDBRANCH   6  13
ENDBRANCH   5   8
ENDBRANCH   1   5
BRANCH   2  14
ATOM     14  C   UNL     1       4.925   6.656  17.968  0.00  0.00    +0.000 C 
BRANCH  14  15
ATOM     15  C   UNL     1       3.740   6.105  17.172  0.00  0.00    +0.000 C 
BRANCH  15  16
ATOM     16  C   UNL     1       3.268   4.764  17.658  0.00  0.00    +0.000 A 
ATOM     17  C   UNL     1       3.472   3.605  16.929  0.00  0.00    +0.000 A 
ATOM     18  N   UNL     1       2.940   2.558  17.610  0.00  0.00    +0.000 N 
ATOM     19  C   UNL     1       2.377   2.992  18.789  0.00  0.00    +0.000 A 
ATOM     20  C   UNL     1       1.739   2.226  19.769  0.00  0.00    +0.000 A 
ATOM     21  C   UNL     1       1.233   2.880  20.880  0.00  0.00    +0.000 A 
ATOM     22  C   UNL     1       1.356   4.256  20.997  0.00  0.00    +0.000 A 
ATOM     23  C   UNL     1       1.998   5.048  20.003  0.00  0.00    +0.000 A 
ATOM     24  C   UNL     1       2.038   6.531  20.255  0.00  0.00    +0.000 C 
ATOM     25  C   UNL     1       2.543   4.382  18.861  0.00  0.00    +0.000 A 
ATOM     26  H   UNL     1       2.944   1.596  17.305  0.00  0.00    +0.000 HD
ENDBRANCH  15  16
ENDBRANCH  14  15
ENDBRANCH   2  14
TORSDOF 6
ENDMDL
