MODEL 1
REMARK VINA RESULT:      -7.3      0.000      0.000
REMARK  Name = 
REMARK  6 active torsions:
REMARK  status: ('A' for Active; 'I' for Inactive)
REMARK    1  A    between atoms: C_1  and  O_2
REMARK    2  A    between atoms: O_2  and  C_3
REMARK    3  A    between atoms: C_8  and  N_9
REMARK    4  A    between atoms: C_13  and  C_15
REMARK    5  A    between atoms: C_20  and  C_21
REMARK    6  A    between atoms: C_22  and  C_23
REMARK                            x       y       z     vdW  Elec       q    Type
REMARK                         _______ _______ _______ _____ _____    ______ ____
ROOT
ATOM      1  N   UNL     1       0.945   9.970  20.109  0.00  0.00    +0.000 N 
ATOM      2  C   UNL     1       1.276   9.242  21.347  0.00  0.00    +0.000 C 
ATOM      3  C   UNL     1       1.092   7.729  21.130  0.00  0.00    +0.000 C 
ATOM      4  N   UNL     1       1.817   7.247  19.949  0.00  0.00    +0.000 N 
ATOM      5  C   UNL     1       2.335   5.953  20.018  0.00  0.00    +0.000 C 
ATOM      6  O   UNL     1       2.201   5.237  21.011  0.00  0.00    +0.000 OA
ATOM      7  C   UNL     1       1.508   8.017  18.721  0.00  0.00    +0.000 C 
ATOM      8  C   UNL     1       1.721   9.531  18.938  0.00  0.00    +0.000 C 
ENDROOT
BRANCH   5   9
ATOM      9  C   UNL     1       3.101   5.384  18.877  0.00  0.00    +0.000 A 
ATOM     10  C   UNL     1       2.547   4.312  18.173  0.00  0.00    +0.000 A 
ATOM     11  C   UNL     1       3.213   3.739  17.084  0.00  0.00    +0.000 A 
ATOM     12  C   UNL     1       4.432   4.311  16.709  0.00  0.00    +0.000 A 
ATOM     13  N   UNL     1       5.279   4.001  15.675  0.00  0.00    +0.000 N 
ATOM     14  C   UNL     1       6.342   4.870  15.637  0.00  0.00    +0.000 A 
ATOM     15  C   UNL     1       7.361   4.772  14.561  0.00  0.00    +0.000 C 
ATOM     16  C   UNL     1       6.217   5.733  16.714  0.00  0.00    +0.000 A 
ATOM     17  C   UNL     1       7.093   6.874  17.098  0.00  0.00    +0.000 C 
ATOM     18  C   UNL     1       5.019   5.365  17.404  0.00  0.00    +0.000 A 
ATOM     19  C   UNL     1       4.374   5.862  18.551  0.00  0.00    +0.000 A 
ATOM     20  H   UNL     1       5.114   3.256  15.011  0.00  0.00    +0.000 HD
ENDBRANCH   5   9
BRANCH   1  26
ATOM     21  C   UNL     1      -1.063  11.285  19.495  0.00  0.00    +0.000 A 
ATOM     22  C   UNL     1      -1.780  12.492  19.596  0.00  0.00    +0.000 A 
ATOM     23  C   UNL     1      -1.287  13.559  20.341  0.00  0.00    +0.000 A 
ATOM     24  C   UNL     1      -0.059  13.443  20.969  0.00  0.00    +0.000 A 
ATOM     25  C   UNL     1       0.674  12.260  20.848  0.00  0.00    +0.000 A 
ATOM     26  C   UNL     1       0.205  11.145  20.122  0.00  0.00    +0.000 A 
BRANCH  21  28
ATOM     27  C   UNL     1      -1.869  10.391  17.435  0.00  0.00    +0.000 C 
ATOM     28  O   UNL     1      -1.565  10.199  18.811  0.00  0.00    +0.000 OA
ENDBRANCH  21  28
ENDBRANCH   1  26
TORSDOF 3
ENDMDL
MODEL 2
REMARK VINA RESULT:      -7.2      1.028      1.788
REMARK  Name = 
REMARK  6 active torsions:
REMARK  status: ('A' for Active; 'I' for Inactive)
REMARK    1  A    between atoms: C_1  and  O_2
REMARK    2  A    between atoms: O_2  and  C_3
REMARK    3  A    between atoms: C_8  and  N_9
REMARK    4  A    between atoms: C_13  and  C_15
REMARK    5  A    between atoms: C_20  and  C_21
REMARK    6  A    between atoms: C_22  and  C_23
REMARK                            x       y       z     vdW  Elec       q    Type
REMARK                         _______ _______ _______ _____ _____    ______ ____
ROOT
ATOM      1  N   UNL     1       0.866   9.963  20.126  0.00  0.00    +0.000 N 
ATOM      2  C   UNL     1       1.228   9.253  21.366  0.00  0.00    +0.000 C 
ATOM      3  C   UNL     1       1.067   7.736  21.165  0.00  0.00    +0.000 C 
ATOM      4  N   UNL     1       1.783   7.254  19.979  0.00  0.00    +0.000 N 
ATOM      5  C   UNL     1       2.324   5.970  20.052  0.00  0.00    +0.000 C 
ATOM      6  O   UNL     1       2.217   5.262  21.054  0.00  0.00    +0.000 OA
ATOM      7  C   UNL     1       1.443   8.007  18.749  0.00  0.00    +0.000 C 
ATOM      8  C   UNL     1       1.634   9.527  18.948  0.00  0.00    +0.000 C 
ENDROOT
BRANCH   5   9
ATOM      9  C   UNL     1       3.084   5.404  18.906  0.00  0.00    +0.000 A 
ATOM     10  C   UNL     1       2.514   4.349  18.187  0.00  0.00    +0.000 A 
ATOM     11  C   UNL     1       3.174   3.780  17.093  0.00  0.00    +0.000 A 
ATOM     12  C   UNL     1       4.402   4.337  16.728  0.00  0.00    +0.000 A 
ATOM     13  N   UNL     1       5.246   4.027  15.691  0.00  0.00    +0.000 N 
ATOM     14  C   UNL     1       6.323   4.879  15.666  0.00  0.00    +0.000 A 
ATOM     15  C   UNL     1       7.343   4.779  14.592  0.00  0.00    +0.000 C 
ATOM     16  C   UNL     1       6.209   5.731  16.754  0.00  0.00    +0.000 A 
ATOM     17  C   UNL     1       7.103   6.852  17.154  0.00  0.00    +0.000 C 
ATOM     18  C   UNL     1       5.004   5.372  17.436  0.00  0.00    +0.000 A 
ATOM     19  C   UNL     1       4.364   5.865  18.589  0.00  0.00    +0.000 A 
ATOM     20  H   UNL     1       5.071   3.293  15.017  0.00  0.00    +0.000 HD
ENDBRANCH   5   9
BRANCH   1  26
ATOM     21  C   UNL     1       0.603  12.387  20.563  0.00  0.00    +0.000 A 
ATOM     22  C   UNL     1      -0.211  13.534  20.499  0.00  0.00    +0.000 A 
ATOM     23  C   UNL     1      -1.502  13.469  19.984  0.00  0.00    +0.000 A 
ATOM     24  C   UNL     1      -2.005  12.253  19.556  0.00  0.00    +0.000 A 
ATOM     25  C   UNL     1      -1.215  11.104  19.646  0.00  0.00    +0.000 A 
ATOM     26  C   UNL     1       0.106  11.126  20.139  0.00  0.00    +0.000 A 
BRANCH  21  28
ATOM     27  C   UNL     1       2.663  13.590  20.638  0.00  0.00    +0.000 C 
ATOM     28  O   UNL     1       1.905  12.447  21.014  0.00  0.00    +0.000 OA
ENDBRANCH  21  28
ENDBRANCH   1  26
TORSDOF 3
ENDMDL
MODEL 3
REMARK VINA RESULT:      -7.2      1.630      2.857
REMARK  Name = 
REMARK  6 active torsions:
REMARK  status: ('A' for Active; 'I' for Inactive)
REMARK    1  A    between atoms: C_1  and  O_2
REMARK    2  A    between atoms: O_2  and  C_3
REMARK    3  A    between atoms: C_8  and  N_9
REMARK    4  A    between atoms: C_13  and  C_15
REMARK    5  A    between atoms: C_20  and  C_21
REMARK    6  A    between atoms: C_22  and  C_23
REMARK                            x       y       z     vdW  Elec       q    Type
REMARK                         _______ _______ _______ _____ _____    ______ ____
ROOT
ATOM      1  N   UNL     1       1.262   9.016  19.531  0.00  0.00    +0.000 N 
ATOM      2  C   UNL     1       1.617   8.066  20.600  0.00  0.00    +0.000 C 
ATOM      3  C   UNL     1       1.935   6.688  19.991  0.00  0.00    +0.000 C 
ATOM      4  N   UNL     1       2.934   6.773  18.920  0.00  0.00    +0.000 N 
ATOM      5  C   UNL     1       3.805   5.691  18.790  0.00  0.00    +0.000 C 
ATOM      6  O   UNL     1       3.755   4.706  19.527  0.00  0.00    +0.000 OA
ATOM      7  C   UNL     1       2.585   7.765  17.876  0.00  0.00    +0.000 C 
ATOM      8  C   UNL     1       2.295   9.151  18.491  0.00  0.00    +0.000 C 
ENDROOT
BRANCH   5   9
ATOM      9  C   UNL     1       4.864   5.696  17.745  0.00  0.00    +0.000 A 
ATOM     10  C   UNL     1       6.102   6.266  18.056  0.00  0.00    +0.000 A 
ATOM     11  C   UNL     1       7.141   6.294  17.120  0.00  0.00    +0.000 A 
ATOM     12  C   UNL     1       6.901   5.692  15.882  0.00  0.00    +0.000 A 
ATOM     13  N   UNL     1       7.728   5.526  14.799  0.00  0.00    +0.000 N 
ATOM     14  C   UNL     1       7.097   4.814  13.808  0.00  0.00    +0.000 A 
ATOM     15  C   UNL     1       7.817   4.453  12.560  0.00  0.00    +0.000 C 
ATOM     16  C   UNL     1       5.802   4.561  14.233  0.00  0.00    +0.000 A 
ATOM     17  C   UNL     1       4.728   3.799  13.538  0.00  0.00    +0.000 C 
ATOM     18  C   UNL     1       5.673   5.135  15.536  0.00  0.00    +0.000 A 
ATOM     19  C   UNL     1       4.615   5.204  16.461  0.00  0.00    +0.000 A 
ATOM     20  H   UNL     1       8.684   5.853  14.760  0.00  0.00    +0.000 HD
ENDBRANCH   5   9
BRANCH   1  26
ATOM     21  C   UNL     1      -0.117  10.576  20.874  0.00  0.00    +0.000 A 
ATOM     22  C   UNL     1      -1.171  11.508  20.917  0.00  0.00    +0.000 A 
ATOM     23  C   UNL     1      -1.894  11.827  19.772  0.00  0.00    +0.000 A 
ATOM     24  C   UNL     1      -1.592  11.197  18.577  0.00  0.00    +0.000 A 
ATOM     25  C   UNL     1      -0.569  10.247  18.532  0.00  0.00    +0.000 A 
ATOM     26  C   UNL     1       0.205   9.908  19.662  0.00  0.00    +0.000 A 
BRANCH  21  28
ATOM     27  C   UNL     1      -0.036   9.774  23.120  0.00  0.00    +0.000 C 
ATOM     28  O   UNL     1       0.648  10.294  21.986  0.00  0.00    +0.000 OA
ENDBRANCH  21  28
ENDBRANCH   1  26
TORSDOF 3
ENDMDL
MODEL 4
REMARK VINA RESULT:      -7.1      2.367      3.752
REMARK  Name = 
REMARK  6 active torsions:
REMARK  status: ('A' for Active; 'I' for Inactive)
REMARK    1  A    between atoms: C_1  and  O_2
REMARK    2  A    between atoms: O_2  and  C_3
REMARK    3  A    between atoms: C_8  and  N_9
REMARK    4  A    between atoms: C_13  and  C_15
REMARK    5  A    between atoms: C_20  and  C_21
REMARK    6  A    between atoms: C_22  and  C_23
REMARK                            x       y       z     vdW  Elec       q    Type
REMARK                         _______ _______ _______ _____ _____    ______ ____
ROOT
ATOM      1  N   UNL     1      -0.453  11.195  21.019  0.00  0.00    +0.000 N 
ATOM      2  C   UNL     1      -0.381  11.353  19.555  0.00  0.00    +0.000 C 
ATOM      3  C   UNL     1       0.958  10.801  19.035  0.00  0.00    +0.000 C 
ATOM      4  N   UNL     1       1.208   9.431  19.494  0.00  0.00    +0.000 N 
ATOM      5  C   UNL     1       1.903   8.594  18.619  0.00  0.00    +0.000 C 
ATOM      6  O   UNL     1       2.293   8.969  17.513  0.00  0.00    +0.000 OA
ATOM      7  C   UNL     1       1.088   9.278  20.963  0.00  0.00    +0.000 C 
ATOM      8  C   UNL     1      -0.269   9.808  21.475  0.00  0.00    +0.000 C 
ENDROOT
BRANCH   5   9
ATOM      9  C   UNL     1       2.186   7.181  18.990  0.00  0.00    +0.000 A 
ATOM     10  C   UNL     1       1.708   6.708  20.215  0.00  0.00    +0.000 A 
ATOM     11  C   UNL     1       1.933   5.387  20.617  0.00  0.00    +0.000 A 
ATOM     12  C   UNL     1       2.618   4.556  19.726  0.00  0.00    +0.000 A 
ATOM     13  N   UNL     1       2.943   3.226  19.821  0.00  0.00    +0.000 N 
ATOM     14  C   UNL     1       3.566   2.793  18.676  0.00  0.00    +0.000 A 
ATOM     15  C   UNL     1       3.955   1.368  18.520  0.00  0.00    +0.000 C 
ATOM     16  C   UNL     1       3.706   3.886  17.835  0.00  0.00    +0.000 A 
ATOM     17  C   UNL     1       4.287   3.937  16.465  0.00  0.00    +0.000 C 
ATOM     18  C   UNL     1       3.124   5.005  18.510  0.00  0.00    +0.000 A 
ATOM     19  C   UNL     1       2.966   6.361  18.170  0.00  0.00    +0.000 A 
ATOM     20  H   UNL     1       2.716   2.643  20.615  0.00  0.00    +0.000 HD
ENDBRANCH   5   9
BRANCH   1  26
ATOM     21  C   UNL     1      -0.214  13.364  22.193  0.00  0.00    +0.000 A 
ATOM     22  C   UNL     1      -0.800  14.364  22.991  0.00  0.00    +0.000 A 
ATOM     23  C   UNL     1      -2.119  14.256  23.422  0.00  0.00    +0.000 A 
ATOM     24  C   UNL     1      -2.857  13.134  23.087  0.00  0.00    +0.000 A 
ATOM     25  C   UNL     1      -2.272  12.122  22.322  0.00  0.00    +0.000 A 
ATOM     26  C   UNL     1      -0.947  12.198  21.843  0.00  0.00    +0.000 A 
BRANCH  21  28
ATOM     27  C   UNL     1       1.288  14.469  20.703  0.00  0.00    +0.000 C 
ATOM     28  O   UNL     1       1.071  13.485  21.707  0.00  0.00    +0.000 OA
ENDBRANCH  21  28
ENDBRANCH   1  26
TORSDOF 3
ENDMDL
MODEL 5
REMARK VINA RESULT:      -7.1      1.554      2.826
REMARK  Name = 
REMARK  6 active torsions:
REMARK  status: ('A' for Active; 'I' for Inactive)
REMARK    1  A    between atoms: C_1  and  O_2
REMARK    2  A    between atoms: O_2  and  C_3
REMARK    3  A    between atoms: C_8  and  N_9
REMARK    4  A    between atoms: C_13  and  C_15
REMARK    5  A    between atoms: C_20  and  C_21
REMARK    6  A    between atoms: C_22  and  C_23
REMARK                            x       y       z     vdW  Elec       q    Type
REMARK                         _______ _______ _______ _____ _____    ______ ____
ROOT
ATOM      1  N   UNL     1       1.193   9.290  19.214  0.00  0.00    +0.000 N 
ATOM      2  C   UNL     1       1.574   8.470  20.378  0.00  0.00    +0.000 C 
ATOM      3  C   UNL     1       1.923   7.043  19.921  0.00  0.00    +0.000 C 
ATOM      4  N   UNL     1       2.917   7.034  18.842  0.00  0.00    +0.000 N 
ATOM      5  C   UNL     1       3.813   5.964  18.826  0.00  0.00    +0.000 C 
ATOM      6  O   UNL     1       3.788   5.065  19.665  0.00  0.00    +0.000 OA
ATOM      7  C   UNL     1       2.542   7.898  17.698  0.00  0.00    +0.000 C 
ATOM      8  C   UNL     1       2.221   9.336  18.161  0.00  0.00    +0.000 C 
ENDROOT
BRANCH   5   9
ATOM      9  C   UNL     1       4.869   5.880  17.781  0.00  0.00    +0.000 A 
ATOM     10  C   UNL     1       6.133   6.405  18.070  0.00  0.00    +0.000 A 
ATOM     11  C   UNL     1       7.170   6.348  17.133  0.00  0.00    +0.000 A 
ATOM     12  C   UNL     1       6.900   5.711  15.919  0.00  0.00    +0.000 A 
ATOM     13  N   UNL     1       7.716   5.465  14.843  0.00  0.00    +0.000 N 
ATOM     14  C   UNL     1       7.051   4.746  13.880  0.00  0.00    +0.000 A 
ATOM     15  C   UNL     1       7.751   4.304  12.647  0.00  0.00    +0.000 C 
ATOM     16  C   UNL     1       5.746   4.569  14.315  0.00  0.00    +0.000 A 
ATOM     17  C   UNL     1       4.637   3.832  13.650  0.00  0.00    +0.000 C 
ATOM     18  C   UNL     1       5.647   5.199  15.595  0.00  0.00    +0.000 A 
ATOM     19  C   UNL     1       4.595   5.352  16.517  0.00  0.00    +0.000 A 
ATOM     20  H   UNL     1       8.686   5.746  14.791  0.00  0.00    +0.000 HD
ENDBRANCH   5   9
BRANCH   1  26
ATOM     21  C   UNL     1       0.117  11.383  19.986  0.00  0.00    +0.000 A 
ATOM     22  C   UNL     1      -0.993  12.248  19.936  0.00  0.00    +0.000 A 
ATOM     23  C   UNL     1      -2.095  11.954  19.138  0.00  0.00    +0.000 A 
ATOM     24  C   UNL     1      -2.114  10.780  18.407  0.00  0.00    +0.000 A 
ATOM     25  C   UNL     1      -1.031   9.900  18.477  0.00  0.00    +0.000 A 
ATOM     26  C   UNL     1       0.117  10.166  19.253  0.00  0.00    +0.000 A 
BRANCH  21  28
ATOM     27  C   UNL     1       1.764  13.004  20.580  0.00  0.00    +0.000 C 
ATOM     28  O   UNL     1       1.241  11.689  20.723  0.00  0.00    +0.000 OA
ENDBRANCH  21  28
ENDBRANCH   1  26
TORSDOF 3
ENDMDL
MODEL 6
REMARK VINA RESULT:      -6.8      2.154      8.628
REMARK  Name = 
REMARK  6 active torsions:
REMARK  status: ('A' for Active; 'I' for Inactive)
REMARK    1  A    between atoms: C_1  and  O_2
REMARK    2  A    between atoms: O_2  and  C_3
REMARK    3  A    between atoms: C_8  and  N_9
REMARK    4  A    between atoms: C_13  and  C_15
REMARK    5  A    between atoms: C_20  and  C_21
REMARK    6  A    between atoms: C_22  and  C_23
REMARK                            x       y       z     vdW  Elec       q    Type
REMARK                         _______ _______ _______ _____ _____    ______ ____
ROOT
ATOM      1  N   UNL     1       3.596   6.429  17.628  0.00  0.00    +0.000 N 
ATOM      2  C   UNL     1       2.760   5.835  18.687  0.00  0.00    +0.000 C 
ATOM      3  C   UNL     1       2.513   6.868  19.800  0.00  0.00    +0.000 C 
ATOM      4  N   UNL     1       1.988   8.133  19.275  0.00  0.00    +0.000 N 
ATOM      5  C   UNL     1       1.093   8.827  20.090  0.00  0.00    +0.000 C 
ATOM      6  O   UNL     1       0.748   8.414  21.198  0.00  0.00    +0.000 OA
ATOM      7  C   UNL     1       2.814   8.696  18.180  0.00  0.00    +0.000 C 
ATOM      8  C   UNL     1       3.035   7.663  17.054  0.00  0.00    +0.000 C 
ENDROOT
BRANCH   5   9
ATOM      9  C   UNL     1       0.494  10.110  19.634  0.00  0.00    +0.000 A 
ATOM     10  C   UNL     1      -0.746  10.071  18.989  0.00  0.00    +0.000 A 
ATOM     11  C   UNL     1      -1.366  11.244  18.544  0.00  0.00    +0.000 A 
ATOM     12  C   UNL     1      -0.714  12.451  18.810  0.00  0.00    +0.000 A 
ATOM     13  N   UNL     1      -1.091  13.743  18.540  0.00  0.00    +0.000 N 
ATOM     14  C   UNL     1      -0.172  14.633  19.039  0.00  0.00    +0.000 A 
ATOM     15  C   UNL     1      -0.397  16.097  18.925  0.00  0.00    +0.000 C 
ATOM     16  C   UNL     1       0.865  13.900  19.596  0.00  0.00    +0.000 A 
ATOM     17  C   UNL     1       2.085  14.394  20.291  0.00  0.00    +0.000 C 
ATOM     18  C   UNL     1       0.530  12.519  19.431  0.00  0.00    +0.000 A 
ATOM     19  C   UNL     1       1.176  11.320  19.784  0.00  0.00    +0.000 A 
ATOM     20  H   UNL     1      -1.950  13.997  18.072  0.00  0.00    +0.000 HD
ENDBRANCH   5   9
BRANCH   1  26
ATOM     21  C   UNL     1       5.969   6.218  16.949  0.00  0.00    +0.000 A 
ATOM     22  C   UNL     1       6.985   5.429  16.378  0.00  0.00    +0.000 A 
ATOM     23  C   UNL     1       6.721   4.142  15.920  0.00  0.00    +0.000 A 
ATOM     24  C   UNL     1       5.434   3.639  16.000  0.00  0.00    +0.000 A 
ATOM     25  C   UNL     1       4.413   4.428  16.536  0.00  0.00    +0.000 A 
ATOM     26  C   UNL     1       4.638   5.729  17.033  0.00  0.00    +0.000 A 
BRANCH  21  28
ATOM     27  C   UNL     1       7.594   7.850  17.576  0.00  0.00    +0.000 C 
ATOM     28  O   UNL     1       6.227   7.471  17.462  0.00  0.00    +0.000 OA
ENDBRANCH  21  28
ENDBRANCH   1  26
TORSDOF 3
ENDMDL
MODEL 7
REMARK VINA RESULT:      -6.8      2.878      5.036
REMARK  Name = 
REMARK  6 active torsions:
REMARK  status: ('A' for Active; 'I' for Inactive)
REMARK    1  A    between atoms: C_1  and  O_2
REMARK    2  A    between atoms: O_2  and  C_3
REMARK    3  A    between atoms: C_8  and  N_9
REMARK    4  A    between atoms: C_13  and  C_15
REMARK    5  A    between atoms: C_20  and  C_21
REMARK    6  A    between atoms: C_22  and  C_23
REMARK                            x       y       z     vdW  Elec       q    Type
REMARK                         _______ _______ _______ _____ _____    ______ ____
ROOT
ATOM      1  N   UNL     1      -3.185  11.708  18.806  0.00  0.00    +0.000 N 
ATOM      2  C   UNL     1      -2.264  12.583  19.552  0.00  0.00    +0.000 C 
ATOM      3  C   UNL     1      -1.373  11.736  20.478  0.00  0.00    +0.000 C 
ATOM      4  N   UNL     1      -0.701  10.649  19.758  0.00  0.00    +0.000 N 
ATOM      5  C   UNL     1       0.573  10.296  20.204  0.00  0.00    +0.000 C 
ATOM      6  O   UNL     1       1.123  10.858  21.151  0.00  0.00    +0.000 OA
ATOM      7  C   UNL     1      -1.635   9.805  18.976  0.00  0.00    +0.000 C 
ATOM      8  C   UNL     1      -2.506  10.659  18.029  0.00  0.00    +0.000 C 
ENDROOT
BRANCH   5   9
ATOM      9  C   UNL     1       1.340   9.218  19.524  0.00  0.00    +0.000 A 
ATOM     10  C   UNL     1       1.922   9.498  18.284  0.00  0.00    +0.000 A 
ATOM     11  C   UNL     1       2.662   8.529  17.598  0.00  0.00    +0.000 A 
ATOM     12  C   UNL     1       2.828   7.290  18.224  0.00  0.00    +0.000 A 
ATOM     13  N   UNL     1       3.527   6.179  17.824  0.00  0.00    +0.000 N 
ATOM     14  C   UNL     1       3.475   5.199  18.785  0.00  0.00    +0.000 A 
ATOM     15  C   UNL     1       4.214   3.923  18.604  0.00  0.00    +0.000 C 
ATOM     16  C   UNL     1       2.669   5.661  19.813  0.00  0.00    +0.000 A 
ATOM     17  C   UNL     1       2.322   4.990  21.096  0.00  0.00    +0.000 C 
ATOM     18  C   UNL     1       2.243   6.976  19.447  0.00  0.00    +0.000 A 
ATOM     19  C   UNL     1       1.425   7.936  20.072  0.00  0.00    +0.000 A 
ATOM     20  H   UNL     1       4.041   6.115  16.956  0.00  0.00    +0.000 HD
ENDBRANCH   5   9
BRANCH   1  26
ATOM     21  C   UNL     1      -5.413  12.352  19.677  0.00  0.00    +0.000 A 
ATOM     22  C   UNL     1      -6.742  12.728  19.405  0.00  0.00    +0.000 A 
ATOM     23  C   UNL     1      -7.202  12.841  18.097  0.00  0.00    +0.000 A 
ATOM     24  C   UNL     1      -6.349  12.550  17.047  0.00  0.00    +0.000 A 
ATOM     25  C   UNL     1      -5.038  12.144  17.308  0.00  0.00    +0.000 A 
ATOM     26  C   UNL     1      -4.521  12.038  18.617  0.00  0.00    +0.000 A 
BRANCH  21  28
ATOM     27  C   UNL     1      -5.459  13.229  21.897  0.00  0.00    +0.000 C 
ATOM     28  O   UNL     1      -4.925  12.294  20.965  0.00  0.00    +0.000 OA
ENDBRANCH  21  28
ENDBRANCH   1  26
TORSDOF 3
ENDMDL
MODEL 8
REMARK VINA RESULT:      -6.8      1.918      8.574
REMARK  Name = 
REMARK  6 active torsions:
REMARK  status: ('A' for Active; 'I' for Inactive)
REMARK    1  A    between atoms: C_1  and  O_2
REMARK    2  A    between atoms: O_2  and  C_3
REMARK    3  A    between atoms: C_8  and  N_9
REMARK    4  A    between atoms: C_13  and  C_15
REMARK    5  A    between atoms: C_20  and  C_21
REMARK    6  A    between atoms: C_22  and  C_23
REMARK                            x       y       z     vdW  Elec       q    Type
REMARK                         _______ _______ _______ _____ _____    ______ ____
ROOT
ATOM      1  N   UNL     1       3.296   6.413  18.031  0.00  0.00    +0.000 N 
ATOM      2  C   UNL     1       2.474   5.879  19.131  0.00  0.00    +0.000 C 
ATOM      3  C   UNL     1       2.281   6.957  20.212  0.00  0.00    +0.000 C 
ATOM      4  N   UNL     1       1.776   8.216  19.654  0.00  0.00    +0.000 N 
ATOM      5  C   UNL     1       0.920   8.962  20.466  0.00  0.00    +0.000 C 
ATOM      6  O   UNL     1       0.594   8.598  21.596  0.00  0.00    +0.000 OA
ATOM      7  C   UNL     1       2.586   8.718  18.520  0.00  0.00    +0.000 C 
ATOM      8  C   UNL     1       2.752   7.640  17.426  0.00  0.00    +0.000 C 
ENDROOT
BRANCH   5   9
ATOM      9  C   UNL     1       0.342  10.243  19.979  0.00  0.00    +0.000 A 
ATOM     10  C   UNL     1      -0.837  10.197  19.229  0.00  0.00    +0.000 A 
ATOM     11  C   UNL     1      -1.435  11.367  18.750  0.00  0.00    +0.000 A 
ATOM     12  C   UNL     1      -0.827  12.579  19.088  0.00  0.00    +0.000 A 
ATOM     13  N   UNL     1      -1.201  13.870  18.806  0.00  0.00    +0.000 N 
ATOM     14  C   UNL     1      -0.341  14.765  19.394  0.00  0.00    +0.000 A 
ATOM     15  C   UNL     1      -0.579  16.227  19.283  0.00  0.00    +0.000 C 
ATOM     16  C   UNL     1       0.655  14.038  20.027  0.00  0.00    +0.000 A 
ATOM     17  C   UNL     1       1.803  14.539  20.832  0.00  0.00    +0.000 C 
ATOM     18  C   UNL     1       0.357  12.656  19.814  0.00  0.00    +0.000 A 
ATOM     19  C   UNL     1       0.990  11.461  20.204  0.00  0.00    +0.000 A 
ATOM     20  H   UNL     1      -2.021  14.118  18.270  0.00  0.00    +0.000 HD
ENDBRANCH   5   9
BRANCH   1  26
ATOM     21  C   UNL     1       4.114   4.353  16.924  0.00  0.00    +0.000 A 
ATOM     22  C   UNL     1       5.169   3.675  16.286  0.00  0.00    +0.000 A 
ATOM     23  C   UNL     1       6.407   4.285  16.105  0.00  0.00    +0.000 A 
ATOM     24  C   UNL     1       6.614   5.566  16.585  0.00  0.00    +0.000 A 
ATOM     25  C   UNL     1       5.581   6.233  17.249  0.00  0.00    +0.000 A 
ATOM     26  C   UNL     1       4.304   5.665  17.436  0.00  0.00    +0.000 A 
BRANCH  21  28
ATOM     27  C   UNL     1       2.801   2.511  17.686  0.00  0.00    +0.000 C 
ATOM     28  O   UNL     1       2.864   3.786  17.057  0.00  0.00    +0.000 OA
ENDBRANCH  21  28
ENDBRANCH   1  26
TORSDOF 3
ENDMDL
MODEL 9
REMARK VINA RESULT:      -6.8      1.447      1.902
REMARK  Name = 
REMARK  6 active torsions:
REMARK  status: ('A' for Active; 'I' for Inactive)
REMARK    1  A    between atoms: C_1  and  O_2
REMARK    2  A    between atoms: O_2  and  C_3
REMARK    3  A    between atoms: C_8  and  N_9
REMARK    4  A    between atoms: C_13  and  C_15
REMARK    5  A    between atoms: C_20  and  C_21
REMARK    6  A    between atoms: C_22  and  C_23
REMARK                            x       y       z     vdW  Elec       q    Type
REMARK                         _______ _______ _______ _____ _____    ______ ____
ROOT
ATOM      1  N   UNL     1       1.036   9.729  19.631  0.00  0.00    +0.000 N 
ATOM      2  C   UNL     1       1.322   9.189  20.972  0.00  0.00    +0.000 C 
ATOM      3  C   UNL     1       1.162   7.658  20.965  0.00  0.00    +0.000 C 
ATOM      4  N   UNL     1       1.940   7.025  19.895  0.00  0.00    +0.000 N 
ATOM      5  C   UNL     1       2.468   5.762  20.167  0.00  0.00    +0.000 C 
ATOM      6  O   UNL     1       2.299   5.192  21.245  0.00  0.00    +0.000 OA
ATOM      7  C   UNL     1       1.676   7.609  18.559  0.00  0.00    +0.000 C 
ATOM      8  C   UNL     1       1.866   9.142  18.567  0.00  0.00    +0.000 C 
ENDROOT
BRANCH   5   9
ATOM      9  C   UNL     1       3.287   5.050  19.150  0.00  0.00    +0.000 A 
ATOM     10  C   UNL     1       3.451   3.668  19.278  0.00  0.00    +0.000 A 
ATOM     11  C   UNL     1       4.202   2.940  18.350  0.00  0.00    +0.000 A 
ATOM     12  C   UNL     1       4.743   3.646  17.271  0.00  0.00    +0.000 A 
ATOM     13  N   UNL     1       5.475   3.205  16.197  0.00  0.00    +0.000 N 
ATOM     14  C   UNL     1       5.747   4.239  15.335  0.00  0.00    +0.000 A 
ATOM     15  C   UNL     1       6.475   3.993  14.064  0.00  0.00    +0.000 C 
ATOM     16  C   UNL     1       5.231   5.398  15.894  0.00  0.00    +0.000 A 
ATOM     17  C   UNL     1       5.237   6.780  15.339  0.00  0.00    +0.000 C 
ATOM     18  C   UNL     1       4.615   5.024  17.129  0.00  0.00    +0.000 A 
ATOM     19  C   UNL     1       3.934   5.747  18.126  0.00  0.00    +0.000 A 
ATOM     20  H   UNL     1       5.739   2.241  16.049  0.00  0.00    +0.000 HD
ENDBRANCH   5   9
BRANCH   1  26
ATOM     21  C   UNL     1       0.852  12.159  19.186  0.00  0.00    +0.000 A 
ATOM     22  C   UNL     1       0.025  13.275  18.959  0.00  0.00    +0.000 A 
ATOM     23  C   UNL     1      -1.361  13.149  18.945  0.00  0.00    +0.000 A 
ATOM     24  C   UNL     1      -1.937  11.915  19.187  0.00  0.00    +0.000 A 
ATOM     25  C   UNL     1      -1.124  10.809  19.446  0.00  0.00    +0.000 A 
ATOM     26  C   UNL     1       0.285  10.883  19.448  0.00  0.00    +0.000 A 
BRANCH  21  28
ATOM     27  C   UNL     1       2.773  13.289  18.333  0.00  0.00    +0.000 C 
ATOM     28  O   UNL     1       2.226  12.256  19.144  0.00  0.00    +0.000 OA
ENDBRANCH  21  28
ENDBRANCH   1  26
TORSDOF 3
ENDMDL
