MODEL 1
REMARK VINA RESULT:      -8.0      0.000      0.000
REMARK  Name = 
REMARK  7 active torsions:
REMARK  status: ('A' for Active; 'I' for Inactive)
REMARK    1  A    between atoms: C_1  and  N_2
REMARK    2  A    between atoms: C_3  and  C_5
REMARK    3  A    between atoms: C_10  and  O_11
REMARK    4  A    between atoms: O_11  and  C_12
REMARK    5  A    between atoms: N_15  and  C_16
REMARK    6  A    between atoms: C_20  and  O_21
REMARK    7  A    between atoms: O_21  and  C_22
REMARK                            x       y       z     vdW  Elec       q    Type
REMARK                         _______ _______ _______ _____ _____    ______ ____
ROOT
ATOM      1  C   UNL     1       4.292   4.466  18.832  0.00  0.00    +0.000 A 
ATOM      2  N   UNL     1       4.131   5.749  19.227  0.00  0.00    +0.000 NA
ATOM      3  C   UNL     1       2.944   6.086  19.743  0.00  0.00    +0.000 A 
ATOM      4  N   UNL     1       2.819   7.380  20.241  0.00  0.00    +0.000 N 
ATOM      5  N   UNL     1       1.921   5.224  19.854  0.00  0.00    +0.000 NA
ATOM      6  C   UNL     1       2.112   3.960  19.428  0.00  0.00    +0.000 A 
ATOM      7  C   UNL     1       3.295   3.520  18.891  0.00  0.00    +0.000 A 
ATOM      8 BR   UNL     1       3.492   1.727  18.350  0.00  0.00    +0.000 Br
ATOM      9  H   UNL     1       3.694   7.879  20.158  0.00  0.00    +0.000 HD
ENDROOT
BRANCH   4  10
ATOM     10  C   UNL     1       1.670   8.187  20.249  0.00  0.00    +0.000 A 
ATOM     11  C   UNL     1       0.889   8.353  21.401  0.00  0.00    +0.000 A 
ATOM     12  C   UNL     1      -0.220   9.194  21.399  0.00  0.00    +0.000 A 
ATOM     13  C   UNL     1      -0.556   9.892  20.245  0.00  0.00    +0.000 A 
ATOM     14  C   UNL     1       0.206   9.746  19.084  0.00  0.00    +0.000 A 
ATOM     15  C   UNL     1       1.307   8.885  19.087  0.00  0.00    +0.000 A 
BRANCH  14  16
ATOM     16  O   UNL     1      -0.223  10.502  18.026  0.00  0.00    +0.000 OA
ATOM     17  C   UNL     1      -1.487  10.165  17.469  0.00  0.00    +0.000 C 
ENDBRANCH  14  16
ENDBRANCH   4  10
BRANCH   1  18
ATOM     18  O   UNL     1       5.551   4.092  18.353  0.00  0.00    +0.000 OA
BRANCH  18  24
ATOM     19  C   UNL     1       6.689   5.437  16.681  0.00  0.00    +0.000 A 
ATOM     20  C   UNL     1       6.959   5.665  15.315  0.00  0.00    +0.000 A 
ATOM     21  C   UNL     1       6.404   4.870  14.314  0.00  0.00    +0.000 A 
ATOM     22  C   UNL     1       5.534   3.848  14.653  0.00  0.00    +0.000 A 
ATOM     23  C   UNL     1       5.227   3.623  15.993  0.00  0.00    +0.000 A 
ATOM     24  C   UNL     1       5.833   4.373  17.027  0.00  0.00    +0.000 A 
BRANCH  19  27
ATOM     25  C   UNL     1       8.198   8.625  18.144  0.00  0.00    +0.000 C 
ATOM     26  N   UNL     1       7.573   7.695  17.230  0.00  0.00    +0.000 N 
ATOM     27  C   UNL     1       7.368   6.393  17.619  0.00  0.00    +0.000 C 
ATOM     28  O   UNL     1       7.739   5.995  18.724  0.00  0.00    +0.000 OA
ATOM     29  H   UNL     1       7.209   8.028  16.348  0.00  0.00    +0.000 HD
ENDBRANCH  19  27
ENDBRANCH  18  24
ENDBRANCH   1  18
TORSDOF 5
ENDMDL
MODEL 2
REMARK VINA RESULT:      -7.9      1.426      1.988
REMARK  Name = 
REMARK  7 active torsions:
REMARK  status: ('A' for Active; 'I' for Inactive)
REMARK    1  A    between atoms: C_1  and  N_2
REMARK    2  A    between atoms: C_3  and  C_5
REMARK    3  A    between atoms: C_10  and  O_11
REMARK    4  A    between atoms: O_11  and  C_12
REMARK    5  A    between atoms: N_15  and  C_16
REMARK    6  A    between atoms: C_20  and  O_21
REMARK    7  A    between atoms: O_21  and  C_22
REMARK                            x       y       z     vdW  Elec       q    Type
REMARK                         _______ _______ _______ _____ _____    ______ ____
ROOT
ATOM      1  C   UNL     1       3.858   4.330  18.755  0.00  0.00    +0.000 A 
ATOM      2  N   UNL     1       3.852   5.596  19.230  0.00  0.00    +0.000 NA
ATOM      3  C   UNL     1       2.699   6.060  19.723  0.00  0.00    +0.000 A 
ATOM      4  N   UNL     1       2.726   7.324  20.303  0.00  0.00    +0.000 N 
ATOM      5  N   UNL     1       1.566   5.340  19.738  0.00  0.00    +0.000 NA
ATOM      6  C   UNL     1       1.605   4.091  19.234  0.00  0.00    +0.000 A 
ATOM      7  C   UNL     1       2.741   3.528  18.712  0.00  0.00    +0.000 A 
ATOM      8 BR   UNL     1       2.721   1.762  18.058  0.00  0.00    +0.000 Br
ATOM      9  H   UNL     1       3.663   7.703  20.287  0.00  0.00    +0.000 HD
ENDROOT
BRANCH   4  10
ATOM     10  C   UNL     1       1.697   8.279  20.325  0.00  0.00    +0.000 A 
ATOM     11  C   UNL     1       1.313   8.982  19.175  0.00  0.00    +0.000 A 
ATOM     12  C   UNL     1       0.261   9.892  19.209  0.00  0.00    +0.000 A 
ATOM     13  C   UNL     1      -0.433  10.101  20.395  0.00  0.00    +0.000 A 
ATOM     14  C   UNL     1      -0.072   9.413  21.555  0.00  0.00    +0.000 A 
ATOM     15  C   UNL     1       0.998   8.515  21.519  0.00  0.00    +0.000 A 
BRANCH  14  16
ATOM     16  O   UNL     1      -0.847   9.699  22.648  0.00  0.00    +0.000 OA
ATOM     17  C   UNL     1      -1.183  11.065  22.855  0.00  0.00    +0.000 C 
ENDBRANCH  14  16
ENDBRANCH   4  10
BRANCH   1  18
ATOM     18  O   UNL     1       5.076   3.818  18.297  0.00  0.00    +0.000 OA
BRANCH  18  24
ATOM     19  C   UNL     1       6.621   5.151  16.979  0.00  0.00    +0.000 A 
ATOM     20  C   UNL     1       7.054   5.555  15.698  0.00  0.00    +0.000 A 
ATOM     21  C   UNL     1       6.433   5.103  14.535  0.00  0.00    +0.000 A 
ATOM     22  C   UNL     1       5.337   4.261  14.626  0.00  0.00    +0.000 A 
ATOM     23  C   UNL     1       4.871   3.872  15.880  0.00  0.00    +0.000 A 
ATOM     24  C   UNL     1       5.529   4.264  17.068  0.00  0.00    +0.000 A 
BRANCH  19  27
ATOM     25  C   UNL     1       8.390   5.549  20.338  0.00  0.00    +0.000 C 
ATOM     26  N   UNL     1       7.612   4.995  19.253  0.00  0.00    +0.000 N 
ATOM     27  C   UNL     1       7.402   5.740  18.117  0.00  0.00    +0.000 C 
ATOM     28  O   UNL     1       7.838   6.888  18.021  0.00  0.00    +0.000 OA
ATOM     29  H   UNL     1       7.304   4.033  19.297  0.00  0.00    +0.000 HD
ENDBRANCH  19  27
ENDBRANCH  18  24
ENDBRANCH   1  18
TORSDOF 5
ENDMDL
MODEL 3
REMARK VINA RESULT:      -7.9      1.834      2.820
REMARK  Name = 
REMARK  7 active torsions:
REMARK  status: ('A' for Active; 'I' for Inactive)
REMARK    1  A    between atoms: C_1  and  N_2
REMARK    2  A    between atoms: C_3  and  C_5
REMARK    3  A    between atoms: C_10  and  O_11
REMARK    4  A    between atoms: O_11  and  C_12
REMARK    5  A    between atoms: N_15  and  C_16
REMARK    6  A    between atoms: C_20  and  O_21
REMARK    7  A    between atoms: O_21  and  C_22
REMARK                            x       y       z     vdW  Elec       q    Type
REMARK                         _______ _______ _______ _____ _____    ______ ____
ROOT
ATOM      1  C   UNL     1       2.944   5.071  18.801  0.00  0.00    +0.000 A 
ATOM      2  N   UNL     1       2.955   6.368  19.183  0.00  0.00    +0.000 NA
ATOM      3  C   UNL     1       2.105   6.728  20.151  0.00  0.00    +0.000 A 
ATOM      4  N   UNL     1       2.193   8.038  20.611  0.00  0.00    +0.000 N 
ATOM      5  N   UNL     1       1.242   5.873  20.724  0.00  0.00    +0.000 NA
ATOM      6  C   UNL     1       1.244   4.595  20.299  0.00  0.00    +0.000 A 
ATOM      7  C   UNL     1       2.083   4.132  19.317  0.00  0.00    +0.000 A 
ATOM      8 BR   UNL     1       2.047   2.320  18.805  0.00  0.00    +0.000 Br
ATOM      9  H   UNL     1       2.940   8.531  20.141  0.00  0.00    +0.000 HD
ENDROOT
BRANCH   4  10
ATOM     10  C   UNL     1       1.152   8.850  21.090  0.00  0.00    +0.000 A 
ATOM     11  C   UNL     1       0.868   8.962  22.457  0.00  0.00    +0.000 A 
ATOM     12  C   UNL     1      -0.139   9.807  22.913  0.00  0.00    +0.000 A 
ATOM     13  C   UNL     1      -0.870  10.563  22.004  0.00  0.00    +0.000 A 
ATOM     14  C   UNL     1      -0.608  10.471  20.636  0.00  0.00    +0.000 A 
ATOM     15  C   UNL     1       0.392   9.606  20.183  0.00  0.00    +0.000 A 
BRANCH  14  16
ATOM     16  O   UNL     1      -1.387  11.281  19.854  0.00  0.00    +0.000 OA
ATOM     17  C   UNL     1      -0.870  11.625  18.574  0.00  0.00    +0.000 C 
ENDBRANCH  14  16
ENDBRANCH   4  10
BRANCH   1  18
ATOM     18  O   UNL     1       3.876   4.676  17.835  0.00  0.00    +0.000 OA
BRANCH  18  24
ATOM     19  C   UNL     1       6.056   5.296  16.961  0.00  0.00    +0.000 A 
ATOM     20  C   UNL     1       7.387   5.675  17.235  0.00  0.00    +0.000 A 
ATOM     21  C   UNL     1       7.864   5.793  18.539  0.00  0.00    +0.000 A 
ATOM     22  C   UNL     1       7.030   5.496  19.604  0.00  0.00    +0.000 A 
ATOM     23  C   UNL     1       5.720   5.089  19.358  0.00  0.00    +0.000 A 
ATOM     24  C   UNL     1       5.197   5.032  18.047  0.00  0.00    +0.000 A 
BRANCH  19  27
ATOM     25  C   UNL     1       5.567   3.950  13.422  0.00  0.00    +0.000 C 
ATOM     26  N   UNL     1       5.922   4.039  14.820  0.00  0.00    +0.000 N 
ATOM     27  C   UNL     1       5.717   5.216  15.501  0.00  0.00    +0.000 C 
ATOM     28  O   UNL     1       5.267   6.209  14.929  0.00  0.00    +0.000 OA
ATOM     29  H   UNL     1       6.231   3.212  15.312  0.00  0.00    +0.000 HD
ENDBRANCH  19  27
ENDBRANCH  18  24
ENDBRANCH   1  18
TORSDOF 5
ENDMDL
MODEL 4
REMARK VINA RESULT:      -7.9      1.039      1.122
REMARK  Name = 
REMARK  7 active torsions:
REMARK  status: ('A' for Active; 'I' for Inactive)
REMARK    1  A    between atoms: C_1  and  N_2
REMARK    2  A    between atoms: C_3  and  C_5
REMARK    3  A    between atoms: C_10  and  O_11
REMARK    4  A    between atoms: O_11  and  C_12
REMARK    5  A    between atoms: N_15  and  C_16
REMARK    6  A    between atoms: C_20  and  O_21
REMARK    7  A    between atoms: O_21  and  C_22
REMARK                            x       y       z     vdW  Elec       q    Type
REMARK                         _______ _______ _______ _____ _____    ______ ____
ROOT
ATOM      1  C   UNL     1       3.840   4.318  18.908  0.00  0.00    +0.000 A 
ATOM      2  N   UNL     1       3.790   5.600  19.336  0.00  0.00    +0.000 NA
ATOM      3  C   UNL     1       2.629   6.033  19.837  0.00  0.00    +0.000 A 
ATOM      4  N   UNL     1       2.614   7.319  20.369  0.00  0.00    +0.000 N 
ATOM      5  N   UNL     1       1.527   5.268  19.904  0.00  0.00    +0.000 NA
ATOM      6  C   UNL     1       1.609   4.004  19.446  0.00  0.00    +0.000 A 
ATOM      7  C   UNL     1       2.758   3.469  18.920  0.00  0.00    +0.000 A 
ATOM      8 BR   UNL     1       2.798   1.680  18.333  0.00  0.00    +0.000 Br
ATOM      9  H   UNL     1       3.533   7.735  20.319  0.00  0.00    +0.000 HD
ENDROOT
BRANCH   4  10
ATOM     10  C   UNL     1       1.546   8.230  20.378  0.00  0.00    +0.000 A 
ATOM     11  C   UNL     1       0.746   8.424  21.512  0.00  0.00    +0.000 A 
ATOM     12  C   UNL     1      -0.279   9.365  21.513  0.00  0.00    +0.000 A 
ATOM     13  C   UNL     1      -0.510  10.136  20.380  0.00  0.00    +0.000 A 
ATOM     14  C   UNL     1       0.272   9.964  19.237  0.00  0.00    +0.000 A 
ATOM     15  C   UNL     1       1.288   9.003  19.235  0.00  0.00    +0.000 A 
BRANCH  14  16
ATOM     16  O   UNL     1      -0.049  10.798  18.199  0.00  0.00    +0.000 OA
ATOM     17  C   UNL     1      -1.316  11.440  18.262  0.00  0.00    +0.000 C 
ENDBRANCH  14  16
ENDBRANCH   4  10
BRANCH   1  18
ATOM     18  O   UNL     1       5.069   3.840  18.443  0.00  0.00    +0.000 OA
BRANCH  18  24
ATOM     19  C   UNL     1       6.578   5.171  17.083  0.00  0.00    +0.000 A 
ATOM     20  C   UNL     1       6.980   5.572  15.791  0.00  0.00    +0.000 A 
ATOM     21  C   UNL     1       6.334   5.113  14.645  0.00  0.00    +0.000 A 
ATOM     22  C   UNL     1       5.243   4.268  14.764  0.00  0.00    +0.000 A 
ATOM     23  C   UNL     1       4.807   3.883  16.031  0.00  0.00    +0.000 A 
ATOM     24  C   UNL     1       5.491   4.281  17.201  0.00  0.00    +0.000 A 
BRANCH  19  27
ATOM     25  C   UNL     1       8.411   5.594  20.405  0.00  0.00    +0.000 C 
ATOM     26  N   UNL     1       7.609   5.034  19.341  0.00  0.00    +0.000 N 
ATOM     27  C   UNL     1       7.384   5.767  18.200  0.00  0.00    +0.000 C 
ATOM     28  O   UNL     1       7.826   6.911  18.084  0.00  0.00    +0.000 OA
ATOM     29  H   UNL     1       7.296   4.075  19.401  0.00  0.00    +0.000 HD
ENDBRANCH  19  27
ENDBRANCH  18  24
ENDBRANCH   1  18
TORSDOF 5
ENDMDL
MODEL 5
REMARK VINA RESULT:      -7.8      1.414      2.566
REMARK  Name = 
REMARK  7 active torsions:
REMARK  status: ('A' for Active; 'I' for Inactive)
REMARK    1  A    between atoms: C_1  and  N_2
REMARK    2  A    between atoms: C_3  and  C_5
REMARK    3  A    between atoms: C_10  and  O_11
REMARK    4  A    between atoms: O_11  and  C_12
REMARK    5  A    between atoms: N_15  and  C_16
REMARK    6  A    between atoms: C_20  and  O_21
REMARK    7  A    between atoms: O_21  and  C_22
REMARK                            x       y       z     vdW  Elec       q    Type
REMARK                         _______ _______ _______ _____ _____    ______ ____
ROOT
ATOM      1  C   UNL     1       3.794   4.517  18.768  0.00  0.00    +0.000 A 
ATOM      2  N   UNL     1       3.728   5.765  19.283  0.00  0.00    +0.000 NA
ATOM      3  C   UNL     1       2.561   6.147  19.813  0.00  0.00    +0.000 A 
ATOM      4  N   UNL     1       2.530   7.393  20.433  0.00  0.00    +0.000 N 
ATOM      5  N   UNL     1       1.470   5.365  19.826  0.00  0.00    +0.000 NA
ATOM      6  C   UNL     1       1.568   4.137  19.281  0.00  0.00    +0.000 A 
ATOM      7  C   UNL     1       2.723   3.655  18.720  0.00  0.00    +0.000 A 
ATOM      8 BR   UNL     1       2.786   1.911  18.011  0.00  0.00    +0.000 Br
ATOM      9  H   UNL     1       3.444   7.824  20.411  0.00  0.00    +0.000 HD
ENDROOT
BRANCH   4  10
ATOM     10  C   UNL     1       1.450   8.287  20.504  0.00  0.00    +0.000 A 
ATOM     11  C   UNL     1       0.697   8.449  21.675  0.00  0.00    +0.000 A 
ATOM     12  C   UNL     1      -0.341   9.373  21.737  0.00  0.00    +0.000 A 
ATOM     13  C   UNL     1      -0.632  10.161  20.630  0.00  0.00    +0.000 A 
ATOM     14  C   UNL     1       0.103  10.022  19.451  0.00  0.00    +0.000 A 
ATOM     15  C   UNL     1       1.132   9.077  19.388  0.00  0.00    +0.000 A 
BRANCH  14  16
ATOM     16  O   UNL     1      -0.274  10.869  18.444  0.00  0.00    +0.000 OA
ATOM     17  C   UNL     1      -1.624  10.781  18.005  0.00  0.00    +0.000 C 
ENDBRANCH  14  16
ENDBRANCH   4  10
BRANCH   1  18
ATOM     18  O   UNL     1       5.029   4.088  18.271  0.00  0.00    +0.000 OA
BRANCH  18  24
ATOM     19  C   UNL     1       6.437   5.683  17.100  0.00  0.00    +0.000 A 
ATOM     20  C   UNL     1       7.488   6.622  17.169  0.00  0.00    +0.000 A 
ATOM     21  C   UNL     1       8.158   6.890  18.361  0.00  0.00    +0.000 A 
ATOM     22  C   UNL     1       7.817   6.195  19.509  0.00  0.00    +0.000 A 
ATOM     23  C   UNL     1       6.804   5.239  19.460  0.00  0.00    +0.000 A 
ATOM     24  C   UNL     1       6.066   5.004  18.278  0.00  0.00    +0.000 A 
BRANCH  19  27
ATOM     25  C   UNL     1       5.354   4.150  13.775  0.00  0.00    +0.000 C 
ATOM     26  N   UNL     1       5.961   4.319  15.076  0.00  0.00    +0.000 N 
ATOM     27  C   UNL     1       5.834   5.519  15.735  0.00  0.00    +0.000 C 
ATOM     28  O   UNL     1       5.239   6.466  15.220  0.00  0.00    +0.000 OA
ATOM     29  H   UNL     1       6.396   3.530  15.532  0.00  0.00    +0.000 HD
ENDBRANCH  19  27
ENDBRANCH  18  24
ENDBRANCH   1  18
TORSDOF 5
ENDMDL
MODEL 6
REMARK VINA RESULT:      -7.8      0.976      1.596
REMARK  Name = 
REMARK  7 active torsions:
REMARK  status: ('A' for Active; 'I' for Inactive)
REMARK    1  A    between atoms: C_1  and  N_2
REMARK    2  A    between atoms: C_3  and  C_5
REMARK    3  A    between atoms: C_10  and  O_11
REMARK    4  A    between atoms: O_11  and  C_12
REMARK    5  A    between atoms: N_15  and  C_16
REMARK    6  A    between atoms: C_20  and  O_21
REMARK    7  A    between atoms: O_21  and  C_22
REMARK                            x       y       z     vdW  Elec       q    Type
REMARK                         _______ _______ _______ _____ _____    ______ ____
ROOT
ATOM      1  C   UNL     1       4.222   4.636  18.476  0.00  0.00    +0.000 A 
ATOM      2  N   UNL     1       4.103   5.960  18.727  0.00  0.00    +0.000 NA
ATOM      3  C   UNL     1       2.905   6.402  19.124  0.00  0.00    +0.000 A 
ATOM      4  N   UNL     1       2.816   7.744  19.479  0.00  0.00    +0.000 N 
ATOM      5  N   UNL     1       1.834   5.602  19.254  0.00  0.00    +0.000 NA
ATOM      6  C   UNL     1       1.986   4.293  18.971  0.00  0.00    +0.000 A 
ATOM      7  C   UNL     1       3.176   3.747  18.563  0.00  0.00    +0.000 A 
ATOM      8 BR   UNL     1       3.314   1.900  18.221  0.00  0.00    +0.000 Br
ATOM      9  H   UNL     1       3.719   8.192  19.406  0.00  0.00    +0.000 HD
ENDROOT
BRANCH   4  10
ATOM     10  C   UNL     1       1.712   8.599  19.329  0.00  0.00    +0.000 A 
ATOM     11  C   UNL     1       1.253   9.002  18.068  0.00  0.00    +0.000 A 
ATOM     12  C   UNL     1       0.130   9.814  17.940  0.00  0.00    +0.000 A 
ATOM     13  C   UNL     1      -0.559  10.223  19.076  0.00  0.00    +0.000 A 
ATOM     14  C   UNL     1      -0.124   9.835  20.344  0.00  0.00    +0.000 A 
ATOM     15  C   UNL     1       1.016   9.036  20.467  0.00  0.00    +0.000 A 
BRANCH  14  16
ATOM     16  O   UNL     1      -0.902  10.292  21.375  0.00  0.00    +0.000 OA
ATOM     17  C   UNL     1      -0.495  11.506  21.993  0.00  0.00    +0.000 C 
ENDBRANCH  14  16
ENDBRANCH   4  10
BRANCH   1  18
ATOM     18  O   UNL     1       5.488   4.158  18.123  0.00  0.00    +0.000 OA
BRANCH  18  24
ATOM     19  C   UNL     1       6.821   5.406  16.521  0.00  0.00    +0.000 A 
ATOM     20  C   UNL     1       7.230   5.570  15.180  0.00  0.00    +0.000 A 
ATOM     21  C   UNL     1       6.757   4.745  14.161  0.00  0.00    +0.000 A 
ATOM     22  C   UNL     1       5.831   3.758  14.453  0.00  0.00    +0.000 A 
ATOM     23  C   UNL     1       5.387   3.597  15.764  0.00  0.00    +0.000 A 
ATOM     24  C   UNL     1       5.907   4.376  16.822  0.00  0.00    +0.000 A 
BRANCH  19  27
ATOM     25  C   UNL     1       8.139   8.650  18.043  0.00  0.00    +0.000 C 
ATOM     26  N   UNL     1       7.584   7.699  17.107  0.00  0.00    +0.000 N 
ATOM     27  C   UNL     1       7.428   6.386  17.483  0.00  0.00    +0.000 C 
ATOM     28  O   UNL     1       7.785   5.998  18.596  0.00  0.00    +0.000 OA
ATOM     29  H   UNL     1       7.230   8.020  16.216  0.00  0.00    +0.000 HD
ENDBRANCH  19  27
ENDBRANCH  18  24
ENDBRANCH   1  18
TORSDOF 5
ENDMDL
MODEL 7
REMARK VINA RESULT:      -7.7      1.817      3.101
REMARK  Name = 
REMARK  7 active torsions:
REMARK  status: ('A' for Active; 'I' for Inactive)
REMARK    1  A    between atoms: C_1  and  N_2
REMARK    2  A    between atoms: C_3  and  C_5
REMARK    3  A    between atoms: C_10  and  O_11
REMARK    4  A    between atoms: O_11  and  C_12
REMARK    5  A    between atoms: N_15  and  C_16
REMARK    6  A    between atoms: C_20  and  O_21
REMARK    7  A    between atoms: O_21  and  C_22
REMARK                            x       y       z     vdW  Elec       q    Type
REMARK                         _______ _______ _______ _____ _____    ______ ____
ROOT
ATOM      1  C   UNL     1       3.705   4.580  18.728  0.00  0.00    +0.000 A 
ATOM      2  N   UNL     1       3.680   5.813  19.283  0.00  0.00    +0.000 NA
ATOM      3  C   UNL     1       2.515   6.231  19.790  0.00  0.00    +0.000 A 
ATOM      4  N   UNL     1       2.521   7.456  20.451  0.00  0.00    +0.000 N 
ATOM      5  N   UNL     1       1.390   5.500  19.745  0.00  0.00    +0.000 NA
ATOM      6  C   UNL     1       1.449   4.287  19.162  0.00  0.00    +0.000 A 
ATOM      7  C   UNL     1       2.598   3.770  18.619  0.00  0.00    +0.000 A 
ATOM      8 BR   UNL     1       2.605   2.050  17.853  0.00  0.00    +0.000 Br
ATOM      9  H   UNL     1       3.453   7.845  20.471  0.00  0.00    +0.000 HD
ENDROOT
BRANCH   4  10
ATOM     10  C   UNL     1       1.481   8.397  20.521  0.00  0.00    +0.000 A 
ATOM     11  C   UNL     1       0.998   9.054  19.382  0.00  0.00    +0.000 A 
ATOM     12  C   UNL     1      -0.064   9.950  19.467  0.00  0.00    +0.000 A 
ATOM     13  C   UNL     1      -0.667  10.190  20.696  0.00  0.00    +0.000 A 
ATOM     14  C   UNL     1      -0.206   9.548  21.847  0.00  0.00    +0.000 A 
ATOM     15  C   UNL     1       0.873   8.664  21.757  0.00  0.00    +0.000 A 
BRANCH  14  16
ATOM     16  O   UNL     1      -0.899   9.860  22.986  0.00  0.00    +0.000 OA
ATOM     17  C   UNL     1      -1.388  11.191  23.094  0.00  0.00    +0.000 C 
ENDBRANCH  14  16
ENDBRANCH   4  10
BRANCH   1  18
ATOM     18  O   UNL     1       4.935   4.112  18.254  0.00  0.00    +0.000 OA
BRANCH  18  24
ATOM     19  C   UNL     1       6.405   5.661  17.098  0.00  0.00    +0.000 A 
ATOM     20  C   UNL     1       7.483   6.569  17.179  0.00  0.00    +0.000 A 
ATOM     21  C   UNL     1       8.146   6.817  18.380  0.00  0.00    +0.000 A 
ATOM     22  C   UNL     1       7.770   6.135  19.524  0.00  0.00    +0.000 A 
ATOM     23  C   UNL     1       6.729   5.210  19.463  0.00  0.00    +0.000 A 
ATOM     24  C   UNL     1       5.999   4.996  18.272  0.00  0.00    +0.000 A 
BRANCH  19  27
ATOM     25  C   UNL     1       5.321   4.160  13.760  0.00  0.00    +0.000 C 
ATOM     26  N   UNL     1       5.917   4.312  15.068  0.00  0.00    +0.000 N 
ATOM     27  C   UNL     1       5.814   5.515  15.726  0.00  0.00    +0.000 C 
ATOM     28  O   UNL     1       5.251   6.478  15.204  0.00  0.00    +0.000 OA
ATOM     29  H   UNL     1       6.325   3.511  15.529  0.00  0.00    +0.000 HD
ENDBRANCH  19  27
ENDBRANCH  18  24
ENDBRANCH   1  18
TORSDOF 5
ENDMDL
MODEL 8
REMARK VINA RESULT:      -7.7      3.196      8.630
REMARK  Name = 
REMARK  7 active torsions:
REMARK  status: ('A' for Active; 'I' for Inactive)
REMARK    1  A    between atoms: C_1  and  N_2
REMARK    2  A    between atoms: C_3  and  C_5
REMARK    3  A    between atoms: C_10  and  O_11
REMARK    4  A    between atoms: O_11  and  C_12
REMARK    5  A    between atoms: N_15  and  C_16
REMARK    6  A    between atoms: C_20  and  O_21
REMARK    7  A    between atoms: O_21  and  C_22
REMARK                            x       y       z     vdW  Elec       q    Type
REMARK                         _______ _______ _______ _____ _____    ______ ____
ROOT
ATOM      1  C   UNL     1       0.823   9.866  19.356  0.00  0.00    +0.000 A 
ATOM      2  N   UNL     1       1.545   9.239  18.399  0.00  0.00    +0.000 NA
ATOM      3  C   UNL     1       2.149   8.096  18.740  0.00  0.00    +0.000 A 
ATOM      4  N   UNL     1       2.804   7.405  17.726  0.00  0.00    +0.000 N 
ATOM      5  N   UNL     1       2.090   7.575  19.976  0.00  0.00    +0.000 NA
ATOM      6  C   UNL     1       1.381   8.241  20.908  0.00  0.00    +0.000 A 
ATOM      7  C   UNL     1       0.722   9.416  20.652  0.00  0.00    +0.000 A 
ATOM      8 BR   UNL     1      -0.277  10.267  22.003  0.00  0.00    +0.000 Br
ATOM      9  H   UNL     1       2.692   7.880  16.841  0.00  0.00    +0.000 HD
ENDROOT
BRANCH   4  10
ATOM     10  C   UNL     1       3.959   6.613  17.835  0.00  0.00    +0.000 A 
ATOM     11  C   UNL     1       5.178   6.996  17.260  0.00  0.00    +0.000 A 
ATOM     12  C   UNL     1       6.321   6.219  17.418  0.00  0.00    +0.000 A 
ATOM     13  C   UNL     1       6.263   5.050  18.169  0.00  0.00    +0.000 A 
ATOM     14  C   UNL     1       5.061   4.646  18.754  0.00  0.00    +0.000 A 
ATOM     15  C   UNL     1       3.912   5.421  18.574  0.00  0.00    +0.000 A 
BRANCH  14  16
ATOM     16  O   UNL     1       5.146   3.488  19.480  0.00  0.00    +0.000 OA
ATOM     17  C   UNL     1       3.942   2.751  19.652  0.00  0.00    +0.000 C 
ENDBRANCH  14  16
ENDBRANCH   4  10
BRANCH   1  18
ATOM     18  O   UNL     1       0.135  11.027  18.988  0.00  0.00    +0.000 OA
BRANCH  18  24
ATOM     19  C   UNL     1      -2.198  11.683  18.833  0.00  0.00    +0.000 A 
ATOM     20  C   UNL     1      -3.452  11.493  18.214  0.00  0.00    +0.000 A 
ATOM     21  C   UNL     1      -3.645  10.530  17.225  0.00  0.00    +0.000 A 
ATOM     22  C   UNL     1      -2.595   9.706  16.856  0.00  0.00    +0.000 A 
ATOM     23  C   UNL     1      -1.356   9.853  17.474  0.00  0.00    +0.000 A 
ATOM     24  C   UNL     1      -1.121  10.869  18.429  0.00  0.00    +0.000 A 
BRANCH  19  27
ATOM     25  C   UNL     1      -1.400  14.931  20.674  0.00  0.00    +0.000 C 
ATOM     26  N   UNL     1      -1.400  13.879  19.683  0.00  0.00    +0.000 N 
ATOM     27  C   UNL     1      -2.175  12.760  19.878  0.00  0.00    +0.000 C 
ATOM     28  O   UNL     1      -2.845  12.623  20.902  0.00  0.00    +0.000 OA
ATOM     29  H   UNL     1      -0.903  14.010  18.813  0.00  0.00    +0.000 HD
ENDBRANCH  19  27
ENDBRANCH  18  24
ENDBRANCH   1  18
TORSDOF 5
ENDMDL
MODEL 9
REMARK VINA RESULT:      -7.7      2.522      3.909
REMARK  Name = 
REMARK  7 active torsions:
REMARK  status: ('A' for Active; 'I' for Inactive)
REMARK    1  A    between atoms: C_1  and  N_2
REMARK    2  A    between atoms: C_3  and  C_5
REMARK    3  A    between atoms: C_10  and  O_11
REMARK    4  A    between atoms: O_11  and  C_12
REMARK    5  A    between atoms: N_15  and  C_16
REMARK    6  A    between atoms: C_20  and  O_21
REMARK    7  A    between atoms: O_21  and  C_22
REMARK                            x       y       z     vdW  Elec       q    Type
REMARK                         _______ _______ _______ _____ _____    ______ ____
ROOT
ATOM      1  C   UNL     1       2.520   6.720  18.616  0.00  0.00    +0.000 A 
ATOM      2  N   UNL     1       2.317   7.930  18.047  0.00  0.00    +0.000 NA
ATOM      3  C   UNL     1       1.758   8.877  18.808  0.00  0.00    +0.000 A 
ATOM      4  N   UNL     1       1.646  10.147  18.250  0.00  0.00    +0.000 N 
ATOM      5  N   UNL     1       1.377   8.668  20.078  0.00  0.00    +0.000 NA
ATOM      6  C   UNL     1       1.574   7.442  20.602  0.00  0.00    +0.000 A 
ATOM      7  C   UNL     1       2.144   6.410  19.902  0.00  0.00    +0.000 A 
ATOM      8 BR   UNL     1       2.417   4.735  20.720  0.00  0.00    +0.000 Br
ATOM      9  H   UNL     1       2.048  10.165  17.323  0.00  0.00    +0.000 HD
ENDROOT
BRANCH   4  10
ATOM     10  C   UNL     1       0.640  11.099  18.482  0.00  0.00    +0.000 A 
ATOM     11  C   UNL     1       0.938  12.442  18.749  0.00  0.00    +0.000 A 
ATOM     12  C   UNL     1      -0.075  13.378  18.932  0.00  0.00    +0.000 A 
ATOM     13  C   UNL     1      -1.405  12.984  18.837  0.00  0.00    +0.000 A 
ATOM     14  C   UNL     1      -1.730  11.652  18.570  0.00  0.00    +0.000 A 
ATOM     15  C   UNL     1      -0.707  10.713  18.407  0.00  0.00    +0.000 A 
BRANCH  14  16
ATOM     16  O   UNL     1      -3.073  11.403  18.485  0.00  0.00    +0.000 OA
ATOM     17  C   UNL     1      -3.641  11.390  17.181  0.00  0.00    +0.000 C 
ENDBRANCH  14  16
ENDBRANCH   4  10
BRANCH   1  18
ATOM     18  O   UNL     1       3.163   5.745  17.846  0.00  0.00    +0.000 OA
BRANCH  18  24
ATOM     19  C   UNL     1       5.336   4.704  18.151  0.00  0.00    +0.000 A 
ATOM     20  C   UNL     1       6.738   4.813  18.033  0.00  0.00    +0.000 A 
ATOM     21  C   UNL     1       7.348   5.971  17.556  0.00  0.00    +0.000 A 
ATOM     22  C   UNL     1       6.570   7.066  17.218  0.00  0.00    +0.000 A 
ATOM     23  C   UNL     1       5.185   6.994  17.355  0.00  0.00    +0.000 A 
ATOM     24  C   UNL     1       4.543   5.806  17.770  0.00  0.00    +0.000 A 
BRANCH  19  27
ATOM     25  C   UNL     1       3.518   1.361  18.457  0.00  0.00    +0.000 C 
ATOM     26  N   UNL     1       3.958   2.643  17.957  0.00  0.00    +0.000 N 
ATOM     27  C   UNL     1       4.855   3.387  18.687  0.00  0.00    +0.000 C 
ATOM     28  O   UNL     1       5.264   2.993  19.780  0.00  0.00    +0.000 OA
ATOM     29  H   UNL     1       3.677   2.945  17.034  0.00  0.00    +0.000 HD
ENDBRANCH  19  27
ENDBRANCH  18  24
ENDBRANCH   1  18
TORSDOF 5
ENDMDL
