MODEL 1
REMARK VINA RESULT:      -7.8      0.000      0.000
REMARK  Name = 
REMARK  17 active torsions:
REMARK  status: ('A' for Active; 'I' for Inactive)
REMARK    1  A    between atoms: C_1  and  C_2
REMARK    2  A    between atoms: C_2  and  C_3
REMARK    3  A    between atoms: C_2  and  C_4
REMARK    4  A    between atoms: C_4  and  C_5
REMARK    5  A    between atoms: C_5  and  N_6
REMARK    6  A    between atoms: C_5  and  C_14
REMARK    7  A    between atoms: C_7  and  C_9
REMARK    8  A    between atoms: C_9  and  N_10
REMARK    9  A    between atoms: C_9  and  C_11
REMARK   10  A    between atoms: C_11  and  C_12
REMARK   11  A    between atoms: C_11  and  C_13
REMARK   12  A    between atoms: N_16  and  C_17
REMARK   13  A    between atoms: C_17  and  C_18
REMARK   14  A    between atoms: C_17  and  C_25
REMARK   15  A    between atoms: C_18  and  C_19
REMARK   16  A    between atoms: N_27  and  C_28
REMARK   17  A    between atoms: C_28  and  C_29
REMARK                            x       y       z     vdW  Elec       q    Type
REMARK                         _______ _______ _______ _____ _____    ______ ____
ROOT
ATOM      1  C   UNL     1       4.397   6.408  17.773  0.00  0.00    +0.000 C 
ATOM      2  O   UNL     1       5.206   7.335  17.778  0.00  0.00    +0.000 OA
ATOM      3  N   UNL     1       3.139   6.544  18.317  0.00  0.00    +0.000 N 
ATOM      4  H   UNL     1       2.576   5.721  18.509  0.00  0.00    +0.000 HD
ENDROOT
BRANCH   1   5
ATOM      5  C   UNL     1       4.784   4.998  17.263  0.00  0.00    +0.000 C 
BRANCH   5   6
ATOM      6  N   UNL     1       3.894   4.037  17.904  0.00  0.00    +0.000 N 
ATOM      7  C   UNL     1       4.261   3.283  18.997  0.00  0.00    +0.000 C 
ATOM      8  O   UNL     1       5.369   3.351  19.522  0.00  0.00    +0.000 OA
ATOM      9  H   UNL     1       3.002   3.789  17.484  0.00  0.00    +0.000 HD
BRANCH   7  10
ATOM     10  C   UNL     1       3.143   2.342  19.521  0.00  0.00    +0.000 C 
BRANCH  10  11
ATOM     11  N   UNL     1       2.741   1.370  18.467  0.00  0.00    +0.000 NA
ATOM     12  H   UNL     1       3.476   1.334  17.759  0.00  0.00    +0.000 HD
ATOM     13  H   UNL     1       1.926   1.749  17.983  0.00  0.00    +0.000 HD
ENDBRANCH  10  11
BRANCH  10  14
ATOM     14  C   UNL     1       1.961   3.163  20.097  0.00  0.00    +0.000 C 
ATOM     15  C   UNL     1       0.633   2.905  19.373  0.00  0.00    +0.000 C 
ATOM     16  C   UNL     1       1.773   2.935  21.601  0.00  0.00    +0.000 C 
ENDBRANCH  10  14
ENDBRANCH   7  10
ENDBRANCH   5   6
BRANCH   5  17
ATOM     17  C   UNL     1       4.758   4.821  15.735  0.00  0.00    +0.000 C 
BRANCH  17  19
ATOM     18  C   UNL     1       5.903   3.894  13.626  0.00  0.00    +0.000 C 
ATOM     19  C   UNL     1       5.947   4.046  15.143  0.00  0.00    +0.000 C 
ATOM     20  C   UNL     1       7.261   4.707  15.573  0.00  0.00    +0.000 C 
ENDBRANCH  17  19
ENDBRANCH   5  17
ENDBRANCH   1   5
BRANCH   3  21
ATOM     21  C   UNL     1       2.579   7.832  18.770  0.00  0.00    +0.000 C 
BRANCH  21  22
ATOM     22  C   UNL     1       1.899   7.592  20.148  0.00  0.00    +0.000 C 
ATOM     23  O   UNL     1       1.728   6.450  20.579  0.00  0.00    +0.000 OA
ATOM     24  N   UNL     1       1.504   8.712  20.841  0.00  0.00    +0.000 N 
ATOM     25  H   UNL     1       1.609   9.631  20.441  0.00  0.00    +0.000 HD
BRANCH  24  26
ATOM     26  C   UNL     1       0.754   8.661  22.073  0.00  0.00    +0.000 C 
BRANCH  26  27
ATOM     27  C   UNL     1       0.116  10.003  22.313  0.00  0.00    +0.000 A 
ATOM     28  C   UNL     1      -1.014  10.132  23.140  0.00  0.00    +0.000 A 
ATOM     29  C   UNL     1      -1.623  11.385  23.293  0.00  0.00    +0.000 A 
ATOM     30  C   UNL     1      -1.118  12.495  22.627  0.00  0.00    +0.000 A 
ATOM     31  C   UNL     1      -0.005  12.373  21.798  0.00  0.00    +0.000 A 
ATOM     32  C   UNL     1       0.601  11.132  21.640  0.00  0.00    +0.000 A 
ENDBRANCH  26  27
ENDBRANCH  24  26
ENDBRANCH  21  22
BRANCH  21  33
ATOM     33  C   UNL     1       1.629   8.473  17.731  0.00  0.00    +0.000 C 
BRANCH  33  34
ATOM     34  C   UNL     1       1.038   9.836  18.048  0.00  0.00    +0.000 A 
ATOM     35  C   UNL     1      -0.336  10.084  18.171  0.00  0.00    +0.000 A 
ATOM     36  C   UNL     1      -0.826  11.384  18.291  0.00  0.00    +0.000 A 
ATOM     37  C   UNL     1       0.050  12.459  18.302  0.00  0.00    +0.000 A 
ATOM     38  C   UNL     1       1.426  12.230  18.274  0.00  0.00    +0.000 A 
ATOM     39  C   UNL     1       1.914  10.925  18.161  0.00  0.00    +0.000 A 
ENDBRANCH  33  34
ENDBRANCH  21  33
ENDBRANCH   3  21
TORSDOF 13
ENDMDL
MODEL 2
REMARK VINA RESULT:      -7.8      1.882      4.093
REMARK  Name = 
REMARK  17 active torsions:
REMARK  status: ('A' for Active; 'I' for Inactive)
REMARK    1  A    between atoms: C_1  and  C_2
REMARK    2  A    between atoms: C_2  and  C_3
REMARK    3  A    between atoms: C_2  and  C_4
REMARK    4  A    between atoms: C_4  and  C_5
REMARK    5  A    between atoms: C_5  and  N_6
REMARK    6  A    between atoms: C_5  and  C_14
REMARK    7  A    between atoms: C_7  and  C_9
REMARK    8  A    between atoms: C_9  and  N_10
REMARK    9  A    between atoms: C_9  and  C_11
REMARK   10  A    between atoms: C_11  and  C_12
REMARK   11  A    between atoms: C_11  and  C_13
REMARK   12  A    between atoms: N_16  and  C_17
REMARK   13  A    between atoms: C_17  and  C_18
REMARK   14  A    between atoms: C_17  and  C_25
REMARK   15  A    between atoms: C_18  and  C_19
REMARK   16  A    between atoms: N_27  and  C_28
REMARK   17  A    between atoms: C_28  and  C_29
REMARK                            x       y       z     vdW  Elec       q    Type
REMARK                         _______ _______ _______ _____ _____    ______ ____
ROOT
ATOM      1  C   UNL     1       2.314   6.904  19.357  0.00  0.00    +0.000 C 
ATOM      2  O   UNL     1       2.334   7.461  18.260  0.00  0.00    +0.000 OA
ATOM      3  N   UNL     1       1.965   7.582  20.504  0.00  0.00    +0.000 N 
ATOM      4  H   UNL     1       2.170   7.181  21.415  0.00  0.00    +0.000 HD
ENDROOT
BRANCH   1   5
ATOM      5  C   UNL     1       2.793   5.443  19.534  0.00  0.00    +0.000 C 
BRANCH   5   6
ATOM      6  N   UNL     1       4.244   5.433  19.386  0.00  0.00    +0.000 N 
ATOM      7  C   UNL     1       4.896   4.720  18.406  0.00  0.00    +0.000 C 
ATOM      8  O   UNL     1       4.315   4.028  17.574  0.00  0.00    +0.000 OA
ATOM      9  H   UNL     1       4.844   5.853  20.091  0.00  0.00    +0.000 HD
BRANCH   7  10
ATOM     10  C   UNL     1       6.441   4.877  18.431  0.00  0.00    +0.000 C 
BRANCH  10  11
ATOM     11  N   UNL     1       6.918   5.129  19.818  0.00  0.00    +0.000 NA
ATOM     12  H   UNL     1       6.683   6.089  20.074  0.00  0.00    +0.000 HD
ATOM     13  H   UNL     1       7.938   5.100  19.811  0.00  0.00    +0.000 HD
ENDBRANCH  10  11
BRANCH  10  14
ATOM     14  C   UNL     1       6.900   5.947  17.407  0.00  0.00    +0.000 C 
ATOM     15  C   UNL     1       5.738   6.582  16.632  0.00  0.00    +0.000 C 
ATOM     16  C   UNL     1       7.741   7.051  18.058  0.00  0.00    +0.000 C 
ENDBRANCH  10  14
ENDBRANCH   7  10
ENDBRANCH   5   6
BRANCH   5  17
ATOM     17  C   UNL     1       2.381   4.770  20.855  0.00  0.00    +0.000 C 
BRANCH  17  19
ATOM     18  C   UNL     1       1.028   3.198  19.332  0.00  0.00    +0.000 C 
ATOM     19  C   UNL     1       1.244   3.740  20.742  0.00  0.00    +0.000 C 
ATOM     20  C   UNL     1       1.491   2.589  21.722  0.00  0.00    +0.000 C 
ENDBRANCH  17  19
ENDBRANCH   5  17
ENDBRANCH   1   5
BRANCH   3  21
ATOM     21  C   UNL     1       1.407   8.948  20.509  0.00  0.00    +0.000 C 
BRANCH  21  22
ATOM     22  C   UNL     1       0.235   8.976  21.531  0.00  0.00    +0.000 C 
ATOM     23  O   UNL     1      -0.569   8.044  21.597  0.00  0.00    +0.000 OA
ATOM     24  N   UNL     1       0.150  10.086  22.338  0.00  0.00    +0.000 N 
ATOM     25  H   UNL     1       0.790  10.857  22.226  0.00  0.00    +0.000 HD
BRANCH  24  26
ATOM     26  C   UNL     1      -0.941  10.323  23.251  0.00  0.00    +0.000 C 
BRANCH  26  27
ATOM     27  C   UNL     1      -1.563  11.658  22.937  0.00  0.00    +0.000 A 
ATOM     28  C   UNL     1      -0.854  12.637  22.219  0.00  0.00    +0.000 A 
ATOM     29  C   UNL     1      -1.437  13.892  21.997  0.00  0.00    +0.000 A 
ATOM     30  C   UNL     1      -2.706  14.172  22.488  0.00  0.00    +0.000 A 
ATOM     31  C   UNL     1      -3.410  13.210  23.209  0.00  0.00    +0.000 A 
ATOM     32  C   UNL     1      -2.836  11.964  23.435  0.00  0.00    +0.000 A 
ENDBRANCH  26  27
ENDBRANCH  24  26
ENDBRANCH  21  22
BRANCH  21  33
ATOM     33  C   UNL     1       0.991   9.432  19.100  0.00  0.00    +0.000 C 
BRANCH  33  34
ATOM     34  C   UNL     1       0.415  10.832  18.966  0.00  0.00    +0.000 A 
ATOM     35  C   UNL     1      -0.940  11.102  18.726  0.00  0.00    +0.000 A 
ATOM     36  C   UNL     1      -1.378  12.394  18.441  0.00  0.00    +0.000 A 
ATOM     37  C   UNL     1      -0.471  13.443  18.403  0.00  0.00    +0.000 A 
ATOM     38  C   UNL     1       0.865  13.214  18.728  0.00  0.00    +0.000 A 
ATOM     39  C   UNL     1       1.300  11.918  19.021  0.00  0.00    +0.000 A 
ENDBRANCH  33  34
ENDBRANCH  21  33
ENDBRANCH   3  21
TORSDOF 13
ENDMDL
MODEL 3
REMARK VINA RESULT:      -7.6      1.679      3.876
REMARK  Name = 
REMARK  17 active torsions:
REMARK  status: ('A' for Active; 'I' for Inactive)
REMARK    1  A    between atoms: C_1  and  C_2
REMARK    2  A    between atoms: C_2  and  C_3
REMARK    3  A    between atoms: C_2  and  C_4
REMARK    4  A    between atoms: C_4  and  C_5
REMARK    5  A    between atoms: C_5  and  N_6
REMARK    6  A    between atoms: C_5  and  C_14
REMARK    7  A    between atoms: C_7  and  C_9
REMARK    8  A    between atoms: C_9  and  N_10
REMARK    9  A    between atoms: C_9  and  C_11
REMARK   10  A    between atoms: C_11  and  C_12
REMARK   11  A    between atoms: C_11  and  C_13
REMARK   12  A    between atoms: N_16  and  C_17
REMARK   13  A    between atoms: C_17  and  C_18
REMARK   14  A    between atoms: C_17  and  C_25
REMARK   15  A    between atoms: C_18  and  C_19
REMARK   16  A    between atoms: N_27  and  C_28
REMARK   17  A    between atoms: C_28  and  C_29
REMARK                            x       y       z     vdW  Elec       q    Type
REMARK                         _______ _______ _______ _____ _____    ______ ____
ROOT
ATOM      1  C   UNL     1       2.631   6.963  19.048  0.00  0.00    +0.000 C 
ATOM      2  O   UNL     1       3.057   7.699  18.158  0.00  0.00    +0.000 OA
ATOM      3  N   UNL     1       1.925   7.461  20.120  0.00  0.00    +0.000 N 
ATOM      4  H   UNL     1       1.782   6.888  20.946  0.00  0.00    +0.000 HD
ENDROOT
BRANCH   1   5
ATOM      5  C   UNL     1       2.967   5.452  19.080  0.00  0.00    +0.000 C 
BRANCH   5   6
ATOM      6  N   UNL     1       4.334   5.293  18.598  0.00  0.00    +0.000 N 
ATOM      7  C   UNL     1       4.676   4.443  17.570  0.00  0.00    +0.000 C 
ATOM      8  O   UNL     1       3.862   3.741  16.975  0.00  0.00    +0.000 OA
ATOM      9  H   UNL     1       5.116   5.712  19.094  0.00  0.00    +0.000 HD
BRANCH   7  10
ATOM     10  C   UNL     1       6.187   4.454  17.215  0.00  0.00    +0.000 C 
BRANCH  10  11
ATOM     11  N   UNL     1       7.014   4.333  18.447  0.00  0.00    +0.000 NA
ATOM     12  H   UNL     1       6.800   5.119  19.062  0.00  0.00    +0.000 HD
ATOM     13  H   UNL     1       7.992   4.462  18.185  0.00  0.00    +0.000 HD
ENDBRANCH  10  11
BRANCH  10  14
ATOM     14  C   UNL     1       6.537   5.689  16.346  0.00  0.00    +0.000 C 
ATOM     15  C   UNL     1       5.333   6.250  15.578  0.00  0.00    +0.000 C 
ATOM     16  C   UNL     1       7.186   6.811  17.164  0.00  0.00    +0.000 C 
ENDBRANCH  10  14
ENDBRANCH   7  10
ENDBRANCH   5   6
BRANCH   5  17
ATOM     17  C   UNL     1       2.795   4.769  20.448  0.00  0.00    +0.000 C 
BRANCH  17  19
ATOM     18  C   UNL     1       1.860   2.771  21.773  0.00  0.00    +0.000 C 
ATOM     19  C   UNL     1       2.210   3.347  20.404  0.00  0.00    +0.000 C 
ATOM     20  C   UNL     1       0.983   3.322  19.487  0.00  0.00    +0.000 C 
ENDBRANCH  17  19
ENDBRANCH   5  17
ENDBRANCH   1   5
BRANCH   3  21
ATOM     21  C   UNL     1       1.449   8.855  20.209  0.00  0.00    +0.000 C 
BRANCH  21  22
ATOM     22  C   UNL     1       0.365   8.913  21.323  0.00  0.00    +0.000 C 
ATOM     23  O   UNL     1      -0.506   8.045  21.404  0.00  0.00    +0.000 OA
ATOM     24  N   UNL     1       0.435   9.976  22.192  0.00  0.00    +0.000 N 
ATOM     25  H   UNL     1       1.126  10.700  22.070  0.00  0.00    +0.000 HD
BRANCH  24  26
ATOM     26  C   UNL     1      -0.560  10.243  23.203  0.00  0.00    +0.000 C 
BRANCH  26  27
ATOM     27  C   UNL     1      -1.218  11.564  22.906  0.00  0.00    +0.000 A 
ATOM     28  C   UNL     1      -2.544  11.818  23.296  0.00  0.00    +0.000 A 
ATOM     29  C   UNL     1      -3.149  13.034  22.949  0.00  0.00    +0.000 A 
ATOM     30  C   UNL     1      -2.446  13.982  22.217  0.00  0.00    +0.000 A 
ATOM     31  C   UNL     1      -1.135  13.733  21.818  0.00  0.00    +0.000 A 
ATOM     32  C   UNL     1      -0.531  12.527  22.157  0.00  0.00    +0.000 A 
ENDBRANCH  26  27
ENDBRANCH  24  26
ENDBRANCH  21  22
BRANCH  21  33
ATOM     33  C   UNL     1       0.951   9.408  18.852  0.00  0.00    +0.000 C 
BRANCH  33  34
ATOM     34  C   UNL     1       0.444  10.839  18.807  0.00  0.00    +0.000 A 
ATOM     35  C   UNL     1      -0.901  11.189  18.623  0.00  0.00    +0.000 A 
ATOM     36  C   UNL     1      -1.281  12.514  18.416  0.00  0.00    +0.000 A 
ATOM     37  C   UNL     1      -0.323  13.517  18.402  0.00  0.00    +0.000 A 
ATOM     38  C   UNL     1       1.009  13.205  18.674  0.00  0.00    +0.000 A 
ATOM     39  C   UNL     1       1.385  11.876  18.888  0.00  0.00    +0.000 A 
ENDBRANCH  33  34
ENDBRANCH  21  33
ENDBRANCH   3  21
TORSDOF 13
ENDMDL
MODEL 4
REMARK VINA RESULT:      -7.4      2.864      5.426
REMARK  Name = 
REMARK  17 active torsions:
REMARK  status: ('A' for Active; 'I' for Inactive)
REMARK    1  A    between atoms: C_1  and  C_2
REMARK    2  A    between atoms: C_2  and  C_3
REMARK    3  A    between atoms: C_2  and  C_4
REMARK    4  A    between atoms: C_4  and  C_5
REMARK    5  A    between atoms: C_5  and  N_6
REMARK    6  A    between atoms: C_5  and  C_14
REMARK    7  A    between atoms: C_7  and  C_9
REMARK    8  A    between atoms: C_9  and  N_10
REMARK    9  A    between atoms: C_9  and  C_11
REMARK   10  A    between atoms: C_11  and  C_12
REMARK   11  A    between atoms: C_11  and  C_13
REMARK   12  A    between atoms: N_16  and  C_17
REMARK   13  A    between atoms: C_17  and  C_18
REMARK   14  A    between atoms: C_17  and  C_25
REMARK   15  A    between atoms: C_18  and  C_19
REMARK   16  A    between atoms: N_27  and  C_28
REMARK   17  A    between atoms: C_28  and  C_29
REMARK                            x       y       z     vdW  Elec       q    Type
REMARK                         _______ _______ _______ _____ _____    ______ ____
ROOT
ATOM      1  C   UNL     1       1.979   8.493  18.119  0.00  0.00    +0.000 C 
ATOM      2  O   UNL     1       2.302   9.186  17.155  0.00  0.00    +0.000 OA
ATOM      3  N   UNL     1       1.133   8.966  19.097  0.00  0.00    +0.000 N 
ATOM      4  H   UNL     1       1.059   8.479  19.986  0.00  0.00    +0.000 HD
ENDROOT
BRANCH   1   5
ATOM      5  C   UNL     1       2.598   7.094  18.355  0.00  0.00    +0.000 C 
BRANCH   5   6
ATOM      6  N   UNL     1       4.009   7.168  17.994  0.00  0.00    +0.000 N 
ATOM      7  C   UNL     1       4.636   6.229  17.207  0.00  0.00    +0.000 C 
ATOM      8  O   UNL     1       4.064   5.245  16.745  0.00  0.00    +0.000 OA
ATOM      9  H   UNL     1       4.623   7.856  18.423  0.00  0.00    +0.000 HD
BRANCH   7  10
ATOM     10  C   UNL     1       6.136   6.526  16.939  0.00  0.00    +0.000 C 
BRANCH  10  11
ATOM     11  N   UNL     1       6.548   5.982  15.615  0.00  0.00    +0.000 NA
ATOM     12  H   UNL     1       6.991   6.730  15.080  0.00  0.00    +0.000 HD
ATOM     13  H   UNL     1       5.703   5.748  15.093  0.00  0.00    +0.000 HD
ENDBRANCH  10  11
BRANCH  10  14
ATOM     14  C   UNL     1       7.012   6.031  18.118  0.00  0.00    +0.000 C 
ATOM     15  C   UNL     1       7.683   4.678  17.849  0.00  0.00    +0.000 C 
ATOM     16  C   UNL     1       8.078   7.056  18.521  0.00  0.00    +0.000 C 
ENDBRANCH  10  14
ENDBRANCH   7  10
ENDBRANCH   5   6
BRANCH   5  17
ATOM     17  C   UNL     1       2.435   6.533  19.779  0.00  0.00    +0.000 C 
BRANCH  17  19
ATOM     18  C   UNL     1       2.129   4.460  21.272  0.00  0.00    +0.000 C 
ATOM     19  C   UNL     1       2.492   5.000  19.893  0.00  0.00    +0.000 C 
ATOM     20  C   UNL     1       1.597   4.369  18.822  0.00  0.00    +0.000 C 
ENDBRANCH  17  19
ENDBRANCH   5  17
ENDBRANCH   1   5
BRANCH   3  21
ATOM     21  C   UNL     1       0.392  10.237  18.992  0.00  0.00    +0.000 C 
BRANCH  21  22
ATOM     22  C   UNL     1       1.065  11.256  19.956  0.00  0.00    +0.000 C 
ATOM     23  O   UNL     1       1.234  10.984  21.145  0.00  0.00    +0.000 OA
ATOM     24  N   UNL     1       1.447  12.459  19.409  0.00  0.00    +0.000 N 
ATOM     25  H   UNL     1       1.248  12.675  18.444  0.00  0.00    +0.000 HD
BRANCH  24  26
ATOM     26  C   UNL     1       1.973  13.555  20.186  0.00  0.00    +0.000 C 
BRANCH  26  27
ATOM     27  C   UNL     1       2.361  14.673  19.256  0.00  0.00    +0.000 A 
ATOM     28  C   UNL     1       3.245  14.454  18.186  0.00  0.00    +0.000 A 
ATOM     29  C   UNL     1       3.637  15.530  17.377  0.00  0.00    +0.000 A 
ATOM     30  C   UNL     1       3.158  16.809  17.633  0.00  0.00    +0.000 A 
ATOM     31  C   UNL     1       2.289  17.035  18.698  0.00  0.00    +0.000 A 
ATOM     32  C   UNL     1       1.900  15.973  19.506  0.00  0.00    +0.000 A 
ENDBRANCH  26  27
ENDBRANCH  24  26
ENDBRANCH  21  22
BRANCH  21  33
ATOM     33  C   UNL     1      -1.125  10.073  19.250  0.00  0.00    +0.000 C 
BRANCH  33  34
ATOM     34  C   UNL     1      -2.085  10.458  18.138  0.00  0.00    +0.000 A 
ATOM     35  C   UNL     1      -3.164  11.338  18.304  0.00  0.00    +0.000 A 
ATOM     36  C   UNL     1      -4.110  11.517  17.296  0.00  0.00    +0.000 A 
ATOM     37  C   UNL     1      -3.987  10.830  16.098  0.00  0.00    +0.000 A 
ATOM     38  C   UNL     1      -2.874  10.020  15.876  0.00  0.00    +0.000 A 
ATOM     39  C   UNL     1      -1.923   9.848  16.885  0.00  0.00    +0.000 A 
ENDBRANCH  33  34
ENDBRANCH  21  33
ENDBRANCH   3  21
TORSDOF 13
ENDMDL
MODEL 5
REMARK VINA RESULT:      -7.4      3.716      7.714
REMARK  Name = 
REMARK  17 active torsions:
REMARK  status: ('A' for Active; 'I' for Inactive)
REMARK    1  A    between atoms: C_1  and  C_2
REMARK    2  A    between atoms: C_2  and  C_3
REMARK    3  A    between atoms: C_2  and  C_4
REMARK    4  A    between atoms: C_4  and  C_5
REMARK    5  A    between atoms: C_5  and  N_6
REMARK    6  A    between atoms: C_5  and  C_14
REMARK    7  A    between atoms: C_7  and  C_9
REMARK    8  A    between atoms: C_9  and  N_10
REMARK    9  A    between atoms: C_9  and  C_11
REMARK   10  A    between atoms: C_11  and  C_12
REMARK   11  A    between atoms: C_11  and  C_13
REMARK   12  A    between atoms: N_16  and  C_17
REMARK   13  A    between atoms: C_17  and  C_18
REMARK   14  A    between atoms: C_17  and  C_25
REMARK   15  A    between atoms: C_18  and  C_19
REMARK   16  A    between atoms: N_27  and  C_28
REMARK   17  A    between atoms: C_28  and  C_29
REMARK                            x       y       z     vdW  Elec       q    Type
REMARK                         _______ _______ _______ _____ _____    ______ ____
ROOT
ATOM      1  C   UNL     1       4.999   4.851  19.191  0.00  0.00    +0.000 C 
ATOM      2  O   UNL     1       5.676   3.884  19.539  0.00  0.00    +0.000 OA
ATOM      3  N   UNL     1       5.577   5.981  18.658  0.00  0.00    +0.000 N 
ATOM      4  H   UNL     1       5.042   6.843  18.591  0.00  0.00    +0.000 HD
ENDROOT
BRANCH   1   5
ATOM      5  C   UNL     1       3.473   4.904  19.443  0.00  0.00    +0.000 C 
BRANCH   5   6
ATOM      6  N   UNL     1       3.114   6.295  19.693  0.00  0.00    +0.000 N 
ATOM      7  C   UNL     1       1.981   6.669  20.380  0.00  0.00    +0.000 C 
ATOM      8  O   UNL     1       1.172   5.865  20.837  0.00  0.00    +0.000 OA
ATOM      9  H   UNL     1       3.626   7.054  19.251  0.00  0.00    +0.000 HD
BRANCH   7  10
ATOM     10  C   UNL     1       1.816   8.204  20.541  0.00  0.00    +0.000 C 
BRANCH  10  11
ATOM     11  N   UNL     1       1.393   8.541  21.928  0.00  0.00    +0.000 NA
ATOM     12  H   UNL     1       2.227   8.713  22.491  0.00  0.00    +0.000 HD
ATOM     13  H   UNL     1       0.964   7.711  22.338  0.00  0.00    +0.000 HD
ENDBRANCH  10  11
BRANCH  10  14
ATOM     14  C   UNL     1       0.877   8.773  19.446  0.00  0.00    +0.000 C 
ATOM     15  C   UNL     1       0.129  10.038  19.886  0.00  0.00    +0.000 C 
ATOM     16  C   UNL     1       1.617   9.050  18.133  0.00  0.00    +0.000 C 
ENDBRANCH  10  14
ENDBRANCH   7  10
ENDBRANCH   5   6
BRANCH   5  17
ATOM     17  C   UNL     1       2.600   4.315  18.321  0.00  0.00    +0.000 C 
BRANCH  17  19
ATOM     18  C   UNL     1       3.162   1.828  17.977  0.00  0.00    +0.000 C 
ATOM     19  C   UNL     1       2.171   2.851  18.521  0.00  0.00    +0.000 C 
ATOM     20  C   UNL     1       1.898   2.591  20.006  0.00  0.00    +0.000 C 
ENDBRANCH  17  19
ENDBRANCH   5  17
ENDBRANCH   1   5
BRANCH   3  21
ATOM     21  C   UNL     1       6.999   6.071  18.277  0.00  0.00    +0.000 C 
BRANCH  21  22
ATOM     22  C   UNL     1       7.207   7.428  17.545  0.00  0.00    +0.000 C 
ATOM     23  O   UNL     1       6.572   7.700  16.525  0.00  0.00    +0.000 OA
ATOM     24  N   UNL     1       8.129   8.287  18.095  0.00  0.00    +0.000 N 
ATOM     25  H   UNL     1       8.672   8.016  18.901  0.00  0.00    +0.000 HD
BRANCH  24  26
ATOM     26  C   UNL     1       8.527   9.529  17.477  0.00  0.00    +0.000 C 
BRANCH  26  27
ATOM     27  C   UNL     1       9.319  10.339  18.469  0.00  0.00    +0.000 A 
ATOM     28  C   UNL     1       9.065  10.246  19.849  0.00  0.00    +0.000 A 
ATOM     29  C   UNL     1       9.775  11.061  20.741  0.00  0.00    +0.000 A 
ATOM     30  C   UNL     1      10.722  11.960  20.267  0.00  0.00    +0.000 A 
ATOM     31  C   UNL     1      10.972  12.063  18.901  0.00  0.00    +0.000 A 
ATOM     32  C   UNL     1      10.267  11.261  18.010  0.00  0.00    +0.000 A 
ENDBRANCH  26  27
ENDBRANCH  24  26
ENDBRANCH  21  22
BRANCH  21  33
ATOM     33  C   UNL     1       7.476   4.858  17.444  0.00  0.00    +0.000 C 
BRANCH  33  34
ATOM     34  C   UNL     1       6.823   4.615  16.095  0.00  0.00    +0.000 A 
ATOM     35  C   UNL     1       5.579   3.989  15.928  0.00  0.00    +0.000 A 
ATOM     36  C   UNL     1       5.113   3.639  14.661  0.00  0.00    +0.000 A 
ATOM     37  C   UNL     1       5.875   3.921  13.538  0.00  0.00    +0.000 A 
ATOM     38  C   UNL     1       7.071   4.624  13.672  0.00  0.00    +0.000 A 
ATOM     39  C   UNL     1       7.533   4.980  14.942  0.00  0.00    +0.000 A 
ENDBRANCH  33  34
ENDBRANCH  21  33
ENDBRANCH   3  21
TORSDOF 13
ENDMDL
MODEL 6
REMARK VINA RESULT:      -7.4      2.867      5.352
REMARK  Name = 
REMARK  17 active torsions:
REMARK  status: ('A' for Active; 'I' for Inactive)
REMARK    1  A    between atoms: C_1  and  C_2
REMARK    2  A    between atoms: C_2  and  C_3
REMARK    3  A    between atoms: C_2  and  C_4
REMARK    4  A    between atoms: C_4  and  C_5
REMARK    5  A    between atoms: C_5  and  N_6
REMARK    6  A    between atoms: C_5  and  C_14
REMARK    7  A    between atoms: C_7  and  C_9
REMARK    8  A    between atoms: C_9  and  N_10
REMARK    9  A    between atoms: C_9  and  C_11
REMARK   10  A    between atoms: C_11  and  C_12
REMARK   11  A    between atoms: C_11  and  C_13
REMARK   12  A    between atoms: N_16  and  C_17
REMARK   13  A    between atoms: C_17  and  C_18
REMARK   14  A    between atoms: C_17  and  C_25
REMARK   15  A    between atoms: C_18  and  C_19
REMARK   16  A    between atoms: N_27  and  C_28
REMARK   17  A    between atoms: C_28  and  C_29
REMARK                            x       y       z     vdW  Elec       q    Type
REMARK                         _______ _______ _______ _____ _____    ______ ____
ROOT
ATOM      1  C   UNL     1       1.977   8.601  18.121  0.00  0.00    +0.000 C 
ATOM      2  O   UNL     1       2.292   9.286  17.148  0.00  0.00    +0.000 OA
ATOM      3  N   UNL     1       1.162   9.092  19.116  0.00  0.00    +0.000 N 
ATOM      4  H   UNL     1       1.098   8.609  20.007  0.00  0.00    +0.000 HD
ENDROOT
BRANCH   1   5
ATOM      5  C   UNL     1       2.574   7.190  18.346  0.00  0.00    +0.000 C 
BRANCH   5   6
ATOM      6  N   UNL     1       3.958   7.218  17.889  0.00  0.00    +0.000 N 
ATOM      7  C   UNL     1       4.551   6.170  17.220  0.00  0.00    +0.000 C 
ATOM      8  O   UNL     1       3.969   5.122  16.956  0.00  0.00    +0.000 OA
ATOM      9  H   UNL     1       4.585   7.969  18.164  0.00  0.00    +0.000 HD
BRANCH   7  10
ATOM     10  C   UNL     1       6.026   6.433  16.814  0.00  0.00    +0.000 C 
BRANCH  10  11
ATOM     11  N   UNL     1       6.305   5.866  15.466  0.00  0.00    +0.000 NA
ATOM     12  H   UNL     1       6.858   6.542  14.936  0.00  0.00    +0.000 HD
ATOM     13  H   UNL     1       5.420   5.796  14.963  0.00  0.00    +0.000 HD
ENDBRANCH  10  11
BRANCH  10  14
ATOM     14  C   UNL     1       6.996   5.933  17.915  0.00  0.00    +0.000 C 
ATOM     15  C   UNL     1       7.967   7.014  18.405  0.00  0.00    +0.000 C 
ATOM     16  C   UNL     1       6.254   5.334  19.116  0.00  0.00    +0.000 C 
ENDBRANCH  10  14
ENDBRANCH   7  10
ENDBRANCH   5   6
BRANCH   5  17
ATOM     17  C   UNL     1       2.493   6.665  19.790  0.00  0.00    +0.000 C 
BRANCH  17  19
ATOM     18  C   UNL     1       1.533   4.542  18.698  0.00  0.00    +0.000 C 
ATOM     19  C   UNL     1       1.692   5.364  19.973  0.00  0.00    +0.000 C 
ATOM     20  C   UNL     1       2.330   4.515  21.077  0.00  0.00    +0.000 C 
ENDBRANCH  17  19
ENDBRANCH   5  17
ENDBRANCH   1   5
BRANCH   3  21
ATOM     21  C   UNL     1       0.444  10.378  19.025  0.00  0.00    +0.000 C 
BRANCH  21  22
ATOM     22  C   UNL     1       1.160  11.386  19.969  0.00  0.00    +0.000 C 
ATOM     23  O   UNL     1       1.135  11.235  21.191  0.00  0.00    +0.000 OA
ATOM     24  N   UNL     1       1.806  12.440  19.366  0.00  0.00    +0.000 N 
ATOM     25  H   UNL     1       1.766  12.568  18.367  0.00  0.00    +0.000 HD
BRANCH  24  26
ATOM     26  C   UNL     1       2.414  13.524  20.099  0.00  0.00    +0.000 C 
BRANCH  26  27
ATOM     27  C   UNL     1       2.567  14.709  19.183  0.00  0.00    +0.000 A 
ATOM     28  C   UNL     1       1.697  15.811  19.270  0.00  0.00    +0.000 A 
ATOM     29  C   UNL     1       1.826  16.870  18.361  0.00  0.00    +0.000 A 
ATOM     30  C   UNL     1       2.803  16.832  17.374  0.00  0.00    +0.000 A 
ATOM     31  C   UNL     1       3.661  15.739  17.276  0.00  0.00    +0.000 A 
ATOM     32  C   UNL     1       3.536  14.683  18.173  0.00  0.00    +0.000 A 
ENDBRANCH  26  27
ENDBRANCH  24  26
ENDBRANCH  21  22
BRANCH  21  33
ATOM     33  C   UNL     1      -1.068  10.245  19.319  0.00  0.00    +0.000 C 
BRANCH  33  34
ATOM     34  C   UNL     1      -2.037  10.382  18.157  0.00  0.00    +0.000 A 
ATOM     35  C   UNL     1      -1.851   9.775  16.907  0.00  0.00    +0.000 A 
ATOM     36  C   UNL     1      -2.681  10.077  15.828  0.00  0.00    +0.000 A 
ATOM     37  C   UNL     1      -3.721  10.982  15.983  0.00  0.00    +0.000 A 
ATOM     38  C   UNL     1      -3.981  11.527  17.240  0.00  0.00    +0.000 A 
ATOM     39  C   UNL     1      -3.152  11.217  18.321  0.00  0.00    +0.000 A 
ENDBRANCH  33  34
ENDBRANCH  21  33
ENDBRANCH   3  21
TORSDOF 13
ENDMDL
MODEL 7
REMARK VINA RESULT:      -7.3      1.756      4.174
REMARK  Name = 
REMARK  17 active torsions:
REMARK  status: ('A' for Active; 'I' for Inactive)
REMARK    1  A    between atoms: C_1  and  C_2
REMARK    2  A    between atoms: C_2  and  C_3
REMARK    3  A    between atoms: C_2  and  C_4
REMARK    4  A    between atoms: C_4  and  C_5
REMARK    5  A    between atoms: C_5  and  N_6
REMARK    6  A    between atoms: C_5  and  C_14
REMARK    7  A    between atoms: C_7  and  C_9
REMARK    8  A    between atoms: C_9  and  N_10
REMARK    9  A    between atoms: C_9  and  C_11
REMARK   10  A    between atoms: C_11  and  C_12
REMARK   11  A    between atoms: C_11  and  C_13
REMARK   12  A    between atoms: N_16  and  C_17
REMARK   13  A    between atoms: C_17  and  C_18
REMARK   14  A    between atoms: C_17  and  C_25
REMARK   15  A    between atoms: C_18  and  C_19
REMARK   16  A    between atoms: N_27  and  C_28
REMARK   17  A    between atoms: C_28  and  C_29
REMARK                            x       y       z     vdW  Elec       q    Type
REMARK                         _______ _______ _______ _____ _____    ______ ____
ROOT
ATOM      1  C   UNL     1       2.385   7.213  19.126  0.00  0.00    +0.000 C 
ATOM      2  O   UNL     1       2.703   7.851  18.123  0.00  0.00    +0.000 OA
ATOM      3  N   UNL     1       1.895   7.835  20.252  0.00  0.00    +0.000 N 
ATOM      4  H   UNL     1       1.855   7.334  21.134  0.00  0.00    +0.000 HD
ENDROOT
BRANCH   1   5
ATOM      5  C   UNL     1       2.630   5.687  19.227  0.00  0.00    +0.000 C 
BRANCH   5   6
ATOM      6  N   UNL     1       4.044   5.448  18.964  0.00  0.00    +0.000 N 
ATOM      7  C   UNL     1       4.495   4.667  17.925  0.00  0.00    +0.000 C 
ATOM      8  O   UNL     1       3.748   4.100  17.132  0.00  0.00    +0.000 OA
ATOM      9  H   UNL     1       4.756   5.747  19.625  0.00  0.00    +0.000 HD
BRANCH   7  10
ATOM     10  C   UNL     1       6.041   4.571  17.829  0.00  0.00    +0.000 C 
BRANCH  10  11
ATOM     11  N   UNL     1       6.655   4.655  19.182  0.00  0.00    +0.000 NA
ATOM     12  H   UNL     1       6.494   5.591  19.556  0.00  0.00    +0.000 HD
ATOM     13  H   UNL     1       7.668   4.584  19.075  0.00  0.00    +0.000 HD
ENDBRANCH  10  11
BRANCH  10  14
ATOM     14  C   UNL     1       6.594   5.617  16.826  0.00  0.00    +0.000 C 
ATOM     15  C   UNL     1       5.514   6.210  15.911  0.00  0.00    +0.000 C 
ATOM     16  C   UNL     1       7.346   6.754  17.527  0.00  0.00    +0.000 C 
ENDBRANCH  10  14
ENDBRANCH   7  10
ENDBRANCH   5   6
BRANCH   5  17
ATOM     17  C   UNL     1       2.212   5.041  20.559  0.00  0.00    +0.000 C 
BRANCH  17  19
ATOM     18  C   UNL     1       1.647   2.895  21.862  0.00  0.00    +0.000 C 
ATOM     19  C   UNL     1       2.038   3.513  20.523  0.00  0.00    +0.000 C 
ATOM     20  C   UNL     1       1.017   3.135  19.445  0.00  0.00    +0.000 C 
ENDBRANCH  17  19
ENDBRANCH   5  17
ENDBRANCH   1   5
BRANCH   3  21
ATOM     21  C   UNL     1       1.525   9.263  20.302  0.00  0.00    +0.000 C 
BRANCH  21  22
ATOM     22  C   UNL     1       0.993   9.563  21.732  0.00  0.00    +0.000 C 
ATOM     23  O   UNL     1       1.657   9.270  22.728  0.00  0.00    +0.000 OA
ATOM     24  N   UNL     1      -0.243  10.159  21.815  0.00  0.00    +0.000 N 
ATOM     25  H   UNL     1      -0.787  10.339  20.985  0.00  0.00    +0.000 HD
BRANCH  24  26
ATOM     26  C   UNL     1      -0.931  10.394  23.061  0.00  0.00    +0.000 C 
BRANCH  26  27
ATOM     27  C   UNL     1      -1.557  11.763  23.025  0.00  0.00    +0.000 A 
ATOM     28  C   UNL     1      -0.849  12.872  22.530  0.00  0.00    +0.000 A 
ATOM     29  C   UNL     1      -1.436  14.144  22.570  0.00  0.00    +0.000 A 
ATOM     30  C   UNL     1      -2.710  14.312  23.100  0.00  0.00    +0.000 A 
ATOM     31  C   UNL     1      -3.413  13.219  23.601  0.00  0.00    +0.000 A 
ATOM     32  C   UNL     1      -2.834  11.955  23.568  0.00  0.00    +0.000 A 
ENDBRANCH  26  27
ENDBRANCH  24  26
ENDBRANCH  21  22
BRANCH  21  33
ATOM     33  C   UNL     1       0.528   9.665  19.190  0.00  0.00    +0.000 C 
BRANCH  33  34
ATOM     34  C   UNL     1       0.376  11.141  18.865  0.00  0.00    +0.000 A 
ATOM     35  C   UNL     1       1.441  12.053  18.850  0.00  0.00    +0.000 A 
ATOM     36  C   UNL     1       1.216  13.422  18.716  0.00  0.00    +0.000 A 
ATOM     37  C   UNL     1      -0.078  13.904  18.582  0.00  0.00    +0.000 A 
ATOM     38  C   UNL     1      -1.144  13.009  18.502  0.00  0.00    +0.000 A 
ATOM     39  C   UNL     1      -0.915  11.636  18.629  0.00  0.00    +0.000 A 
ENDBRANCH  33  34
ENDBRANCH  21  33
ENDBRANCH   3  21
TORSDOF 13
ENDMDL
MODEL 8
REMARK VINA RESULT:      -7.3      0.646      1.339
REMARK  Name = 
REMARK  17 active torsions:
REMARK  status: ('A' for Active; 'I' for Inactive)
REMARK    1  A    between atoms: C_1  and  C_2
REMARK    2  A    between atoms: C_2  and  C_3
REMARK    3  A    between atoms: C_2  and  C_4
REMARK    4  A    between atoms: C_4  and  C_5
REMARK    5  A    between atoms: C_5  and  N_6
REMARK    6  A    between atoms: C_5  and  C_14
REMARK    7  A    between atoms: C_7  and  C_9
REMARK    8  A    between atoms: C_9  and  N_10
REMARK    9  A    between atoms: C_9  and  C_11
REMARK   10  A    between atoms: C_11  and  C_12
REMARK   11  A    between atoms: C_11  and  C_13
REMARK   12  A    between atoms: N_16  and  C_17
REMARK   13  A    between atoms: C_17  and  C_18
REMARK   14  A    between atoms: C_17  and  C_25
REMARK   15  A    between atoms: C_18  and  C_19
REMARK   16  A    between atoms: N_27  and  C_28
REMARK   17  A    between atoms: C_28  and  C_29
REMARK                            x       y       z     vdW  Elec       q    Type
REMARK                         _______ _______ _______ _____ _____    ______ ____
ROOT
ATOM      1  C   UNL     1       3.916   6.624  17.813  0.00  0.00    +0.000 C 
ATOM      2  O   UNL     1       4.177   7.538  17.032  0.00  0.00    +0.000 OA
ATOM      3  N   UNL     1       3.121   6.825  18.920  0.00  0.00    +0.000 N 
ATOM      4  H   UNL     1       3.102   6.135  19.665  0.00  0.00    +0.000 HD
ENDROOT
BRANCH   1   5
ATOM      5  C   UNL     1       4.561   5.224  17.668  0.00  0.00    +0.000 C 
BRANCH   5   6
ATOM      6  N   UNL     1       3.647   4.253  18.255  0.00  0.00    +0.000 N 
ATOM      7  C   UNL     1       4.049   3.281  19.144  0.00  0.00    +0.000 C 
ATOM      8  O   UNL     1       5.212   3.145  19.515  0.00  0.00    +0.000 OA
ATOM      9  H   UNL     1       2.688   4.172  17.927  0.00  0.00    +0.000 HD
BRANCH   7  10
ATOM     10  C   UNL     1       2.898   2.372  19.653  0.00  0.00    +0.000 C 
BRANCH  10  11
ATOM     11  N   UNL     1       2.412   1.484  18.562  0.00  0.00    +0.000 NA
ATOM     12  H   UNL     1       1.961   0.669  18.981  0.00  0.00    +0.000 HD
ATOM     13  H   UNL     1       3.227   1.111  18.072  0.00  0.00    +0.000 HD
ENDBRANCH  10  11
BRANCH  10  14
ATOM     14  C   UNL     1       1.780   3.221  20.312  0.00  0.00    +0.000 C 
ATOM     15  C   UNL     1       0.463   3.206  19.525  0.00  0.00    +0.000 C 
ATOM     16  C   UNL     1       1.510   2.803  21.762  0.00  0.00    +0.000 C 
ENDBRANCH  10  14
ENDBRANCH   7  10
ENDBRANCH   5   6
BRANCH   5  17
ATOM     17  C   UNL     1       4.930   4.816  16.231  0.00  0.00    +0.000 C 
BRANCH  17  19
ATOM     18  C   UNL     1       6.834   4.495  14.529  0.00  0.00    +0.000 C 
ATOM     19  C   UNL     1       6.419   4.507  15.997  0.00  0.00    +0.000 C 
ATOM     20  C   UNL     1       7.283   5.498  16.785  0.00  0.00    +0.000 C 
ENDBRANCH  17  19
ENDBRANCH   5  17
ENDBRANCH   1   5
BRANCH   3  21
ATOM     21  C   UNL     1       2.364   8.067  19.168  0.00  0.00    +0.000 C 
BRANCH  21  22
ATOM     22  C   UNL     1       1.665   7.925  20.550  0.00  0.00    +0.000 C 
ATOM     23  O   UNL     1       1.378   6.815  21.003  0.00  0.00    +0.000 OA
ATOM     24  N   UNL     1       1.386   9.093  21.220  0.00  0.00    +0.000 N 
ATOM     25  H   UNL     1       1.584   9.989  20.801  0.00  0.00    +0.000 HD
BRANCH  24  26
ATOM     26  C   UNL     1       0.636   9.144  22.451  0.00  0.00    +0.000 C 
BRANCH  26  27
ATOM     27  C   UNL     1      -0.165  10.418  22.485  0.00  0.00    +0.000 A 
ATOM     28  C   UNL     1       0.315  11.594  21.883  0.00  0.00    +0.000 A 
ATOM     29  C   UNL     1      -0.425  12.779  21.987  0.00  0.00    +0.000 A 
ATOM     30  C   UNL     1      -1.625  12.796  22.686  0.00  0.00    +0.000 A 
ATOM     31  C   UNL     1      -2.102  11.638  23.294  0.00  0.00    +0.000 A 
ATOM     32  C   UNL     1      -1.370  10.459  23.198  0.00  0.00    +0.000 A 
ENDBRANCH  26  27
ENDBRANCH  24  26
ENDBRANCH  21  22
BRANCH  21  33
ATOM     33  C   UNL     1       1.379   8.408  18.025  0.00  0.00    +0.000 C 
BRANCH  33  34
ATOM     34  C   UNL     1       0.714   9.774  18.039  0.00  0.00    +0.000 A 
ATOM     35  C   UNL     1       1.398  10.976  18.268  0.00  0.00    +0.000 A 
ATOM     36  C   UNL     1       0.710  12.176  18.441  0.00  0.00    +0.000 A 
ATOM     37  C   UNL     1      -0.675  12.198  18.376  0.00  0.00    +0.000 A 
ATOM     38  C   UNL     1      -1.371  11.032  18.058  0.00  0.00    +0.000 A 
ATOM     39  C   UNL     1      -0.678   9.832  17.878  0.00  0.00    +0.000 A 
ENDBRANCH  33  34
ENDBRANCH  21  33
ENDBRANCH   3  21
TORSDOF 13
ENDMDL
MODEL 9
REMARK VINA RESULT:      -7.3      1.826      4.224
REMARK  Name = 
REMARK  17 active torsions:
REMARK  status: ('A' for Active; 'I' for Inactive)
REMARK    1  A    between atoms: C_1  and  C_2
REMARK    2  A    between atoms: C_2  and  C_3
REMARK    3  A    between atoms: C_2  and  C_4
REMARK    4  A    between atoms: C_4  and  C_5
REMARK    5  A    between atoms: C_5  and  N_6
REMARK    6  A    between atoms: C_5  and  C_14
REMARK    7  A    between atoms: C_7  and  C_9
REMARK    8  A    between atoms: C_9  and  N_10
REMARK    9  A    between atoms: C_9  and  C_11
REMARK   10  A    between atoms: C_11  and  C_12
REMARK   11  A    between atoms: C_11  and  C_13
REMARK   12  A    between atoms: N_16  and  C_17
REMARK   13  A    between atoms: C_17  and  C_18
REMARK   14  A    between atoms: C_17  and  C_25
REMARK   15  A    between atoms: C_18  and  C_19
REMARK   16  A    between atoms: N_27  and  C_28
REMARK   17  A    between atoms: C_28  and  C_29
REMARK                            x       y       z     vdW  Elec       q    Type
REMARK                         _______ _______ _______ _____ _____    ______ ____
ROOT
ATOM      1  C   UNL     1       2.351   7.302  19.207  0.00  0.00    +0.000 C 
ATOM      2  O   UNL     1       2.855   8.046  18.367  0.00  0.00    +0.000 OA
ATOM      3  N   UNL     1       1.639   7.797  20.277  0.00  0.00    +0.000 N 
ATOM      4  H   UNL     1       1.429   7.198  21.070  0.00  0.00    +0.000 HD
ENDROOT
BRANCH   1   5
ATOM      5  C   UNL     1       2.587   5.772  19.179  0.00  0.00    +0.000 C 
BRANCH   5   6
ATOM      6  N   UNL     1       4.027   5.547  19.176  0.00  0.00    +0.000 N 
ATOM      7  C   UNL     1       4.691   4.935  18.137  0.00  0.00    +0.000 C 
ATOM      8  O   UNL     1       4.129   4.521  17.126  0.00  0.00    +0.000 OA
ATOM      9  H   UNL     1       4.585   5.718  20.008  0.00  0.00    +0.000 HD
BRANCH   7  10
ATOM     10  C   UNL     1       6.226   4.822  18.345  0.00  0.00    +0.000 C 
BRANCH  10  11
ATOM     11  N   UNL     1       6.589   5.161  19.748  0.00  0.00    +0.000 NA
ATOM     12  H   UNL     1       7.607   5.173  19.827  0.00  0.00    +0.000 HD
ATOM     13  H   UNL     1       6.286   4.392  20.347  0.00  0.00    +0.000 HD
ENDBRANCH  10  11
BRANCH  10  14
ATOM     14  C   UNL     1       6.986   5.658  17.283  0.00  0.00    +0.000 C 
ATOM     15  C   UNL     1       7.008   5.002  15.896  0.00  0.00    +0.000 C 
ATOM     16  C   UNL     1       6.436   7.084  17.162  0.00  0.00    +0.000 C 
ENDBRANCH  10  14
ENDBRANCH   7  10
ENDBRANCH   5   6
BRANCH   5  17
ATOM     17  C   UNL     1       1.921   4.983  20.320  0.00  0.00    +0.000 C 
BRANCH  17  19
ATOM     18  C   UNL     1       2.198   2.769  21.602  0.00  0.00    +0.000 C 
ATOM     19  C   UNL     1       2.082   3.455  20.244  0.00  0.00    +0.000 C 
ATOM     20  C   UNL     1       0.924   2.852  19.442  0.00  0.00    +0.000 C 
ENDBRANCH  17  19
ENDBRANCH   5  17
ENDBRANCH   1   5
BRANCH   3  21
ATOM     21  C   UNL     1       1.251   9.214  20.415  0.00  0.00    +0.000 C 
BRANCH  21  22
ATOM     22  C   UNL     1       0.092   9.287  21.450  0.00  0.00    +0.000 C 
ATOM     23  O   UNL     1      -0.730   8.373  21.544  0.00  0.00    +0.000 OA
ATOM     24  N   UNL     1       0.039  10.415  22.234  0.00  0.00    +0.000 N 
ATOM     25  H   UNL     1       0.693  11.170  22.099  0.00  0.00    +0.000 HD
BRANCH  24  26
ATOM     26  C   UNL     1      -1.036  10.693  23.155  0.00  0.00    +0.000 C 
BRANCH  26  27
ATOM     27  C   UNL     1      -1.609  12.051  22.844  0.00  0.00    +0.000 A 
ATOM     28  C   UNL     1      -0.773  13.168  22.671  0.00  0.00    +0.000 A 
ATOM     29  C   UNL     1      -1.340  14.430  22.446  0.00  0.00    +0.000 A 
ATOM     30  C   UNL     1      -2.721  14.580  22.399  0.00  0.00    +0.000 A 
ATOM     31  C   UNL     1      -3.554  13.479  22.579  0.00  0.00    +0.000 A 
ATOM     32  C   UNL     1      -2.998  12.225  22.807  0.00  0.00    +0.000 A 
ENDBRANCH  26  27
ENDBRANCH  24  26
ENDBRANCH  21  22
BRANCH  21  33
ATOM     33  C   UNL     1       0.896   9.875  19.062  0.00  0.00    +0.000 C 
BRANCH  33  34
ATOM     34  C   UNL     1      -0.508  10.426  18.883  0.00  0.00    +0.000 A 
ATOM     35  C   UNL     1      -1.550   9.727  18.255  0.00  0.00    +0.000 A 
ATOM     36  C   UNL     1      -2.763  10.349  17.966  0.00  0.00    +0.000 A 
ATOM     37  C   UNL     1      -2.963  11.678  18.311  0.00  0.00    +0.000 A 
ATOM     38  C   UNL     1      -1.976  12.365  19.017  0.00  0.00    +0.000 A 
ATOM     39  C   UNL     1      -0.763  11.737  19.312  0.00  0.00    +0.000 A 
ENDBRANCH  33  34
ENDBRANCH  21  33
ENDBRANCH   3  21
TORSDOF 13
ENDMDL
