MODEL 1
REMARK VINA RESULT:      -8.2      0.000      0.000
REMARK  Name = 
REMARK  10 active torsions:
REMARK  status: ('A' for Active; 'I' for Inactive)
REMARK    1  A    between atoms: C_1  and  C_2
REMARK    2  A    between atoms: C_5  and  N_6
REMARK    3  A    between atoms: C_7  and  C_9
REMARK    4  A    between atoms: C_9  and  S_10
REMARK    5  A    between atoms: S_10  and  C_13
REMARK    6  A    between atoms: C_17  and  O_18
REMARK    7  A    between atoms: O_18  and  C_19
REMARK    8  A    between atoms: C_20  and  C_21
REMARK    9  A    between atoms: C_23  and  C_24
REMARK   10  A    between atoms: C_27  and  C_28
REMARK                            x       y       z     vdW  Elec       q    Type
REMARK                         _______ _______ _______ _____ _____    ______ ____
ROOT
ATOM      1  C   UNL     1       5.658   4.797  18.662  0.00  0.00    +0.000 A 
ATOM      2  N   UNL     1       5.523   3.463  18.522  0.00  0.00    +0.000 NA
ATOM      3  C   UNL     1       4.260   3.025  18.362  0.00  0.00    +0.000 A 
ATOM      4  C   UNL     1       3.170   3.866  18.283  0.00  0.00    +0.000 A 
ATOM      5  C   UNL     1       3.449   5.215  18.415  0.00  0.00    +0.000 A 
ATOM      6  N   UNL     1       4.680   5.717  18.642  0.00  0.00    +0.000 NA
ENDROOT
BRANCH   1   7
ATOM      7  S   UNL     1       7.328   5.431  18.847  0.00  0.00    +0.000 S 
ATOM      8  O   UNL     1       8.258   4.388  18.451  0.00  0.00    +0.000 OA
ATOM      9  O   UNL     1       7.436   6.043  20.165  0.00  0.00    +0.000 OA
BRANCH   7  10
ATOM     10  C   UNL     1       7.463   6.741  17.677  0.00  0.00    +0.000 C 
BRANCH  10  12
ATOM     11  N   UNL     1       7.285   5.232  15.766  0.00  0.00    +0.000 N 
ATOM     12  C   UNL     1       6.787   6.365  16.393  0.00  0.00    +0.000 C 
ATOM     13  O   UNL     1       5.910   7.107  15.949  0.00  0.00    +0.000 OA
ATOM     14  H   UNL     1       7.943   4.649  16.283  0.00  0.00    +0.000 HD
BRANCH  11  19
ATOM     15  C   UNL     1       5.150   2.994  10.930  0.00  0.00    +0.000 C 
ATOM     16  C   UNL     1       5.721   3.582  12.188  0.00  0.00    +0.000 A 
ATOM     17  C   UNL     1       6.977   4.188  12.185  0.00  0.00    +0.000 A 
ATOM     18  C   UNL     1       7.505   4.732  13.359  0.00  0.00    +0.000 A 
ATOM     19  C   UNL     1       6.796   4.679  14.557  0.00  0.00    +0.000 A 
ATOM     20  C   UNL     1       5.543   4.055  14.569  0.00  0.00    +0.000 A 
ATOM     21  C   UNL     1       5.004   3.522  13.389  0.00  0.00    +0.000 A 
ENDBRANCH  11  19
ENDBRANCH  10  12
ENDBRANCH   7  10
ENDBRANCH   1   7
BRANCH   5  22
ATOM     22  O   UNL     1       2.382   6.092  18.162  0.00  0.00    +0.000 OA
BRANCH  22  23
ATOM     23  C   UNL     1       1.941   6.921  19.183  0.00  0.00    +0.000 A 
ATOM     24  C   UNL     1       1.661   6.470  20.494  0.00  0.00    +0.000 A 
ATOM     25  C   UNL     1       1.860   5.063  20.977  0.00  0.00    +0.000 C 
ATOM     26  C   UNL     1       1.149   7.385  21.442  0.00  0.00    +0.000 A 
ATOM     27  C   UNL     1       1.018   8.745  21.145  0.00  0.00    +0.000 A 
ATOM     28  C   UNL     1       1.405   9.195  19.893  0.00  0.00    +0.000 A 
ATOM     29  C   UNL     1       1.869   8.304  18.902  0.00  0.00    +0.000 A 
ATOM     30  C   UNL     1       2.317   8.867  17.578  0.00  0.00    +0.000 C 
BRANCH  27  31
ATOM     31  C   UNL     1       0.524   9.656  22.146  0.00  0.00    +0.000 C 
ATOM     32  N   UNL     1       0.130  10.371  22.964  0.00  0.00    +0.000 NA
ENDBRANCH  27  31
ENDBRANCH  22  23
ENDBRANCH   5  22
TORSDOF 7
ENDMDL
MODEL 2
REMARK VINA RESULT:      -8.0      0.289      1.584
REMARK  Name = 
REMARK  10 active torsions:
REMARK  status: ('A' for Active; 'I' for Inactive)
REMARK    1  A    between atoms: C_1  and  C_2
REMARK    2  A    between atoms: C_5  and  N_6
REMARK    3  A    between atoms: C_7  and  C_9
REMARK    4  A    between atoms: C_9  and  S_10
REMARK    5  A    between atoms: S_10  and  C_13
REMARK    6  A    between atoms: C_17  and  O_18
REMARK    7  A    between atoms: O_18  and  C_19
REMARK    8  A    between atoms: C_20  and  C_21
REMARK    9  A    between atoms: C_23  and  C_24
REMARK   10  A    between atoms: C_27  and  C_28
REMARK                            x       y       z     vdW  Elec       q    Type
REMARK                         _______ _______ _______ _____ _____    ______ ____
ROOT
ATOM      1  C   UNL     1       5.760   4.789  18.953  0.00  0.00    +0.000 A 
ATOM      2  N   UNL     1       5.633   3.455  19.098  0.00  0.00    +0.000 NA
ATOM      3  C   UNL     1       4.368   2.993  19.100  0.00  0.00    +0.000 A 
ATOM      4  C   UNL     1       3.266   3.799  18.908  0.00  0.00    +0.000 A 
ATOM      5  C   UNL     1       3.536   5.146  18.744  0.00  0.00    +0.000 A 
ATOM      6  N   UNL     1       4.772   5.685  18.796  0.00  0.00    +0.000 NA
ENDROOT
BRANCH   1   7
ATOM      7  S   UNL     1       7.430   5.448  18.912  0.00  0.00    +0.000 S 
ATOM      8  O   UNL     1       8.306   4.434  18.352  0.00  0.00    +0.000 OA
ATOM      9  O   UNL     1       7.721   6.023  20.219  0.00  0.00    +0.000 OA
BRANCH   7  10
ATOM     10  C   UNL     1       7.375   6.794  17.777  0.00  0.00    +0.000 C 
BRANCH  10  12
ATOM     11  N   UNL     1       7.276   5.299  15.850  0.00  0.00    +0.000 N 
ATOM     12  C   UNL     1       6.699   6.377  16.505  0.00  0.00    +0.000 C 
ATOM     13  O   UNL     1       5.749   7.045  16.096  0.00  0.00    +0.000 OA
ATOM     14  H   UNL     1       7.995   4.769  16.341  0.00  0.00    +0.000 HD
BRANCH  11  19
ATOM     15  C   UNL     1       5.210   2.954  11.035  0.00  0.00    +0.000 C 
ATOM     16  C   UNL     1       5.763   3.570  12.287  0.00  0.00    +0.000 A 
ATOM     17  C   UNL     1       7.002   4.211  12.279  0.00  0.00    +0.000 A 
ATOM     18  C   UNL     1       7.513   4.781  13.448  0.00  0.00    +0.000 A 
ATOM     19  C   UNL     1       6.804   4.720  14.646  0.00  0.00    +0.000 A 
ATOM     20  C   UNL     1       5.569   4.062  14.663  0.00  0.00    +0.000 A 
ATOM     21  C   UNL     1       5.047   3.502  13.488  0.00  0.00    +0.000 A 
ENDBRANCH  11  19
ENDBRANCH  10  12
ENDBRANCH   7  10
ENDBRANCH   1   7
BRANCH   5  22
ATOM     22  O   UNL     1       2.448   5.952  18.373  0.00  0.00    +0.000 OA
BRANCH  22  23
ATOM     23  C   UNL     1       1.968   6.885  19.281  0.00  0.00    +0.000 A 
ATOM     24  C   UNL     1       1.912   8.275  19.023  0.00  0.00    +0.000 A 
ATOM     25  C   UNL     1       2.298   8.920  17.724  0.00  0.00    +0.000 C 
ATOM     26  C   UNL     1       1.470   9.147  20.043  0.00  0.00    +0.000 A 
ATOM     27  C   UNL     1       0.985   8.658  21.260  0.00  0.00    +0.000 A 
ATOM     28  C   UNL     1       0.937   7.288  21.458  0.00  0.00    +0.000 A 
ATOM     29  C   UNL     1       1.419   6.387  20.484  0.00  0.00    +0.000 A 
ATOM     30  C   UNL     1       1.295   4.908  20.745  0.00  0.00    +0.000 C 
BRANCH  27  31
ATOM     31  C   UNL     1       0.511   9.575  22.266  0.00  0.00    +0.000 C 
ATOM     32  N   UNL     1       0.151  10.310  23.082  0.00  0.00    +0.000 NA
ENDBRANCH  27  31
ENDBRANCH  22  23
ENDBRANCH   5  22
TORSDOF 7
ENDMDL
MODEL 3
REMARK VINA RESULT:      -7.9      3.050      4.456
REMARK  Name = 
REMARK  10 active torsions:
REMARK  status: ('A' for Active; 'I' for Inactive)
REMARK    1  A    between atoms: C_1  and  C_2
REMARK    2  A    between atoms: C_5  and  N_6
REMARK    3  A    between atoms: C_7  and  C_9
REMARK    4  A    between atoms: C_9  and  S_10
REMARK    5  A    between atoms: S_10  and  C_13
REMARK    6  A    between atoms: C_17  and  O_18
REMARK    7  A    between atoms: O_18  and  C_19
REMARK    8  A    between atoms: C_20  and  C_21
REMARK    9  A    between atoms: C_23  and  C_24
REMARK   10  A    between atoms: C_27  and  C_28
REMARK                            x       y       z     vdW  Elec       q    Type
REMARK                         _______ _______ _______ _____ _____    ______ ____
ROOT
ATOM      1  C   UNL     1       2.802   3.652  19.681  0.00  0.00    +0.000 A 
ATOM      2  N   UNL     1       1.513   3.283  19.818  0.00  0.00    +0.000 NA
ATOM      3  C   UNL     1       0.670   4.261  20.200  0.00  0.00    +0.000 A 
ATOM      4  C   UNL     1       1.062   5.570  20.386  0.00  0.00    +0.000 A 
ATOM      5  C   UNL     1       2.408   5.822  20.187  0.00  0.00    +0.000 A 
ATOM      6  N   UNL     1       3.318   4.878  19.868  0.00  0.00    +0.000 NA
ENDROOT
BRANCH   1   7
ATOM      7  S   UNL     1       3.959   2.389  19.143  0.00  0.00    +0.000 S 
ATOM      8  O   UNL     1       3.282   1.104  19.184  0.00  0.00    +0.000 OA
ATOM      9  O   UNL     1       5.207   2.579  19.869  0.00  0.00    +0.000 OA
BRANCH   7  10
ATOM     10  C   UNL     1       4.303   2.758  17.456  0.00  0.00    +0.000 C 
BRANCH  10  12
ATOM     11  N   UNL     1       5.956   4.462  18.023  0.00  0.00    +0.000 N 
ATOM     12  C   UNL     1       4.798   4.167  17.319  0.00  0.00    +0.000 C 
ATOM     13  O   UNL     1       4.124   4.968  16.672  0.00  0.00    +0.000 OA
ATOM     14  H   UNL     1       6.474   3.689  18.439  0.00  0.00    +0.000 HD
BRANCH  11  19
ATOM     15  C   UNL     1       8.758   9.471  18.136  0.00  0.00    +0.000 C 
ATOM     16  C   UNL     1       8.015   8.167  18.098  0.00  0.00    +0.000 A 
ATOM     17  C   UNL     1       6.950   7.980  17.217  0.00  0.00    +0.000 A 
ATOM     18  C   UNL     1       6.260   6.765  17.186  0.00  0.00    +0.000 A 
ATOM     19  C   UNL     1       6.616   5.716  18.032  0.00  0.00    +0.000 A 
ATOM     20  C   UNL     1       7.672   5.906  18.930  0.00  0.00    +0.000 A 
ATOM     21  C   UNL     1       8.375   7.119  18.953  0.00  0.00    +0.000 A 
ENDBRANCH  11  19
ENDBRANCH  10  12
ENDBRANCH   7  10
ENDBRANCH   1   7
BRANCH   5  22
ATOM     22  O   UNL     1       2.791   7.172  20.199  0.00  0.00    +0.000 OA
BRANCH  22  23
ATOM     23  C   UNL     1       1.873   8.131  19.795  0.00  0.00    +0.000 A 
ATOM     24  C   UNL     1       1.039   8.845  20.687  0.00  0.00    +0.000 A 
ATOM     25  C   UNL     1       1.074   8.714  22.182  0.00  0.00    +0.000 C 
ATOM     26  C   UNL     1       0.088   9.750  20.165  0.00  0.00    +0.000 A 
ATOM     27  C   UNL     1       0.029  10.036  18.796  0.00  0.00    +0.000 A 
ATOM     28  C   UNL     1       0.929   9.417  17.946  0.00  0.00    +0.000 A 
ATOM     29  C   UNL     1       1.857   8.466  18.423  0.00  0.00    +0.000 A 
ATOM     30  C   UNL     1       2.838   7.864  17.449  0.00  0.00    +0.000 C 
BRANCH  27  31
ATOM     31  C   UNL     1      -0.931  10.990  18.302  0.00  0.00    +0.000 C 
ATOM     32  N   UNL     1      -1.716  11.748  17.920  0.00  0.00    +0.000 NA
ENDBRANCH  27  31
ENDBRANCH  22  23
ENDBRANCH   5  22
TORSDOF 7
ENDMDL
MODEL 4
REMARK VINA RESULT:      -7.9      4.928      8.440
REMARK  Name = 
REMARK  10 active torsions:
REMARK  status: ('A' for Active; 'I' for Inactive)
REMARK    1  A    between atoms: C_1  and  C_2
REMARK    2  A    between atoms: C_5  and  N_6
REMARK    3  A    between atoms: C_7  and  C_9
REMARK    4  A    between atoms: C_9  and  S_10
REMARK    5  A    between atoms: S_10  and  C_13
REMARK    6  A    between atoms: C_17  and  O_18
REMARK    7  A    between atoms: O_18  and  C_19
REMARK    8  A    between atoms: C_20  and  C_21
REMARK    9  A    between atoms: C_23  and  C_24
REMARK   10  A    between atoms: C_27  and  C_28
REMARK                            x       y       z     vdW  Elec       q    Type
REMARK                         _______ _______ _______ _____ _____    ______ ____
ROOT
ATOM      1  C   UNL     1      -0.865  11.028  22.211  0.00  0.00    +0.000 A 
ATOM      2  N   UNL     1      -1.856  11.424  23.033  0.00  0.00    +0.000 NA
ATOM      3  C   UNL     1      -2.477  12.566  22.680  0.00  0.00    +0.000 A 
ATOM      4  C   UNL     1      -2.179  13.267  21.531  0.00  0.00    +0.000 A 
ATOM      5  C   UNL     1      -1.159  12.738  20.759  0.00  0.00    +0.000 A 
ATOM      6  N   UNL     1      -0.452  11.637  21.087  0.00  0.00    +0.000 NA
ENDROOT
BRANCH   1   7
ATOM      7  S   UNL     1      -0.029   9.494  22.624  0.00  0.00    +0.000 S 
ATOM      8  O   UNL     1      -0.836   8.389  22.135  0.00  0.00    +0.000 OA
ATOM      9  O   UNL     1       0.355   9.551  24.028  0.00  0.00    +0.000 OA
BRANCH   7  10
ATOM     10  C   UNL     1       1.469   9.512  21.697  0.00  0.00    +0.000 C 
BRANCH  10  12
ATOM     11  N   UNL     1       1.945   7.209  21.042  0.00  0.00    +0.000 N 
ATOM     12  C   UNL     1       1.447   8.442  20.647  0.00  0.00    +0.000 C 
ATOM     13  O   UNL     1       1.070   8.737  19.512  0.00  0.00    +0.000 OA
ATOM     14  H   UNL     1       2.132   7.064  22.034  0.00  0.00    +0.000 HD
BRANCH  11  19
ATOM     15  C   UNL     1       2.061   2.458  17.823  0.00  0.00    +0.000 C 
ATOM     16  C   UNL     1       2.041   3.707  18.657  0.00  0.00    +0.000 A 
ATOM     17  C   UNL     1       2.808   4.815  18.298  0.00  0.00    +0.000 A 
ATOM     18  C   UNL     1       2.788   5.974  19.078  0.00  0.00    +0.000 A 
ATOM     19  C   UNL     1       2.009   6.050  20.231  0.00  0.00    +0.000 A 
ATOM     20  C   UNL     1       1.251   4.934  20.604  0.00  0.00    +0.000 A 
ATOM     21  C   UNL     1       1.259   3.775  19.815  0.00  0.00    +0.000 A 
ENDBRANCH  11  19
ENDBRANCH  10  12
ENDBRANCH   7  10
ENDBRANCH   1   7
BRANCH   5  22
ATOM     22  O   UNL     1      -0.962  13.336  19.505  0.00  0.00    +0.000 OA
BRANCH  22  23
ATOM     23  C   UNL     1       0.202  14.058  19.283  0.00  0.00    +0.000 A 
ATOM     24  C   UNL     1       1.414  13.477  18.841  0.00  0.00    +0.000 A 
ATOM     25  C   UNL     1       1.591  12.028  18.491  0.00  0.00    +0.000 C 
ATOM     26  C   UNL     1       2.561  14.292  18.714  0.00  0.00    +0.000 A 
ATOM     27  C   UNL     1       2.498  15.676  18.910  0.00  0.00    +0.000 A 
ATOM     28  C   UNL     1       1.279  16.249  19.230  0.00  0.00    +0.000 A 
ATOM     29  C   UNL     1       0.122  15.462  19.419  0.00  0.00    +0.000 A 
ATOM     30  C   UNL     1      -1.181  16.155  19.722  0.00  0.00    +0.000 C 
BRANCH  27  31
ATOM     31  C   UNL     1       3.681  16.481  18.739  0.00  0.00    +0.000 C 
ATOM     32  N   UNL     1       4.627  17.135  18.623  0.00  0.00    +0.000 NA
ENDBRANCH  27  31
ENDBRANCH  22  23
ENDBRANCH   5  22
TORSDOF 7
ENDMDL
MODEL 5
REMARK VINA RESULT:      -7.7      2.247      3.029
REMARK  Name = 
REMARK  10 active torsions:
REMARK  status: ('A' for Active; 'I' for Inactive)
REMARK    1  A    between atoms: C_1  and  C_2
REMARK    2  A    between atoms: C_5  and  N_6
REMARK    3  A    between atoms: C_7  and  C_9
REMARK    4  A    between atoms: C_9  and  S_10
REMARK    5  A    between atoms: S_10  and  C_13
REMARK    6  A    between atoms: C_17  and  O_18
REMARK    7  A    between atoms: O_18  and  C_19
REMARK    8  A    between atoms: C_20  and  C_21
REMARK    9  A    between atoms: C_23  and  C_24
REMARK   10  A    between atoms: C_27  and  C_28
REMARK                            x       y       z     vdW  Elec       q    Type
REMARK                         _______ _______ _______ _____ _____    ______ ____
ROOT
ATOM      1  C   UNL     1       3.061   4.398  19.709  0.00  0.00    +0.000 A 
ATOM      2  N   UNL     1       1.871   3.776  19.820  0.00  0.00    +0.000 NA
ATOM      3  C   UNL     1       0.864   4.537  20.289  0.00  0.00    +0.000 A 
ATOM      4  C   UNL     1       1.000   5.876  20.584  0.00  0.00    +0.000 A 
ATOM      5  C   UNL     1       2.268   6.401  20.401  0.00  0.00    +0.000 A 
ATOM      6  N   UNL     1       3.335   5.681  19.998  0.00  0.00    +0.000 NA
ENDROOT
BRANCH   1   7
ATOM      7  S   UNL     1       4.428   3.432  19.059  0.00  0.00    +0.000 S 
ATOM      8  O   UNL     1       4.065   2.966  17.731  0.00  0.00    +0.000 OA
ATOM      9  O   UNL     1       4.834   2.477  20.080  0.00  0.00    +0.000 OA
BRANCH   7  10
ATOM     10  C   UNL     1       5.762   4.568  18.880  0.00  0.00    +0.000 C 
BRANCH  10  12
ATOM     11  N   UNL     1       6.478   4.070  16.600  0.00  0.00    +0.000 N 
ATOM     12  C   UNL     1       5.894   4.998  17.450  0.00  0.00    +0.000 C 
ATOM     13  O   UNL     1       5.555   6.142  17.144  0.00  0.00    +0.000 OA
ATOM     14  H   UNL     1       6.623   3.123  16.951  0.00  0.00    +0.000 HD
BRANCH  11  19
ATOM     15  C   UNL     1       7.190   4.718  10.941  0.00  0.00    +0.000 C 
ATOM     16  C   UNL     1       7.015   4.557  12.423  0.00  0.00    +0.000 A 
ATOM     17  C   UNL     1       7.797   5.290  13.317  0.00  0.00    +0.000 A 
ATOM     18  C   UNL     1       7.632   5.135  14.695  0.00  0.00    +0.000 A 
ATOM     19  C   UNL     1       6.691   4.246  15.210  0.00  0.00    +0.000 A 
ATOM     20  C   UNL     1       5.917   3.495  14.318  0.00  0.00    +0.000 A 
ATOM     21  C   UNL     1       6.071   3.660  12.934  0.00  0.00    +0.000 A 
ENDBRANCH  11  19
ENDBRANCH  10  12
ENDBRANCH   7  10
ENDBRANCH   1   7
BRANCH   5  22
ATOM     22  O   UNL     1       2.383   7.794  20.527  0.00  0.00    +0.000 OA
BRANCH  22  23
ATOM     23  C   UNL     1       1.402   8.599  19.968  0.00  0.00    +0.000 A 
ATOM     24  C   UNL     1       0.383   9.232  20.717  0.00  0.00    +0.000 A 
ATOM     25  C   UNL     1       0.260   9.175  22.212  0.00  0.00    +0.000 C 
ATOM     26  C   UNL     1      -0.610   9.975  20.040  0.00  0.00    +0.000 A 
ATOM     27  C   UNL     1      -0.545  10.189  18.659  0.00  0.00    +0.000 A 
ATOM     28  C   UNL     1       0.522   9.659  17.951  0.00  0.00    +0.000 A 
ATOM     29  C   UNL     1       1.504   8.867  18.584  0.00  0.00    +0.000 A 
ATOM     30  C   UNL     1       2.662   8.361  17.762  0.00  0.00    +0.000 C 
BRANCH  27  31
ATOM     31  C   UNL     1      -1.556  10.979  18.005  0.00  0.00    +0.000 C 
ATOM     32  N   UNL     1      -2.355  11.631  17.482  0.00  0.00    +0.000 NA
ENDBRANCH  27  31
ENDBRANCH  22  23
ENDBRANCH   5  22
TORSDOF 7
ENDMDL
MODEL 6
REMARK VINA RESULT:      -7.7      4.603      8.016
REMARK  Name = 
REMARK  10 active torsions:
REMARK  status: ('A' for Active; 'I' for Inactive)
REMARK    1  A    between atoms: C_1  and  C_2
REMARK    2  A    between atoms: C_5  and  N_6
REMARK    3  A    between atoms: C_7  and  C_9
REMARK    4  A    between atoms: C_9  and  S_10
REMARK    5  A    between atoms: S_10  and  C_13
REMARK    6  A    between atoms: C_17  and  O_18
REMARK    7  A    between atoms: O_18  and  C_19
REMARK    8  A    between atoms: C_20  and  C_21
REMARK    9  A    between atoms: C_23  and  C_24
REMARK   10  A    between atoms: C_27  and  C_28
REMARK                            x       y       z     vdW  Elec       q    Type
REMARK                         _______ _______ _______ _____ _____    ______ ____
ROOT
ATOM      1  C   UNL     1      -0.561  10.543  22.102  0.00  0.00    +0.000 A 
ATOM      2  N   UNL     1      -1.118  10.622  23.326  0.00  0.00    +0.000 NA
ATOM      3  C   UNL     1      -1.981  11.641  23.502  0.00  0.00    +0.000 A 
ATOM      4  C   UNL     1      -2.332  12.519  22.499  0.00  0.00    +0.000 A 
ATOM      5  C   UNL     1      -1.708  12.311  21.281  0.00  0.00    +0.000 A 
ATOM      6  N   UNL     1      -0.786  11.353  21.054  0.00  0.00    +0.000 NA
ENDROOT
BRANCH   1   7
ATOM      7  S   UNL     1       0.573   9.181  21.809  0.00  0.00    +0.000 S 
ATOM      8  O   UNL     1      -0.205   7.962  21.673  0.00  0.00    +0.000 OA
ATOM      9  O   UNL     1       1.639   9.258  22.799  0.00  0.00    +0.000 OA
BRANCH   7  10
ATOM     10  C   UNL     1       1.317   9.518  20.249  0.00  0.00    +0.000 C 
BRANCH  10  12
ATOM     11  N   UNL     1       2.128   7.220  20.400  0.00  0.00    +0.000 N 
ATOM     12  C   UNL     1       1.695   8.239  19.564  0.00  0.00    +0.000 C 
ATOM     13  O   UNL     1       1.671   8.199  18.334  0.00  0.00    +0.000 OA
ATOM     14  H   UNL     1       2.008   7.342  21.406  0.00  0.00    +0.000 HD
BRANCH  11  19
ATOM     15  C   UNL     1       3.554   1.924  18.706  0.00  0.00    +0.000 C 
ATOM     16  C   UNL     1       3.195   3.314  19.146  0.00  0.00    +0.000 A 
ATOM     17  C   UNL     1       4.105   4.362  19.009  0.00  0.00    +0.000 A 
ATOM     18  C   UNL     1       3.767   5.654  19.423  0.00  0.00    +0.000 A 
ATOM     19  C   UNL     1       2.520   5.924  19.983  0.00  0.00    +0.000 A 
ATOM     20  C   UNL     1       1.611   4.872  20.139  0.00  0.00    +0.000 A 
ATOM     21  C   UNL     1       1.943   3.578  19.712  0.00  0.00    +0.000 A 
ENDBRANCH  11  19
ENDBRANCH  10  12
ENDBRANCH   7  10
ENDBRANCH   1   7
BRANCH   5  22
ATOM     22  O   UNL     1      -2.182  13.080  20.207  0.00  0.00    +0.000 OA
BRANCH  22  23
ATOM     23  C   UNL     1      -2.573  12.435  19.043  0.00  0.00    +0.000 A 
ATOM     24  C   UNL     1      -3.893  11.991  18.796  0.00  0.00    +0.000 A 
ATOM     25  C   UNL     1      -5.056  12.211  19.719  0.00  0.00    +0.000 C 
ATOM     26  C   UNL     1      -4.169  11.280  17.607  0.00  0.00    +0.000 A 
ATOM     27  C   UNL     1      -3.193  11.102  16.620  0.00  0.00    +0.000 A 
ATOM     28  C   UNL     1      -1.934  11.642  16.823  0.00  0.00    +0.000 A 
ATOM     29  C   UNL     1      -1.604  12.311  18.021  0.00  0.00    +0.000 A 
ATOM     30  C   UNL     1      -0.229  12.914  18.156  0.00  0.00    +0.000 C 
BRANCH  27  31
ATOM     31  C   UNL     1      -3.518  10.401  15.404  0.00  0.00    +0.000 C 
ATOM     32  N   UNL     1      -3.770   9.855  14.417  0.00  0.00    +0.000 NA
ENDBRANCH  27  31
ENDBRANCH  22  23
ENDBRANCH   5  22
TORSDOF 7
ENDMDL
MODEL 7
REMARK VINA RESULT:      -7.7      7.857     11.567
REMARK  Name = 
REMARK  10 active torsions:
REMARK  status: ('A' for Active; 'I' for Inactive)
REMARK    1  A    between atoms: C_1  and  C_2
REMARK    2  A    between atoms: C_5  and  N_6
REMARK    3  A    between atoms: C_7  and  C_9
REMARK    4  A    between atoms: C_9  and  S_10
REMARK    5  A    between atoms: S_10  and  C_13
REMARK    6  A    between atoms: C_17  and  O_18
REMARK    7  A    between atoms: O_18  and  C_19
REMARK    8  A    between atoms: C_20  and  C_21
REMARK    9  A    between atoms: C_23  and  C_24
REMARK   10  A    between atoms: C_27  and  C_28
REMARK                            x       y       z     vdW  Elec       q    Type
REMARK                         _______ _______ _______ _____ _____    ______ ____
ROOT
ATOM      1  C   UNL     1      -1.677  10.544  18.153  0.00  0.00    +0.000 A 
ATOM      2  N   UNL     1      -1.827   9.740  17.082  0.00  0.00    +0.000 NA
ATOM      3  C   UNL     1      -3.018   9.827  16.458  0.00  0.00    +0.000 A 
ATOM      4  C   UNL     1      -4.006  10.712  16.832  0.00  0.00    +0.000 A 
ATOM      5  C   UNL     1      -3.715  11.500  17.932  0.00  0.00    +0.000 A 
ATOM      6  N   UNL     1      -2.571  11.418  18.642  0.00  0.00    +0.000 NA
ENDROOT
BRANCH   1   7
ATOM      7  S   UNL     1      -0.094  10.485  18.999  0.00  0.00    +0.000 S 
ATOM      8  O   UNL     1       0.289  11.844  19.343  0.00  0.00    +0.000 OA
ATOM      9  O   UNL     1       0.807   9.650  18.216  0.00  0.00    +0.000 OA
BRANCH   7  10
ATOM     10  C   UNL     1      -0.397   9.619  20.501  0.00  0.00    +0.000 C 
BRANCH  10  12
ATOM     11  N   UNL     1      -1.545  11.462  21.617  0.00  0.00    +0.000 N 
ATOM     12  C   UNL     1      -0.477  10.578  21.651  0.00  0.00    +0.000 C 
ATOM     13  O   UNL     1       0.426  10.571  22.488  0.00  0.00    +0.000 OA
ATOM     14  H   UNL     1      -2.279  11.301  20.926  0.00  0.00    +0.000 HD
BRANCH  11  19
ATOM     15  C   UNL     1      -2.807  15.323  25.673  0.00  0.00    +0.000 C 
ATOM     16  C   UNL     1      -2.467  14.322  24.607  0.00  0.00    +0.000 A 
ATOM     17  C   UNL     1      -1.361  14.513  23.777  0.00  0.00    +0.000 A 
ATOM     18  C   UNL     1      -1.050  13.579  22.785  0.00  0.00    +0.000 A 
ATOM     19  C   UNL     1      -1.833  12.443  22.598  0.00  0.00    +0.000 A 
ATOM     20  C   UNL     1      -2.954  12.256  23.416  0.00  0.00    +0.000 A 
ATOM     21  C   UNL     1      -3.260  13.184  24.422  0.00  0.00    +0.000 A 
ENDBRANCH  11  19
ENDBRANCH  10  12
ENDBRANCH   7  10
ENDBRANCH   1   7
BRANCH   5  22
ATOM     22  O   UNL     1      -4.633  12.523  18.218  0.00  0.00    +0.000 OA
BRANCH  22  23
ATOM     23  C   UNL     1      -5.321  12.486  19.422  0.00  0.00    +0.000 A 
ATOM     24  C   UNL     1      -6.342  11.552  19.715  0.00  0.00    +0.000 A 
ATOM     25  C   UNL     1      -6.773  10.442  18.802  0.00  0.00    +0.000 C 
ATOM     26  C   UNL     1      -7.029  11.646  20.946  0.00  0.00    +0.000 A 
ATOM     27  C   UNL     1      -6.649  12.572  21.924  0.00  0.00    +0.000 A 
ATOM     28  C   UNL     1      -5.573  13.406  21.670  0.00  0.00    +0.000 A 
ATOM     29  C   UNL     1      -4.896  13.379  20.432  0.00  0.00    +0.000 A 
ATOM     30  C   UNL     1      -3.704  14.282  20.241  0.00  0.00    +0.000 C 
BRANCH  27  31
ATOM     31  C   UNL     1      -7.350  12.619  23.181  0.00  0.00    +0.000 C 
ATOM     32  N   UNL     1      -7.900  12.641  24.198  0.00  0.00    +0.000 NA
ENDBRANCH  27  31
ENDBRANCH  22  23
ENDBRANCH   5  22
TORSDOF 7
ENDMDL
MODEL 8
REMARK VINA RESULT:      -7.6      5.151      8.590
REMARK  Name = 
REMARK  10 active torsions:
REMARK  status: ('A' for Active; 'I' for Inactive)
REMARK    1  A    between atoms: C_1  and  C_2
REMARK    2  A    between atoms: C_5  and  N_6
REMARK    3  A    between atoms: C_7  and  C_9
REMARK    4  A    between atoms: C_9  and  S_10
REMARK    5  A    between atoms: S_10  and  C_13
REMARK    6  A    between atoms: C_17  and  O_18
REMARK    7  A    between atoms: O_18  and  C_19
REMARK    8  A    between atoms: C_20  and  C_21
REMARK    9  A    between atoms: C_23  and  C_24
REMARK   10  A    between atoms: C_27  and  C_28
REMARK                            x       y       z     vdW  Elec       q    Type
REMARK                         _______ _______ _______ _____ _____    ______ ____
ROOT
ATOM      1  C   UNL     1      -0.074  11.237  21.358  0.00  0.00    +0.000 A 
ATOM      2  N   UNL     1       1.095  11.899  21.252  0.00  0.00    +0.000 NA
ATOM      3  C   UNL     1       1.037  13.070  20.589  0.00  0.00    +0.000 A 
ATOM      4  C   UNL     1      -0.134  13.604  20.096  0.00  0.00    +0.000 A 
ATOM      5  C   UNL     1      -1.269  12.837  20.295  0.00  0.00    +0.000 A 
ATOM      6  N   UNL     1      -1.271  11.627  20.892  0.00  0.00    +0.000 NA
ENDROOT
BRANCH   1   7
ATOM      7  S   UNL     1      -0.052   9.686  22.263  0.00  0.00    +0.000 S 
ATOM      8  O   UNL     1      -0.972   8.768  21.614  0.00  0.00    +0.000 OA
ATOM      9  O   UNL     1      -0.201   9.986  23.680  0.00  0.00    +0.000 OA
BRANCH   7  10
ATOM     10  C   UNL     1       1.576   9.046  22.057  0.00  0.00    +0.000 C 
BRANCH  10  12
ATOM     11  N   UNL     1       1.891   6.755  21.275  0.00  0.00    +0.000 N 
ATOM     12  C   UNL     1       1.612   8.068  20.921  0.00  0.00    +0.000 C 
ATOM     13  O   UNL     1       1.473   8.490  19.773  0.00  0.00    +0.000 OA
ATOM     14  H   UNL     1       1.887   6.515  22.266  0.00  0.00    +0.000 HD
BRANCH  11  19
ATOM     15  C   UNL     1       2.331   2.357  17.612  0.00  0.00    +0.000 C 
ATOM     16  C   UNL     1       2.203   3.502  18.575  0.00  0.00    +0.000 A 
ATOM     17  C   UNL     1       1.198   3.511  19.542  0.00  0.00    +0.000 A 
ATOM     18  C   UNL     1       1.081   4.580  20.434  0.00  0.00    +0.000 A 
ATOM     19  C   UNL     1       1.961   5.659  20.379  0.00  0.00    +0.000 A 
ATOM     20  C   UNL     1       2.960   5.663  19.400  0.00  0.00    +0.000 A 
ATOM     21  C   UNL     1       3.087   4.585  18.512  0.00  0.00    +0.000 A 
ENDBRANCH  11  19
ENDBRANCH  10  12
ENDBRANCH   7  10
ENDBRANCH   1   7
BRANCH   5  22
ATOM     22  O   UNL     1      -2.490  13.442  19.959  0.00  0.00    +0.000 OA
BRANCH  22  23
ATOM     23  C   UNL     1      -3.572  13.284  20.812  0.00  0.00    +0.000 A 
ATOM     24  C   UNL     1      -3.663  13.890  22.086  0.00  0.00    +0.000 A 
ATOM     25  C   UNL     1      -2.645  14.830  22.662  0.00  0.00    +0.000 C 
ATOM     26  C   UNL     1      -4.779  13.606  22.905  0.00  0.00    +0.000 A 
ATOM     27  C   UNL     1      -5.846  12.828  22.441  0.00  0.00    +0.000 A 
ATOM     28  C   UNL     1      -5.798  12.335  21.148  0.00  0.00    +0.000 A 
ATOM     29  C   UNL     1      -4.676  12.552  20.318  0.00  0.00    +0.000 A 
ATOM     30  C   UNL     1      -4.710  12.025  18.907  0.00  0.00    +0.000 C 
BRANCH  27  31
ATOM     31  C   UNL     1      -6.983  12.586  23.291  0.00  0.00    +0.000 C 
ATOM     32  N   UNL     1      -7.901  12.414  23.972  0.00  0.00    +0.000 NA
ENDBRANCH  27  31
ENDBRANCH  22  23
ENDBRANCH   5  22
TORSDOF 7
ENDMDL
MODEL 9
REMARK VINA RESULT:      -7.5      4.928      8.574
REMARK  Name = 
REMARK  10 active torsions:
REMARK  status: ('A' for Active; 'I' for Inactive)
REMARK    1  A    between atoms: C_1  and  C_2
REMARK    2  A    between atoms: C_5  and  N_6
REMARK    3  A    between atoms: C_7  and  C_9
REMARK    4  A    between atoms: C_9  and  S_10
REMARK    5  A    between atoms: S_10  and  C_13
REMARK    6  A    between atoms: C_17  and  O_18
REMARK    7  A    between atoms: O_18  and  C_19
REMARK    8  A    between atoms: C_20  and  C_21
REMARK    9  A    between atoms: C_23  and  C_24
REMARK   10  A    between atoms: C_27  and  C_28
REMARK                            x       y       z     vdW  Elec       q    Type
REMARK                         _______ _______ _______ _____ _____    ______ ____
ROOT
ATOM      1  C   UNL     1      -0.953  10.975  22.409  0.00  0.00    +0.000 A 
ATOM      2  N   UNL     1      -1.944  11.283  23.269  0.00  0.00    +0.000 NA
ATOM      3  C   UNL     1      -2.638  12.399  22.972  0.00  0.00    +0.000 A 
ATOM      4  C   UNL     1      -2.411  13.155  21.843  0.00  0.00    +0.000 A 
ATOM      5  C   UNL     1      -1.382  12.715  21.028  0.00  0.00    +0.000 A 
ATOM      6  N   UNL     1      -0.605  11.646  21.299  0.00  0.00    +0.000 NA
ENDROOT
BRANCH   1   7
ATOM      7  S   UNL     1      -0.019   9.479  22.746  0.00  0.00    +0.000 S 
ATOM      8  O   UNL     1      -0.800   8.342  22.288  0.00  0.00    +0.000 OA
ATOM      9  O   UNL     1       0.447   9.536  24.125  0.00  0.00    +0.000 OA
BRANCH   7  10
ATOM     10  C   UNL     1       1.416   9.584  21.730  0.00  0.00    +0.000 C 
BRANCH  10  12
ATOM     11  N   UNL     1       1.894   7.282  21.074  0.00  0.00    +0.000 N 
ATOM     12  C   UNL     1       1.393   8.514  20.680  0.00  0.00    +0.000 C 
ATOM     13  O   UNL     1       1.013   8.809  19.547  0.00  0.00    +0.000 OA
ATOM     14  H   UNL     1       2.084   7.137  22.065  0.00  0.00    +0.000 HD
BRANCH  11  19
ATOM     15  C   UNL     1       2.294   2.641  17.719  0.00  0.00    +0.000 C 
ATOM     16  C   UNL     1       2.179   3.848  18.604  0.00  0.00    +0.000 A 
ATOM     17  C   UNL     1       1.356   3.830  19.730  0.00  0.00    +0.000 A 
ATOM     18  C   UNL     1       1.250   4.957  20.550  0.00  0.00    +0.000 A 
ATOM     19  C   UNL     1       1.957   6.123  20.262  0.00  0.00    +0.000 A 
ATOM     20  C   UNL     1       2.770   6.151  19.123  0.00  0.00    +0.000 A 
ATOM     21  C   UNL     1       2.889   5.017  18.307  0.00  0.00    +0.000 A 
ENDBRANCH  11  19
ENDBRANCH  10  12
ENDBRANCH   7  10
ENDBRANCH   1   7
BRANCH   5  22
ATOM     22  O   UNL     1      -1.253  13.367  19.792  0.00  0.00    +0.000 OA
BRANCH  22  23
ATOM     23  C   UNL     1      -0.150  14.181  19.577  0.00  0.00    +0.000 A 
ATOM     24  C   UNL     1      -0.055  15.513  20.043  0.00  0.00    +0.000 A 
ATOM     25  C   UNL     1      -1.092  16.203  20.880  0.00  0.00    +0.000 C 
ATOM     26  C   UNL     1       1.084  16.279  19.709  0.00  0.00    +0.000 A 
ATOM     27  C   UNL     1       2.166  15.716  19.022  0.00  0.00    +0.000 A 
ATOM     28  C   UNL     1       2.109  14.378  18.672  0.00  0.00    +0.000 A 
ATOM     29  C   UNL     1       0.966  13.594  18.940  0.00  0.00    +0.000 A 
ATOM     30  C   UNL     1       0.991  12.132  18.572  0.00  0.00    +0.000 C 
BRANCH  27  31
ATOM     31  C   UNL     1       3.326  16.518  18.727  0.00  0.00    +0.000 C 
ATOM     32  N   UNL     1       4.244  17.178  18.488  0.00  0.00    +0.000 NA
ENDBRANCH  27  31
ENDBRANCH  22  23
ENDBRANCH   5  22
TORSDOF 7
ENDMDL
