MODEL 1
REMARK VINA RESULT:      -8.5      0.000      0.000
REMARK  Name = 
REMARK  11 active torsions:
REMARK  status: ('A' for Active; 'I' for Inactive)
REMARK    1  A    between atoms: C_1  and  O_2
REMARK    2  A    between atoms: O_2  and  C_3
REMARK    3  A    between atoms: C_6  and  N_7
REMARK    4  A    between atoms: C_8  and  C_10
REMARK    5  A    between atoms: C_12  and  C_13
REMARK    6  A    between atoms: N_15  and  C_16
REMARK    7  A    between atoms: C_16  and  C_17
REMARK    8  A    between atoms: C_16  and  C_18
REMARK    9  A    between atoms: C_26  and  C_27
REMARK   10  A    between atoms: C_28  and  O_29
REMARK   11  A    between atoms: O_29  and  C_30
REMARK                            x       y       z     vdW  Elec       q    Type
REMARK                         _______ _______ _______ _____ _____    ______ ____
ROOT
ATOM      1  C   UNL     1       0.829   9.414  18.959  0.00  0.00    +0.000 A 
ATOM      2  S   UNL     1       1.758   8.720  17.695  0.00  0.00    +0.000 S 
ATOM      3  C   UNL     1       2.380   7.559  18.790  0.00  0.00    +0.000 A 
ATOM      4  N   UNL     1       2.047   7.748  20.052  0.00  0.00    +0.000 NA
ATOM      5  C   UNL     1       1.174   8.822  20.161  0.00  0.00    +0.000 A 
ATOM      6  C   UNL     1       0.710   9.202  21.527  0.00  0.00    +0.000 C 
ENDROOT
BRANCH   3   7
ATOM      7  C   UNL     1       3.235   6.400  18.361  0.00  0.00    +0.000 A 
ATOM      8  C   UNL     1       4.550   6.494  17.941  0.00  0.00    +0.000 A 
ATOM      9  N   UNL     1       4.992   5.220  17.635  0.00  0.00    +0.000 N 
ATOM     10  C   UNL     1       3.952   4.328  17.802  0.00  0.00    +0.000 A 
ATOM     11  N   UNL     1       4.018   3.004  17.541  0.00  0.00    +0.000 NA
ATOM     12  C   UNL     1       2.842   2.363  17.773  0.00  0.00    +0.000 A 
ATOM     13  C   UNL     1       1.669   2.948  18.230  0.00  0.00    +0.000 A 
ATOM     14  C   UNL     1       1.664   4.312  18.487  0.00  0.00    +0.000 A 
ATOM     15  C   UNL     1       2.843   5.040  18.261  0.00  0.00    +0.000 A 
BRANCH   9  16
ATOM     16  C   UNL     1       6.331   4.883  17.159  0.00  0.00    +0.000 C 
ATOM     17  C   UNL     1       6.450   4.984  15.636  0.00  0.00    +0.000 C 
ATOM     18  C   UNL     1       7.416   5.726  17.828  0.00  0.00    +0.000 C 
ENDBRANCH   9  16
ENDBRANCH   3   7
BRANCH   1  20
ATOM     19  N   UNL     1      -1.473   9.943  18.510  0.00  0.00    +0.000 N 
ATOM     20  C   UNL     1      -0.180  10.425  18.691  0.00  0.00    +0.000 C 
ATOM     21  O   UNL     1       0.098  11.626  18.610  0.00  0.00    +0.000 OA
ATOM     22  H   UNL     1      -1.556   8.967  18.250  0.00  0.00    +0.000 HD
BRANCH  19  26
ATOM     23  C   UNL     1      -4.929  12.239  17.802  0.00  0.00    +0.000 A 
ATOM     24  C   UNL     1      -4.262  12.312  19.028  0.00  0.00    +0.000 A 
ATOM     25  C   UNL     1      -3.088  11.589  19.245  0.00  0.00    +0.000 A 
ATOM     26  C   UNL     1      -2.575  10.770  18.234  0.00  0.00    +0.000 A 
ATOM     27  C   UNL     1      -3.229  10.703  16.991  0.00  0.00    +0.000 A 
ATOM     28  C   UNL     1      -4.405  11.436  16.785  0.00  0.00    +0.000 A 
BRANCH  23  30
ATOM     29  C   UNL     1      -7.293  12.398  18.066  0.00  0.00    +0.000 C 
ATOM     30  O   UNL     1      -6.057  13.010  17.711  0.00  0.00    +0.000 OA
ENDBRANCH  23  30
BRANCH  27  31
ATOM     31  O   UNL     1      -2.581   9.994  16.009  0.00  0.00    +0.000 OA
ATOM     32  C   UNL     1      -3.024  10.202  14.671  0.00  0.00    +0.000 C 
ENDBRANCH  27  31
ENDBRANCH  19  26
ENDBRANCH   1  20
TORSDOF 6
ENDMDL
MODEL 2
REMARK VINA RESULT:      -8.2      2.986      3.649
REMARK  Name = 
REMARK  11 active torsions:
REMARK  status: ('A' for Active; 'I' for Inactive)
REMARK    1  A    between atoms: C_1  and  O_2
REMARK    2  A    between atoms: O_2  and  C_3
REMARK    3  A    between atoms: C_6  and  N_7
REMARK    4  A    between atoms: C_8  and  C_10
REMARK    5  A    between atoms: C_12  and  C_13
REMARK    6  A    between atoms: N_15  and  C_16
REMARK    7  A    between atoms: C_16  and  C_17
REMARK    8  A    between atoms: C_16  and  C_18
REMARK    9  A    between atoms: C_26  and  C_27
REMARK   10  A    between atoms: C_28  and  O_29
REMARK   11  A    between atoms: O_29  and  C_30
REMARK                            x       y       z     vdW  Elec       q    Type
REMARK                         _______ _______ _______ _____ _____    ______ ____
ROOT
ATOM      1  C   UNL     1       1.282   9.286  19.223  0.00  0.00    +0.000 A 
ATOM      2  S   UNL     1       2.136   8.625  17.891  0.00  0.00    +0.000 S 
ATOM      3  C   UNL     1       2.497   7.228  18.816  0.00  0.00    +0.000 A 
ATOM      4  N   UNL     1       2.142   7.293  20.084  0.00  0.00    +0.000 NA
ATOM      5  C   UNL     1       1.463   8.477  20.332  0.00  0.00    +0.000 A 
ATOM      6  C   UNL     1       1.006   8.736  21.728  0.00  0.00    +0.000 C 
ENDROOT
BRANCH   3   7
ATOM      7  C   UNL     1       3.158   6.008  18.239  0.00  0.00    +0.000 A 
ATOM      8  C   UNL     1       4.306   6.017  17.465  0.00  0.00    +0.000 A 
ATOM      9  N   UNL     1       4.602   4.709  17.127  0.00  0.00    +0.000 N 
ATOM     10  C   UNL     1       3.621   3.879  17.631  0.00  0.00    +0.000 A 
ATOM     11  N   UNL     1       3.568   2.542  17.445  0.00  0.00    +0.000 NA
ATOM     12  C   UNL     1       2.484   1.971  18.034  0.00  0.00    +0.000 A 
ATOM     13  C   UNL     1       1.506   2.635  18.762  0.00  0.00    +0.000 A 
ATOM     14  C   UNL     1       1.618   4.009  18.925  0.00  0.00    +0.000 A 
ATOM     15  C   UNL     1       2.710   4.666  18.336  0.00  0.00    +0.000 A 
BRANCH   9  16
ATOM     16  C   UNL     1       5.742   4.283  16.319  0.00  0.00    +0.000 C 
ATOM     17  C   UNL     1       5.621   4.731  14.860  0.00  0.00    +0.000 C 
ATOM     18  C   UNL     1       7.075   4.750  16.903  0.00  0.00    +0.000 C 
ENDBRANCH   9  16
ENDBRANCH   3   7
BRANCH   1  20
ATOM     19  N   UNL     1       0.990  11.625  19.699  0.00  0.00    +0.000 N 
ATOM     20  C   UNL     1       0.476  10.487  19.086  0.00  0.00    +0.000 C 
ATOM     21  O   UNL     1      -0.603  10.488  18.481  0.00  0.00    +0.000 OA
ATOM     22  H   UNL     1       1.665  11.469  20.439  0.00  0.00    +0.000 HD
BRANCH  19  26
ATOM     23  C   UNL     1      -0.707  15.476  19.704  0.00  0.00    +0.000 A 
ATOM     24  C   UNL     1      -0.035  14.994  18.577  0.00  0.00    +0.000 A 
ATOM     25  C   UNL     1       0.484  13.698  18.558  0.00  0.00    +0.000 A 
ATOM     26  C   UNL     1       0.346  12.873  19.679  0.00  0.00    +0.000 A 
ATOM     27  C   UNL     1      -0.343  13.343  20.811  0.00  0.00    +0.000 A 
ATOM     28  C   UNL     1      -0.862  14.645  20.817  0.00  0.00    +0.000 A 
BRANCH  23  30
ATOM     29  C   UNL     1      -0.838  17.473  18.409  0.00  0.00    +0.000 C 
ATOM     30  O   UNL     1      -1.184  16.754  19.588  0.00  0.00    +0.000 OA
ENDBRANCH  23  30
BRANCH  27  31
ATOM     31  O   UNL     1      -0.561  12.423  21.807  0.00  0.00    +0.000 OA
ATOM     32  C   UNL     1      -1.240  12.887  22.971  0.00  0.00    +0.000 C 
ENDBRANCH  27  31
ENDBRANCH  19  26
ENDBRANCH   1  20
TORSDOF 6
ENDMDL
MODEL 3
REMARK VINA RESULT:      -8.1      2.949      3.555
REMARK  Name = 
REMARK  11 active torsions:
REMARK  status: ('A' for Active; 'I' for Inactive)
REMARK    1  A    between atoms: C_1  and  O_2
REMARK    2  A    between atoms: O_2  and  C_3
REMARK    3  A    between atoms: C_6  and  N_7
REMARK    4  A    between atoms: C_8  and  C_10
REMARK    5  A    between atoms: C_12  and  C_13
REMARK    6  A    between atoms: N_15  and  C_16
REMARK    7  A    between atoms: C_16  and  C_17
REMARK    8  A    between atoms: C_16  and  C_18
REMARK    9  A    between atoms: C_26  and  C_27
REMARK   10  A    between atoms: C_28  and  O_29
REMARK   11  A    between atoms: O_29  and  C_30
REMARK                            x       y       z     vdW  Elec       q    Type
REMARK                         _______ _______ _______ _____ _____    ______ ____
ROOT
ATOM      1  C   UNL     1       1.342   9.391  19.264  0.00  0.00    +0.000 A 
ATOM      2  S   UNL     1       2.242   8.724  17.965  0.00  0.00    +0.000 S 
ATOM      3  C   UNL     1       2.455   7.276  18.855  0.00  0.00    +0.000 A 
ATOM      4  N   UNL     1       2.021   7.318  20.100  0.00  0.00    +0.000 NA
ATOM      5  C   UNL     1       1.399   8.534  20.350  0.00  0.00    +0.000 A 
ATOM      6  C   UNL     1       0.868   8.771  21.723  0.00  0.00    +0.000 C 
ENDROOT
BRANCH   3   7
ATOM      7  C   UNL     1       3.078   6.038  18.275  0.00  0.00    +0.000 A 
ATOM      8  C   UNL     1       4.245   6.010  17.530  0.00  0.00    +0.000 A 
ATOM      9  N   UNL     1       4.494   4.696  17.178  0.00  0.00    +0.000 N 
ATOM     10  C   UNL     1       3.466   3.901  17.643  0.00  0.00    +0.000 A 
ATOM     11  N   UNL     1       3.361   2.570  17.433  0.00  0.00    +0.000 NA
ATOM     12  C   UNL     1       2.239   2.038  17.984  0.00  0.00    +0.000 A 
ATOM     13  C   UNL     1       1.271   2.731  18.699  0.00  0.00    +0.000 A 
ATOM     14  C   UNL     1       1.437   4.097  18.888  0.00  0.00    +0.000 A 
ATOM     15  C   UNL     1       2.571   4.715  18.337  0.00  0.00    +0.000 A 
BRANCH   9  16
ATOM     16  C   UNL     1       5.636   4.235  16.393  0.00  0.00    +0.000 C 
ATOM     17  C   UNL     1       5.545   4.666  14.927  0.00  0.00    +0.000 C 
ATOM     18  C   UNL     1       6.970   4.678  16.990  0.00  0.00    +0.000 C 
ENDBRANCH   9  16
ENDBRANCH   3   7
BRANCH   1  20
ATOM     19  N   UNL     1       1.177  11.732  19.787  0.00  0.00    +0.000 N 
ATOM     20  C   UNL     1       0.620  10.644  19.123  0.00  0.00    +0.000 C 
ATOM     21  O   UNL     1      -0.427  10.728  18.471  0.00  0.00    +0.000 OA
ATOM     22  H   UNL     1       1.806  11.516  20.553  0.00  0.00    +0.000 HD
BRANCH  19  26
ATOM     23  C   UNL     1      -0.700  15.493  19.578  0.00  0.00    +0.000 A 
ATOM     24  C   UNL     1      -1.147  14.521  20.477  0.00  0.00    +0.000 A 
ATOM     25  C   UNL     1      -0.493  13.292  20.582  0.00  0.00    +0.000 A 
ATOM     26  C   UNL     1       0.615  13.019  19.771  0.00  0.00    +0.000 A 
ATOM     27  C   UNL     1       1.082  13.996  18.876  0.00  0.00    +0.000 A 
ATOM     28  C   UNL     1       0.418  15.227  18.782  0.00  0.00    +0.000 A 
BRANCH  23  30
ATOM     29  C   UNL     1      -1.260  17.526  18.467  0.00  0.00    +0.000 C 
ATOM     30  O   UNL     1      -1.416  16.660  19.586  0.00  0.00    +0.000 OA
ENDBRANCH  23  30
BRANCH  27  31
ATOM     31  O   UNL     1       2.256  13.704  18.226  0.00  0.00    +0.000 OA
ATOM     32  C   UNL     1       3.266  14.709  18.244  0.00  0.00    +0.000 C 
ENDBRANCH  27  31
ENDBRANCH  19  26
ENDBRANCH   1  20
TORSDOF 6
ENDMDL
MODEL 4
REMARK VINA RESULT:      -8.1      1.245      1.292
REMARK  Name = 
REMARK  11 active torsions:
REMARK  status: ('A' for Active; 'I' for Inactive)
REMARK    1  A    between atoms: C_1  and  O_2
REMARK    2  A    between atoms: O_2  and  C_3
REMARK    3  A    between atoms: C_6  and  N_7
REMARK    4  A    between atoms: C_8  and  C_10
REMARK    5  A    between atoms: C_12  and  C_13
REMARK    6  A    between atoms: N_15  and  C_16
REMARK    7  A    between atoms: C_16  and  C_17
REMARK    8  A    between atoms: C_16  and  C_18
REMARK    9  A    between atoms: C_26  and  C_27
REMARK   10  A    between atoms: C_28  and  O_29
REMARK   11  A    between atoms: O_29  and  C_30
REMARK                            x       y       z     vdW  Elec       q    Type
REMARK                         _______ _______ _______ _____ _____    ______ ____
ROOT
ATOM      1  C   UNL     1       0.221   9.966  19.136  0.00  0.00    +0.000 A 
ATOM      2  S   UNL     1       1.211   9.160  17.990  0.00  0.00    +0.000 S 
ATOM      3  C   UNL     1       1.857   8.179  19.239  0.00  0.00    +0.000 A 
ATOM      4  N   UNL     1       1.484   8.514  20.458  0.00  0.00    +0.000 NA
ATOM      5  C   UNL     1       0.562   9.550  20.412  0.00  0.00    +0.000 A 
ATOM      6  C   UNL     1       0.047  10.079  21.707  0.00  0.00    +0.000 C 
ENDROOT
BRANCH   3   7
ATOM      7  C   UNL     1       2.772   7.016  18.980  0.00  0.00    +0.000 A 
ATOM      8  C   UNL     1       3.802   7.005  18.055  0.00  0.00    +0.000 A 
ATOM      9  N   UNL     1       4.412   5.766  18.112  0.00  0.00    +0.000 N 
ATOM     10  C   UNL     1       3.743   4.974  19.023  0.00  0.00    +0.000 A 
ATOM     11  N   UNL     1       4.041   3.683  19.291  0.00  0.00    +0.000 NA
ATOM     12  C   UNL     1       3.209   3.133  20.216  0.00  0.00    +0.000 A 
ATOM     13  C   UNL     1       2.155   3.776  20.851  0.00  0.00    +0.000 A 
ATOM     14  C   UNL     1       1.902   5.104  20.537  0.00  0.00    +0.000 A 
ATOM     15  C   UNL     1       2.717   5.734  19.584  0.00  0.00    +0.000 A 
BRANCH   9  16
ATOM     16  C   UNL     1       5.550   5.347  17.297  0.00  0.00    +0.000 C 
ATOM     17  C   UNL     1       5.118   4.789  15.938  0.00  0.00    +0.000 C 
ATOM     18  C   UNL     1       6.572   6.467  17.105  0.00  0.00    +0.000 C 
ENDBRANCH   9  16
ENDBRANCH   3   7
BRANCH   1  20
ATOM     19  N   UNL     1      -2.108  10.347  18.675  0.00  0.00    +0.000 N 
ATOM     20  C   UNL     1      -0.825  10.884  18.720  0.00  0.00    +0.000 C 
ATOM     21  O   UNL     1      -0.585  12.057  18.410  0.00  0.00    +0.000 OA
ATOM     22  H   UNL     1      -2.169   9.338  18.601  0.00  0.00    +0.000 HD
BRANCH  19  26
ATOM     23  C   UNL     1      -5.653  12.363  17.635  0.00  0.00    +0.000 A 
ATOM     24  C   UNL     1      -5.070  12.546  18.892  0.00  0.00    +0.000 A 
ATOM     25  C   UNL     1      -3.867  11.917  19.218  0.00  0.00    +0.000 A 
ATOM     26  C   UNL     1      -3.241  11.081  18.287  0.00  0.00    +0.000 A 
ATOM     27  C   UNL     1      -3.811  10.904  17.014  0.00  0.00    +0.000 A 
ATOM     28  C   UNL     1      -5.017  11.544  16.697  0.00  0.00    +0.000 A 
BRANCH  23  30
ATOM     29  C   UNL     1      -6.759  14.205  16.603  0.00  0.00    +0.000 C 
ATOM     30  O   UNL     1      -6.820  13.050  17.434  0.00  0.00    +0.000 OA
ENDBRANCH  23  30
BRANCH  27  31
ATOM     31  O   UNL     1      -3.059  10.189  16.113  0.00  0.00    +0.000 OA
ATOM     32  C   UNL     1      -3.301  10.443  14.733  0.00  0.00    +0.000 C 
ENDBRANCH  27  31
ENDBRANCH  19  26
ENDBRANCH   1  20
TORSDOF 6
ENDMDL
MODEL 5
REMARK VINA RESULT:      -8.0      0.942      1.053
REMARK  Name = 
REMARK  11 active torsions:
REMARK  status: ('A' for Active; 'I' for Inactive)
REMARK    1  A    between atoms: C_1  and  O_2
REMARK    2  A    between atoms: O_2  and  C_3
REMARK    3  A    between atoms: C_6  and  N_7
REMARK    4  A    between atoms: C_8  and  C_10
REMARK    5  A    between atoms: C_12  and  C_13
REMARK    6  A    between atoms: N_15  and  C_16
REMARK    7  A    between atoms: C_16  and  C_17
REMARK    8  A    between atoms: C_16  and  C_18
REMARK    9  A    between atoms: C_26  and  C_27
REMARK   10  A    between atoms: C_28  and  O_29
REMARK   11  A    between atoms: O_29  and  C_30
REMARK                            x       y       z     vdW  Elec       q    Type
REMARK                         _______ _______ _______ _____ _____    ______ ____
ROOT
ATOM      1  C   UNL     1       1.085   9.259  19.175  0.00  0.00    +0.000 A 
ATOM      2  S   UNL     1       1.888   8.572  17.823  0.00  0.00    +0.000 S 
ATOM      3  C   UNL     1       2.469   7.301  18.815  0.00  0.00    +0.000 A 
ATOM      4  N   UNL     1       2.219   7.440  20.102  0.00  0.00    +0.000 NA
ATOM      5  C   UNL     1       1.443   8.569  20.321  0.00  0.00    +0.000 A 
ATOM      6  C   UNL     1       1.082   8.901  21.729  0.00  0.00    +0.000 C 
ENDROOT
BRANCH   3   7
ATOM      7  C   UNL     1       3.204   6.107  18.274  0.00  0.00    +0.000 A 
ATOM      8  C   UNL     1       4.417   6.154  17.608  0.00  0.00    +0.000 A 
ATOM      9  N   UNL     1       4.767   4.859  17.270  0.00  0.00    +0.000 N 
ATOM     10  C   UNL     1       3.761   4.001  17.664  0.00  0.00    +0.000 A 
ATOM     11  N   UNL     1       3.750   2.668  17.444  0.00  0.00    +0.000 NA
ATOM     12  C   UNL     1       2.628   2.065  17.919  0.00  0.00    +0.000 A 
ATOM     13  C   UNL     1       1.576   2.695  18.570  0.00  0.00    +0.000 A 
ATOM     14  C   UNL     1       1.646   4.067  18.772  0.00  0.00    +0.000 A 
ATOM     15  C   UNL     1       2.774   4.756  18.300  0.00  0.00    +0.000 A 
BRANCH   9  16
ATOM     16  C   UNL     1       5.984   4.472  16.561  0.00  0.00    +0.000 C 
ATOM     17  C   UNL     1       6.070   5.102  15.168  0.00  0.00    +0.000 C 
ATOM     18  C   UNL     1       7.248   4.787  17.359  0.00  0.00    +0.000 C 
ENDBRANCH   9  16
ENDBRANCH   3   7
BRANCH   1  20
ATOM     19  N   UNL     1      -1.178  10.060  19.318  0.00  0.00    +0.000 N 
ATOM     20  C   UNL     1       0.148  10.359  19.021  0.00  0.00    +0.000 C 
ATOM     21  O   UNL     1       0.507  11.477  18.635  0.00  0.00    +0.000 OA
ATOM     22  H   UNL     1      -1.434   9.079  19.285  0.00  0.00    +0.000 HD
BRANCH  19  26
ATOM     23  C   UNL     1      -4.446  12.708  19.192  0.00  0.00    +0.000 A 
ATOM     24  C   UNL     1      -3.494  12.797  20.212  0.00  0.00    +0.000 A 
ATOM     25  C   UNL     1      -2.384  11.952  20.225  0.00  0.00    +0.000 A 
ATOM     26  C   UNL     1      -2.222  10.994  19.218  0.00  0.00    +0.000 A 
ATOM     27  C   UNL     1      -3.165  10.908  18.179  0.00  0.00    +0.000 A 
ATOM     28  C   UNL     1      -4.275  11.765  18.175  0.00  0.00    +0.000 A 
BRANCH  23  30
ATOM     29  C   UNL     1      -5.788  14.106  20.580  0.00  0.00    +0.000 C 
ATOM     30  O   UNL     1      -5.476  13.606  19.284  0.00  0.00    +0.000 OA
ENDBRANCH  23  30
BRANCH  27  31
ATOM     31  O   UNL     1      -2.856  10.044  17.157  0.00  0.00    +0.000 OA
ATOM     32  C   UNL     1      -2.674  10.618  15.866  0.00  0.00    +0.000 C 
ENDBRANCH  27  31
ENDBRANCH  19  26
ENDBRANCH   1  20
TORSDOF 6
ENDMDL
MODEL 6
REMARK VINA RESULT:      -7.9      0.854      2.468
REMARK  Name = 
REMARK  11 active torsions:
REMARK  status: ('A' for Active; 'I' for Inactive)
REMARK    1  A    between atoms: C_1  and  O_2
REMARK    2  A    between atoms: O_2  and  C_3
REMARK    3  A    between atoms: C_6  and  N_7
REMARK    4  A    between atoms: C_8  and  C_10
REMARK    5  A    between atoms: C_12  and  C_13
REMARK    6  A    between atoms: N_15  and  C_16
REMARK    7  A    between atoms: C_16  and  C_17
REMARK    8  A    between atoms: C_16  and  C_18
REMARK    9  A    between atoms: C_26  and  C_27
REMARK   10  A    between atoms: C_28  and  O_29
REMARK   11  A    between atoms: O_29  and  C_30
REMARK                            x       y       z     vdW  Elec       q    Type
REMARK                         _______ _______ _______ _____ _____    ______ ____
ROOT
ATOM      1  C   UNL     1       0.691   9.452  19.034  0.00  0.00    +0.000 A 
ATOM      2  S   UNL     1       1.515   8.562  17.820  0.00  0.00    +0.000 S 
ATOM      3  C   UNL     1       2.175   7.535  19.022  0.00  0.00    +0.000 A 
ATOM      4  N   UNL     1       1.932   7.903  20.264  0.00  0.00    +0.000 NA
ATOM      5  C   UNL     1       1.098   9.012  20.282  0.00  0.00    +0.000 A 
ATOM      6  C   UNL     1       0.735   9.586  21.609  0.00  0.00    +0.000 C 
ENDROOT
BRANCH   3   7
ATOM      7  C   UNL     1       2.967   6.299  18.701  0.00  0.00    +0.000 A 
ATOM      8  C   UNL     1       2.640   5.017  19.109  0.00  0.00    +0.000 A 
ATOM      9  N   UNL     1       3.604   4.155  18.618  0.00  0.00    +0.000 N 
ATOM     10  C   UNL     1       4.567   4.886  17.952  0.00  0.00    +0.000 A 
ATOM     11  N   UNL     1       5.682   4.367  17.392  0.00  0.00    +0.000 NA
ATOM     12  C   UNL     1       6.471   5.314  16.818  0.00  0.00    +0.000 A 
ATOM     13  C   UNL     1       6.213   6.678  16.777  0.00  0.00    +0.000 A 
ATOM     14  C   UNL     1       5.048   7.151  17.366  0.00  0.00    +0.000 A 
ATOM     15  C   UNL     1       4.189   6.228  17.985  0.00  0.00    +0.000 A 
BRANCH   9  16
ATOM     16  C   UNL     1       3.625   2.709  18.820  0.00  0.00    +0.000 C 
ATOM     17  C   UNL     1       4.367   2.310  20.098  0.00  0.00    +0.000 C 
ATOM     18  C   UNL     1       2.222   2.101  18.815  0.00  0.00    +0.000 C 
ENDBRANCH   9  16
ENDBRANCH   3   7
BRANCH   1  20
ATOM     19  N   UNL     1      -1.590   9.967  18.473  0.00  0.00    +0.000 N 
ATOM     20  C   UNL     1      -0.306  10.453  18.695  0.00  0.00    +0.000 C 
ATOM     21  O   UNL     1      -0.023  11.652  18.592  0.00  0.00    +0.000 OA
ATOM     22  H   UNL     1      -1.662   8.983  18.237  0.00  0.00    +0.000 HD
BRANCH  19  26
ATOM     23  C   UNL     1      -5.013  12.226  17.529  0.00  0.00    +0.000 A 
ATOM     24  C   UNL     1      -4.478  12.247  18.821  0.00  0.00    +0.000 A 
ATOM     25  C   UNL     1      -3.314  11.537  19.121  0.00  0.00    +0.000 A 
ATOM     26  C   UNL     1      -2.678  10.784  18.127  0.00  0.00    +0.000 A 
ATOM     27  C   UNL     1      -3.200  10.771  16.821  0.00  0.00    +0.000 A 
ATOM     28  C   UNL     1      -4.367  11.490  16.532  0.00  0.00    +0.000 A 
BRANCH  23  30
ATOM     29  C   UNL     1      -7.320  12.544  18.039  0.00  0.00    +0.000 C 
ATOM     30  O   UNL     1      -6.145  12.978  17.362  0.00  0.00    +0.000 OA
ENDBRANCH  23  30
BRANCH  27  31
ATOM     31  O   UNL     1      -2.437  10.129  15.876  0.00  0.00    +0.000 OA
ATOM     32  C   UNL     1      -2.986  10.037  14.565  0.00  0.00    +0.000 C 
ENDBRANCH  27  31
ENDBRANCH  19  26
ENDBRANCH   1  20
TORSDOF 6
ENDMDL
MODEL 7
REMARK VINA RESULT:      -7.9      3.458      4.008
REMARK  Name = 
REMARK  11 active torsions:
REMARK  status: ('A' for Active; 'I' for Inactive)
REMARK    1  A    between atoms: C_1  and  O_2
REMARK    2  A    between atoms: O_2  and  C_3
REMARK    3  A    between atoms: C_6  and  N_7
REMARK    4  A    between atoms: C_8  and  C_10
REMARK    5  A    between atoms: C_12  and  C_13
REMARK    6  A    between atoms: N_15  and  C_16
REMARK    7  A    between atoms: C_16  and  C_17
REMARK    8  A    between atoms: C_16  and  C_18
REMARK    9  A    between atoms: C_26  and  C_27
REMARK   10  A    between atoms: C_28  and  O_29
REMARK   11  A    between atoms: O_29  and  C_30
REMARK                            x       y       z     vdW  Elec       q    Type
REMARK                         _______ _______ _______ _____ _____    ______ ____
ROOT
ATOM      1  C   UNL     1       1.301   9.035  20.214  0.00  0.00    +0.000 A 
ATOM      2  S   UNL     1       1.719   7.393  20.477  0.00  0.00    +0.000 S 
ATOM      3  C   UNL     1       2.329   7.293  18.879  0.00  0.00    +0.000 A 
ATOM      4  N   UNL     1       2.110   8.356  18.131  0.00  0.00    +0.000 NA
ATOM      5  C   UNL     1       1.503   9.353  18.882  0.00  0.00    +0.000 A 
ATOM      6  C   UNL     1       1.154  10.627  18.189  0.00  0.00    +0.000 C 
ENDROOT
BRANCH   3   7
ATOM      7  C   UNL     1       3.069   6.094  18.355  0.00  0.00    +0.000 A 
ATOM      8  C   UNL     1       4.304   6.132  17.732  0.00  0.00    +0.000 A 
ATOM      9  N   UNL     1       4.652   4.836  17.397  0.00  0.00    +0.000 N 
ATOM     10  C   UNL     1       3.625   3.986  17.752  0.00  0.00    +0.000 A 
ATOM     11  N   UNL     1       3.608   2.654  17.523  0.00  0.00    +0.000 NA
ATOM     12  C   UNL     1       2.465   2.061  17.956  0.00  0.00    +0.000 A 
ATOM     13  C   UNL     1       1.397   2.697  18.575  0.00  0.00    +0.000 A 
ATOM     14  C   UNL     1       1.475   4.067  18.788  0.00  0.00    +0.000 A 
ATOM     15  C   UNL     1       2.625   4.747  18.358  0.00  0.00    +0.000 A 
BRANCH   9  16
ATOM     16  C   UNL     1       5.889   4.441  16.727  0.00  0.00    +0.000 C 
ATOM     17  C   UNL     1       5.974   4.983  15.298  0.00  0.00    +0.000 C 
ATOM     18  C   UNL     1       7.133   4.842  17.517  0.00  0.00    +0.000 C 
ENDBRANCH   9  16
ENDBRANCH   3   7
BRANCH   1  20
ATOM     19  N   UNL     1      -0.084  10.852  20.967  0.00  0.00    +0.000 N 
ATOM     20  C   UNL     1       0.864   9.890  21.305  0.00  0.00    +0.000 C 
ATOM     21  O   UNL     1       1.321   9.780  22.448  0.00  0.00    +0.000 OA
ATOM     22  H   UNL     1      -0.140  11.100  19.986  0.00  0.00    +0.000 HD
BRANCH  19  26
ATOM     23  C   UNL     1      -1.858  13.670  23.540  0.00  0.00    +0.000 A 
ATOM     24  C   UNL     1      -2.371  12.374  23.438  0.00  0.00    +0.000 A 
ATOM     25  C   UNL     1      -1.753  11.425  22.623  0.00  0.00    +0.000 A 
ATOM     26  C   UNL     1      -0.614  11.771  21.887  0.00  0.00    +0.000 A 
ATOM     27  C   UNL     1      -0.080  13.067  21.997  0.00  0.00    +0.000 A 
ATOM     28  C   UNL     1      -0.708  14.010  22.821  0.00  0.00    +0.000 A 
BRANCH  23  30
ATOM     29  C   UNL     1      -3.928  14.702  24.115  0.00  0.00    +0.000 C 
ATOM     30  O   UNL     1      -2.545  14.498  24.387  0.00  0.00    +0.000 OA
ENDBRANCH  23  30
BRANCH  27  31
ATOM     31  O   UNL     1       1.118  13.279  21.359  0.00  0.00    +0.000 OA
ATOM     32  C   UNL     1       1.115  14.215  20.284  0.00  0.00    +0.000 C 
ENDBRANCH  27  31
ENDBRANCH  19  26
ENDBRANCH   1  20
TORSDOF 6
ENDMDL
MODEL 8
REMARK VINA RESULT:      -7.7      2.792      3.683
REMARK  Name = 
REMARK  11 active torsions:
REMARK  status: ('A' for Active; 'I' for Inactive)
REMARK    1  A    between atoms: C_1  and  O_2
REMARK    2  A    between atoms: O_2  and  C_3
REMARK    3  A    between atoms: C_6  and  N_7
REMARK    4  A    between atoms: C_8  and  C_10
REMARK    5  A    between atoms: C_12  and  C_13
REMARK    6  A    between atoms: N_15  and  C_16
REMARK    7  A    between atoms: C_16  and  C_17
REMARK    8  A    between atoms: C_16  and  C_18
REMARK    9  A    between atoms: C_26  and  C_27
REMARK   10  A    between atoms: C_28  and  O_29
REMARK   11  A    between atoms: O_29  and  C_30
REMARK                            x       y       z     vdW  Elec       q    Type
REMARK                         _______ _______ _______ _____ _____    ______ ____
ROOT
ATOM      1  C   UNL     1       0.866   9.642  19.787  0.00  0.00    +0.000 A 
ATOM      2  S   UNL     1       1.819   8.841  18.607  0.00  0.00    +0.000 S 
ATOM      3  C   UNL     1       2.013   7.510  19.668  0.00  0.00    +0.000 A 
ATOM      4  N   UNL     1       1.534   7.691  20.883  0.00  0.00    +0.000 NA
ATOM      5  C   UNL     1       0.892   8.919  20.967  0.00  0.00    +0.000 A 
ATOM      6  C   UNL     1       0.308   9.308  22.283  0.00  0.00    +0.000 C 
ENDROOT
BRANCH   3   7
ATOM      7  C   UNL     1       2.669   6.221  19.259  0.00  0.00    +0.000 A 
ATOM      8  C   UNL     1       3.794   6.121  18.458  0.00  0.00    +0.000 A 
ATOM      9  N   UNL     1       4.093   4.779  18.310  0.00  0.00    +0.000 N 
ATOM     10  C   UNL     1       3.135   4.028  18.961  0.00  0.00    +0.000 A 
ATOM     11  N   UNL     1       3.090   2.677  18.977  0.00  0.00    +0.000 NA
ATOM     12  C   UNL     1       2.029   2.195  19.677  0.00  0.00    +0.000 A 
ATOM     13  C   UNL     1       1.067   2.954  20.328  0.00  0.00    +0.000 A 
ATOM     14  C   UNL     1       1.169   4.338  20.281  0.00  0.00    +0.000 A 
ATOM     15  C   UNL     1       2.237   4.906  19.568  0.00  0.00    +0.000 A 
BRANCH   9  16
ATOM     16  C   UNL     1       5.213   4.244  17.540  0.00  0.00    +0.000 C 
ATOM     17  C   UNL     1       5.069   4.513  16.040  0.00  0.00    +0.000 C 
ATOM     18  C   UNL     1       6.562   4.760  18.041  0.00  0.00    +0.000 C 
ENDBRANCH   9  16
ENDBRANCH   3   7
BRANCH   1  20
ATOM     19  N   UNL     1       0.640  12.021  20.053  0.00  0.00    +0.000 N 
ATOM     20  C   UNL     1       0.138  10.860  19.474  0.00  0.00    +0.000 C 
ATOM     21  O   UNL     1      -0.869  10.857  18.757  0.00  0.00    +0.000 OA
ATOM     22  H   UNL     1       1.225  11.897  20.872  0.00  0.00    +0.000 HD
BRANCH  19  26
ATOM     23  C   UNL     1      -0.877  15.924  19.631  0.00  0.00    +0.000 A 
ATOM     24  C   UNL     1       0.051  15.416  18.717  0.00  0.00    +0.000 A 
ATOM     25  C   UNL     1       0.516  14.105  18.828  0.00  0.00    +0.000 A 
ATOM     26  C   UNL     1       0.063  13.288  19.871  0.00  0.00    +0.000 A 
ATOM     27  C   UNL     1      -0.883  13.785  20.784  0.00  0.00    +0.000 A 
ATOM     28  C   UNL     1      -1.344  15.102  20.660  0.00  0.00    +0.000 A 
BRANCH  23  30
ATOM     29  C   UNL     1      -1.010  17.750  18.105  0.00  0.00    +0.000 C 
ATOM     30  O   UNL     1      -1.266  17.216  19.400  0.00  0.00    +0.000 OA
ENDBRANCH  23  30
BRANCH  27  31
ATOM     31  O   UNL     1      -1.383  12.876  21.685  0.00  0.00    +0.000 OA
ATOM     32  C   UNL     1      -2.789  12.647  21.652  0.00  0.00    +0.000 C 
ENDBRANCH  27  31
ENDBRANCH  19  26
ENDBRANCH   1  20
TORSDOF 6
ENDMDL
MODEL 9
REMARK VINA RESULT:      -7.7      3.213      4.762
REMARK  Name = 
REMARK  11 active torsions:
REMARK  status: ('A' for Active; 'I' for Inactive)
REMARK    1  A    between atoms: C_1  and  O_2
REMARK    2  A    between atoms: O_2  and  C_3
REMARK    3  A    between atoms: C_6  and  N_7
REMARK    4  A    between atoms: C_8  and  C_10
REMARK    5  A    between atoms: C_12  and  C_13
REMARK    6  A    between atoms: N_15  and  C_16
REMARK    7  A    between atoms: C_16  and  C_17
REMARK    8  A    between atoms: C_16  and  C_18
REMARK    9  A    between atoms: C_26  and  C_27
REMARK   10  A    between atoms: C_28  and  O_29
REMARK   11  A    between atoms: O_29  and  C_30
REMARK                            x       y       z     vdW  Elec       q    Type
REMARK                         _______ _______ _______ _____ _____    ______ ____
ROOT
ATOM      1  C   UNL     1       1.175   9.569  19.590  0.00  0.00    +0.000 A 
ATOM      2  S   UNL     1       1.816   8.808  18.192  0.00  0.00    +0.000 S 
ATOM      3  C   UNL     1       2.119   7.390  19.105  0.00  0.00    +0.000 A 
ATOM      4  N   UNL     1       1.904   7.504  20.400  0.00  0.00    +0.000 NA
ATOM      5  C   UNL     1       1.381   8.756  20.691  0.00  0.00    +0.000 A 
ATOM      6  C   UNL     1       1.098   9.075  22.121  0.00  0.00    +0.000 C 
ENDROOT
BRANCH   3   7
ATOM      7  C   UNL     1       2.588   6.101  18.489  0.00  0.00    +0.000 A 
ATOM      8  C   UNL     1       2.048   4.854  18.749  0.00  0.00    +0.000 A 
ATOM      9  N   UNL     1       2.742   3.924  17.995  0.00  0.00    +0.000 N 
ATOM     10  C   UNL     1       3.752   4.564  17.306  0.00  0.00    +0.000 A 
ATOM     11  N   UNL     1       4.657   3.950  16.512  0.00  0.00    +0.000 NA
ATOM     12  C   UNL     1       5.554   4.815  15.970  0.00  0.00    +0.000 A 
ATOM     13  C   UNL     1       5.588   6.189  16.170  0.00  0.00    +0.000 A 
ATOM     14  C   UNL     1       4.628   6.764  16.993  0.00  0.00    +0.000 A 
ATOM     15  C   UNL     1       3.673   5.927  17.593  0.00  0.00    +0.000 A 
BRANCH   9  16
ATOM     16  C   UNL     1       2.479   2.487  17.977  0.00  0.00    +0.000 C 
ATOM     17  C   UNL     1       3.593   1.684  18.653  0.00  0.00    +0.000 C 
ATOM     18  C   UNL     1       1.127   2.135  18.595  0.00  0.00    +0.000 C 
ENDBRANCH   9  16
ENDBRANCH   3   7
BRANCH   1  20
ATOM     19  N   UNL     1       1.216  11.944  19.963  0.00  0.00    +0.000 N 
ATOM     20  C   UNL     1       0.489  10.848  19.510  0.00  0.00    +0.000 C 
ATOM     21  O   UNL     1      -0.667  10.947  19.085  0.00  0.00    +0.000 OA
ATOM     22  H   UNL     1       1.982  11.743  20.595  0.00  0.00    +0.000 HD
BRANCH  19  26
ATOM     23  C   UNL     1      -0.039  15.961  20.008  0.00  0.00    +0.000 A 
ATOM     24  C   UNL     1       0.402  15.364  18.824  0.00  0.00    +0.000 A 
ATOM     25  C   UNL     1       0.770  14.018  18.798  0.00  0.00    +0.000 A 
ATOM     26  C   UNL     1       0.713  13.256  19.970  0.00  0.00    +0.000 A 
ATOM     27  C   UNL     1       0.255  13.843  21.162  0.00  0.00    +0.000 A 
ATOM     28  C   UNL     1      -0.114  15.195  21.174  0.00  0.00    +0.000 A 
BRANCH  23  30
ATOM     29  C   UNL     1       0.631  18.245  20.135  0.00  0.00    +0.000 C 
ATOM     30  O   UNL     1      -0.388  17.280  19.895  0.00  0.00    +0.000 OA
ENDBRANCH  23  30
BRANCH  27  31
ATOM     31  O   UNL     1       0.092  12.991  22.228  0.00  0.00    +0.000 OA
ATOM     32  C   UNL     1      -1.140  13.082  22.938  0.00  0.00    +0.000 C 
ENDBRANCH  27  31
ENDBRANCH  19  26
ENDBRANCH   1  20
TORSDOF 6
ENDMDL
