MODEL 1
REMARK VINA RESULT:      -7.2      0.000      0.000
REMARK  Name = 
REMARK  4 active torsions:
REMARK  status: ('A' for Active; 'I' for Inactive)
REMARK    1  A    between atoms: C_4  and  O_5
REMARK    2  A    between atoms: C_10  and  O_11
REMARK    3  A    between atoms: CA_12  and  C_13
REMARK    4  A    between atoms: C_13  and  OXT_15
REMARK                            x       y       z     vdW  Elec       q    Type
REMARK                         _______ _______ _______ _____ _____    ______ ____
ROOT
ATOM      1  N   UNL     1       0.697   3.284  20.444  0.00  0.00    +0.000 N 
ATOM      2  C   UNL     1       1.973   3.456  19.955  0.00  0.00    +0.000 A 
ATOM      3  N   UNL     1       2.902   2.577  20.336  0.00  0.00    +0.000 NA
ATOM      4  C   UNL     1       4.125   2.778  19.824  0.00  0.00    +0.000 A 
ATOM      5  C   UNL     1       4.487   3.806  18.978  0.00  0.00    +0.000 A 
ATOM      6  C   UNL     1       3.437   4.673  18.685  0.00  0.00    +0.000 A 
ATOM      7  N   UNL     1       2.192   4.510  19.163  0.00  0.00    +0.000 NA
ATOM      8  N   UNL     1       3.657   5.812  17.922  0.00  0.00    +0.000 N 
ATOM      9  C   UNL     1       4.809   5.842  17.052  0.00  0.00    +0.000 C 
ATOM     10  CA  UNL     1       5.891   4.853  17.482  0.00  0.00    +0.000 C 
ATOM     11  N   UNL     1       5.781   3.935  18.408  0.00  0.00    +0.000 NA
ATOM     12  H   UNL     1       0.708   2.760  21.308  0.00  0.00    +0.000 HD
ATOM     13  H   UNL     1       0.191   4.159  20.438  0.00  0.00    +0.000 HD
ATOM     14  H   UNL     1       2.797   6.232  17.591  0.00  0.00    +0.000 HD
ENDROOT
BRANCH   4  15
ATOM     15  O   UNL     1       5.028   1.837  20.216  0.00  0.00    +0.000 OA
ATOM     16  H   UNL     1       5.069   2.012  21.172  0.00  0.00    +0.000 HD
ENDBRANCH   4  15
BRANCH   9  17
ATOM     17  O   UNL     1       5.278   7.162  17.163  0.00  0.00    +0.000 OA
ATOM     18  H   UNL     1       6.114   7.152  16.666  0.00  0.00    +0.000 HD
ENDBRANCH   9  17
BRANCH  10  19
ATOM     19  C   UNL     1       7.207   4.951  16.734  0.00  0.00    +0.000 C 
ATOM     20  O   UNL     1       7.362   5.652  15.757  0.00  0.00    +0.000 OA
BRANCH  19  21
ATOM     21  OXT UNL     1       8.131   4.139  17.280  0.00  0.00    +0.000 OA
ATOM     22  HXT UNL     1       7.685   3.458  17.836  0.00  0.00    +0.000 HD
ENDBRANCH  19  21
ENDBRANCH  10  19
TORSDOF 4
ENDMDL
MODEL 2
REMARK VINA RESULT:      -7.2      2.042      2.584
REMARK  Name = 
REMARK  4 active torsions:
REMARK  status: ('A' for Active; 'I' for Inactive)
REMARK    1  A    between atoms: C_4  and  O_5
REMARK    2  A    between atoms: C_10  and  O_11
REMARK    3  A    between atoms: CA_12  and  C_13
REMARK    4  A    between atoms: C_13  and  OXT_15
REMARK                            x       y       z     vdW  Elec       q    Type
REMARK                         _______ _______ _______ _____ _____    ______ ____
ROOT
ATOM      1  N   UNL     1       2.375   3.987  21.188  0.00  0.00    +0.000 N 
ATOM      2  C   UNL     1       3.020   3.926  19.973  0.00  0.00    +0.000 A 
ATOM      3  N   UNL     1       2.297   3.570  18.909  0.00  0.00    +0.000 NA
ATOM      4  C   UNL     1       2.964   3.536  17.747  0.00  0.00    +0.000 A 
ATOM      5  C   UNL     1       4.306   3.813  17.578  0.00  0.00    +0.000 A 
ATOM      6  C   UNL     1       4.954   4.137  18.767  0.00  0.00    +0.000 A 
ATOM      7  N   UNL     1       4.330   4.195  19.956  0.00  0.00    +0.000 NA
ATOM      8  N   UNL     1       6.326   4.352  18.785  0.00  0.00    +0.000 N 
ATOM      9  C   UNL     1       6.978   4.715  17.549  0.00  0.00    +0.000 C 
ATOM     10  CA  UNL     1       6.172   4.301  16.320  0.00  0.00    +0.000 C 
ATOM     11  N   UNL     1       4.950   3.831  16.313  0.00  0.00    +0.000 NA
ATOM     12  H   UNL     1       1.554   3.399  21.193  0.00  0.00    +0.000 HD
ATOM     13  H   UNL     1       3.033   3.872  21.947  0.00  0.00    +0.000 HD
ATOM     14  H   UNL     1       6.641   4.795  19.640  0.00  0.00    +0.000 HD
ENDROOT
BRANCH   4  15
ATOM     15  O   UNL     1       2.176   3.201  16.689  0.00  0.00    +0.000 OA
ATOM     16  H   UNL     1       1.788   2.368  17.009  0.00  0.00    +0.000 HD
ENDBRANCH   4  15
BRANCH   9  17
ATOM     17  O   UNL     1       8.196   4.017  17.596  0.00  0.00    +0.000 OA
ATOM     18  H   UNL     1       8.593   4.186  16.723  0.00  0.00    +0.000 HD
ENDBRANCH   9  17
BRANCH  10  19
ATOM     19  C   UNL     1       6.869   4.478  14.985  0.00  0.00    +0.000 C 
ATOM     20  O   UNL     1       7.699   5.339  14.781  0.00  0.00    +0.000 OA
BRANCH  19  21
ATOM     21  OXT UNL     1       6.413   3.590  14.082  0.00  0.00    +0.000 OA
ATOM     22  HXT UNL     1       6.731   3.841  13.183  0.00  0.00    +0.000 HD
ENDBRANCH  19  21
ENDBRANCH  10  19
TORSDOF 4
ENDMDL
MODEL 3
REMARK VINA RESULT:      -7.0      1.677      2.600
REMARK  Name = 
REMARK  4 active torsions:
REMARK  status: ('A' for Active; 'I' for Inactive)
REMARK    1  A    between atoms: C_4  and  O_5
REMARK    2  A    between atoms: C_10  and  O_11
REMARK    3  A    between atoms: CA_12  and  C_13
REMARK    4  A    between atoms: C_13  and  OXT_15
REMARK                            x       y       z     vdW  Elec       q    Type
REMARK                         _______ _______ _______ _____ _____    ______ ____
ROOT
ATOM      1  N   UNL     1       1.797   2.461  21.433  0.00  0.00    +0.000 N 
ATOM      2  C   UNL     1       2.379   3.000  20.308  0.00  0.00    +0.000 A 
ATOM      3  N   UNL     1       1.582   3.279  19.275  0.00  0.00    +0.000 NA
ATOM      4  C   UNL     1       2.191   3.814  18.207  0.00  0.00    +0.000 A 
ATOM      5  C   UNL     1       3.542   4.069  18.093  0.00  0.00    +0.000 A 
ATOM      6  C   UNL     1       4.268   3.702  19.223  0.00  0.00    +0.000 A 
ATOM      7  N   UNL     1       3.705   3.173  20.323  0.00  0.00    +0.000 NA
ATOM      8  N   UNL     1       5.653   3.808  19.235  0.00  0.00    +0.000 N 
ATOM      9  C   UNL     1       6.279   4.720  18.308  0.00  0.00    +0.000 C 
ATOM     10  CA  UNL     1       5.385   5.038  17.110  0.00  0.00    +0.000 C 
ATOM     11  N   UNL     1       4.129   4.702  16.966  0.00  0.00    +0.000 NA
ATOM     12  H   UNL     1       0.929   1.997  21.205  0.00  0.00    +0.000 HD
ATOM     13  H   UNL     1       2.475   1.939  21.970  0.00  0.00    +0.000 HD
ATOM     14  H   UNL     1       6.043   3.731  20.167  0.00  0.00    +0.000 HD
ENDROOT
BRANCH   4  15
ATOM     15  O   UNL     1       1.330   4.110  17.195  0.00  0.00    +0.000 OA
ATOM     16  H   UNL     1       1.914   4.618  16.604  0.00  0.00    +0.000 HD
ENDBRANCH   4  15
BRANCH   9  17
ATOM     17  O   UNL     1       7.433   4.037  17.892  0.00  0.00    +0.000 OA
ATOM     18  H   UNL     1       7.200   3.099  18.008  0.00  0.00    +0.000 HD
ENDBRANCH   9  17
BRANCH  10  19
ATOM     19  C   UNL     1       6.035   5.841  15.999  0.00  0.00    +0.000 C 
ATOM     20  O   UNL     1       7.192   5.693  15.665  0.00  0.00    +0.000 OA
BRANCH  19  21
ATOM     21  OXT UNL     1       5.173   6.738  15.486  0.00  0.00    +0.000 OA
ATOM     22  HXT UNL     1       4.315   6.295  15.287  0.00  0.00    +0.000 HD
ENDBRANCH  19  21
ENDBRANCH  10  19
TORSDOF 4
ENDMDL
MODEL 4
REMARK VINA RESULT:      -7.0      2.434      5.264
REMARK  Name = 
REMARK  4 active torsions:
REMARK  status: ('A' for Active; 'I' for Inactive)
REMARK    1  A    between atoms: C_4  and  O_5
REMARK    2  A    between atoms: C_10  and  O_11
REMARK    3  A    between atoms: CA_12  and  C_13
REMARK    4  A    between atoms: C_13  and  OXT_15
REMARK                            x       y       z     vdW  Elec       q    Type
REMARK                         _______ _______ _______ _____ _____    ______ ____
ROOT
ATOM      1  N   UNL     1       6.350   5.500  15.223  0.00  0.00    +0.000 N 
ATOM      2  C   UNL     1       5.789   5.037  16.392  0.00  0.00    +0.000 A 
ATOM      3  N   UNL     1       6.446   5.280  17.528  0.00  0.00    +0.000 NA
ATOM      4  C   UNL     1       5.856   4.822  18.642  0.00  0.00    +0.000 A 
ATOM      5  C   UNL     1       4.669   4.121  18.695  0.00  0.00    +0.000 A 
ATOM      6  C   UNL     1       4.102   3.903  17.442  0.00  0.00    +0.000 A 
ATOM      7  N   UNL     1       4.646   4.350  16.298  0.00  0.00    +0.000 NA
ATOM      8  N   UNL     1       2.953   3.132  17.314  0.00  0.00    +0.000 N 
ATOM      9  C   UNL     1       2.100   2.977  18.469  0.00  0.00    +0.000 C 
ATOM     10  CA  UNL     1       2.840   3.236  19.780  0.00  0.00    +0.000 C 
ATOM     11  N   UNL     1       4.050   3.717  19.908  0.00  0.00    +0.000 NA
ATOM     12  H   UNL     1       7.347   5.624  15.322  0.00  0.00    +0.000 HD
ATOM     13  H   UNL     1       6.025   4.959  14.433  0.00  0.00    +0.000 HD
ATOM     14  H   UNL     1       2.515   3.232  16.406  0.00  0.00    +0.000 HD
ENDROOT
BRANCH   4  15
ATOM     15  O   UNL     1       6.547   5.125  19.775  0.00  0.00    +0.000 OA
ATOM     16  H   UNL     1       7.031   5.918  19.486  0.00  0.00    +0.000 HD
ENDBRANCH   4  15
BRANCH   9  17
ATOM     17  O   UNL     1       1.681   1.638  18.398  0.00  0.00    +0.000 OA
ATOM     18  H   UNL     1       2.477   1.134  18.642  0.00  0.00    +0.000 HD
ENDBRANCH   9  17
BRANCH  10  19
ATOM     19  C   UNL     1       2.068   2.916  21.045  0.00  0.00    +0.000 C 
ATOM     20  O   UNL     1       2.603   2.577  22.080  0.00  0.00    +0.000 OA
BRANCH  19  21
ATOM     21  OXT UNL     1       0.742   3.023  20.839  0.00  0.00    +0.000 OA
ATOM     22  HXT UNL     1       0.574   3.629  20.080  0.00  0.00    +0.000 HD
ENDBRANCH  19  21
ENDBRANCH  10  19
TORSDOF 4
ENDMDL
MODEL 5
REMARK VINA RESULT:      -7.0      2.682      5.012
REMARK  Name = 
REMARK  4 active torsions:
REMARK  status: ('A' for Active; 'I' for Inactive)
REMARK    1  A    between atoms: C_4  and  O_5
REMARK    2  A    between atoms: C_10  and  O_11
REMARK    3  A    between atoms: CA_12  and  C_13
REMARK    4  A    between atoms: C_13  and  OXT_15
REMARK                            x       y       z     vdW  Elec       q    Type
REMARK                         _______ _______ _______ _____ _____    ______ ____
ROOT
ATOM      1  N   UNL     1       7.966   8.813  17.233  0.00  0.00    +0.000 N 
ATOM      2  C   UNL     1       7.479   7.617  17.712  0.00  0.00    +0.000 A 
ATOM      3  N   UNL     1       8.197   6.989  18.645  0.00  0.00    +0.000 NA
ATOM      4  C   UNL     1       7.677   5.836  19.090  0.00  0.00    +0.000 A 
ATOM      5  C   UNL     1       6.502   5.259  18.652  0.00  0.00    +0.000 A 
ATOM      6  C   UNL     1       5.866   5.994  17.655  0.00  0.00    +0.000 A 
ATOM      7  N   UNL     1       6.339   7.159  17.182  0.00  0.00    +0.000 NA
ATOM      8  N   UNL     1       4.721   5.504  17.042  0.00  0.00    +0.000 N 
ATOM      9  C   UNL     1       3.937   4.515  17.744  0.00  0.00    +0.000 C 
ATOM     10  CA  UNL     1       4.748   3.774  18.806  0.00  0.00    +0.000 C 
ATOM     11  N   UNL     1       5.958   4.069  19.206  0.00  0.00    +0.000 NA
ATOM     12  H   UNL     1       8.966   8.874  17.360  0.00  0.00    +0.000 HD
ATOM     13  H   UNL     1       7.602   9.002  16.309  0.00  0.00    +0.000 HD
ATOM     14  H   UNL     1       4.230   6.212  16.508  0.00  0.00    +0.000 HD
ENDROOT
BRANCH   4  15
ATOM     15  O   UNL     1       8.429   5.252  20.063  0.00  0.00    +0.000 OA
ATOM     16  H   UNL     1       8.649   4.405  19.637  0.00  0.00    +0.000 HD
ENDBRANCH   4  15
BRANCH   9  17
ATOM     17  O   UNL     1       3.529   3.631  16.732  0.00  0.00    +0.000 OA
ATOM     18  H   UNL     1       2.977   4.183  16.151  0.00  0.00    +0.000 HD
ENDBRANCH   9  17
BRANCH  10  19
ATOM     19  C   UNL     1       4.053   2.596  19.460  0.00  0.00    +0.000 C 
ATOM     20  O   UNL     1       2.850   2.444  19.443  0.00  0.00    +0.000 OA
BRANCH  19  21
ATOM     21  OXT UNL     1       4.943   1.794  20.075  0.00  0.00    +0.000 OA
ATOM     22  HXT UNL     1       4.478   1.006  20.442  0.00  0.00    +0.000 HD
ENDBRANCH  19  21
ENDBRANCH  10  19
TORSDOF 4
ENDMDL
MODEL 6
REMARK VINA RESULT:      -6.9      2.385      5.517
REMARK  Name = 
REMARK  4 active torsions:
REMARK  status: ('A' for Active; 'I' for Inactive)
REMARK    1  A    between atoms: C_4  and  O_5
REMARK    2  A    between atoms: C_10  and  O_11
REMARK    3  A    between atoms: CA_12  and  C_13
REMARK    4  A    between atoms: C_13  and  OXT_15
REMARK                            x       y       z     vdW  Elec       q    Type
REMARK                         _______ _______ _______ _____ _____    ______ ____
ROOT
ATOM      1  N   UNL     1       6.295   5.882  15.521  0.00  0.00    +0.000 N 
ATOM      2  C   UNL     1       5.480   5.598  16.594  0.00  0.00    +0.000 A 
ATOM      3  N   UNL     1       4.555   6.503  16.921  0.00  0.00    +0.000 NA
ATOM      4  C   UNL     1       3.777   6.178  17.964  0.00  0.00    +0.000 A 
ATOM      5  C   UNL     1       3.874   5.023  18.713  0.00  0.00    +0.000 A 
ATOM      6  C   UNL     1       4.898   4.179  18.292  0.00  0.00    +0.000 A 
ATOM      7  N   UNL     1       5.698   4.453  17.248  0.00  0.00    +0.000 NA
ATOM      8  N   UNL     1       5.188   3.019  18.998  0.00  0.00    +0.000 N 
ATOM      9  C   UNL     1       4.160   2.452  19.838  0.00  0.00    +0.000 C 
ATOM     10  CA  UNL     1       3.100   3.478  20.235  0.00  0.00    +0.000 C 
ATOM     11  N   UNL     1       2.980   4.694  19.766  0.00  0.00    +0.000 NA
ATOM     12  H   UNL     1       6.349   6.878  15.360  0.00  0.00    +0.000 HD
ATOM     13  H   UNL     1       7.167   5.375  15.591  0.00  0.00    +0.000 HD
ATOM     14  H   UNL     1       5.785   2.385  18.480  0.00  0.00    +0.000 HD
ENDROOT
BRANCH   4  15
ATOM     15  O   UNL     1       2.830   7.117  18.236  0.00  0.00    +0.000 OA
ATOM     16  H   UNL     1       3.151   7.456  19.090  0.00  0.00    +0.000 HD
ENDBRANCH   4  15
BRANCH   9  17
ATOM     17  O   UNL     1       4.860   2.004  20.970  0.00  0.00    +0.000 OA
ATOM     18  H   UNL     1       5.593   2.638  21.053  0.00  0.00    +0.000 HD
ENDBRANCH   9  17
BRANCH  10  19
ATOM     19  C   UNL     1       2.087   3.013  21.264  0.00  0.00    +0.000 C 
ATOM     20  O   UNL     1       2.401   2.501  22.318  0.00  0.00    +0.000 OA
BRANCH  19  21
ATOM     21  OXT UNL     1       0.830   3.213  20.825  0.00  0.00    +0.000 OA
ATOM     22  HXT UNL     1       0.426   3.968  21.314  0.00  0.00    +0.000 HD
ENDBRANCH  19  21
ENDBRANCH  10  19
TORSDOF 4
ENDMDL
MODEL 7
REMARK VINA RESULT:      -6.8      2.188      2.532
REMARK  Name = 
REMARK  4 active torsions:
REMARK  status: ('A' for Active; 'I' for Inactive)
REMARK    1  A    between atoms: C_4  and  O_5
REMARK    2  A    between atoms: C_10  and  O_11
REMARK    3  A    between atoms: CA_12  and  C_13
REMARK    4  A    between atoms: C_13  and  OXT_15
REMARK                            x       y       z     vdW  Elec       q    Type
REMARK                         _______ _______ _______ _____ _____    ______ ____
ROOT
ATOM      1  N   UNL     1       1.426   1.794  18.199  0.00  0.00    +0.000 N 
ATOM      2  C   UNL     1       2.411   2.702  18.520  0.00  0.00    +0.000 A 
ATOM      3  N   UNL     1       2.194   3.501  19.567  0.00  0.00    +0.000 NA
ATOM      4  C   UNL     1       3.185   4.359  19.848  0.00  0.00    +0.000 A 
ATOM      5  C   UNL     1       4.365   4.488  19.144  0.00  0.00    +0.000 A 
ATOM      6  C   UNL     1       4.454   3.624  18.056  0.00  0.00    +0.000 A 
ATOM      7  N   UNL     1       3.494   2.738  17.738  0.00  0.00    +0.000 NA
ATOM      8  N   UNL     1       5.537   3.691  17.190  0.00  0.00    +0.000 N 
ATOM      9  C   UNL     1       6.762   4.287  17.670  0.00  0.00    +0.000 C 
ATOM     10  CA  UNL     1       6.531   5.218  18.859  0.00  0.00    +0.000 C 
ATOM     11  N   UNL     1       5.414   5.366  19.526  0.00  0.00    +0.000 NA
ATOM     12  H   UNL     1       0.527   2.097  18.544  0.00  0.00    +0.000 HD
ATOM     13  H   UNL     1       1.485   1.533  17.224  0.00  0.00    +0.000 HD
ATOM     14  H   UNL     1       5.605   2.882  16.585  0.00  0.00    +0.000 HD
ENDROOT
BRANCH   4  15
ATOM     15  O   UNL     1       2.931   5.127  20.943  0.00  0.00    +0.000 OA
ATOM     16  H   UNL     1       1.971   5.260  20.852  0.00  0.00    +0.000 HD
ENDBRANCH   4  15
BRANCH   9  17
ATOM     17  O   UNL     1       7.237   5.012  16.565  0.00  0.00    +0.000 OA
ATOM     18  H   UNL     1       7.081   4.414  15.813  0.00  0.00    +0.000 HD
ENDBRANCH   9  17
BRANCH  10  19
ATOM     19  C   UNL     1       7.734   6.025  19.306  0.00  0.00    +0.000 C 
ATOM     20  O   UNL     1       8.202   6.933  18.652  0.00  0.00    +0.000 OA
BRANCH  19  21
ATOM     21  OXT UNL     1       8.210   5.569  20.480  0.00  0.00    +0.000 OA
ATOM     22  HXT UNL     1       8.969   4.961  20.315  0.00  0.00    +0.000 HD
ENDBRANCH  19  21
ENDBRANCH  10  19
TORSDOF 4
ENDMDL
MODEL 8
REMARK VINA RESULT:      -6.7      1.793      2.052
REMARK  Name = 
REMARK  4 active torsions:
REMARK  status: ('A' for Active; 'I' for Inactive)
REMARK    1  A    between atoms: C_4  and  O_5
REMARK    2  A    between atoms: C_10  and  O_11
REMARK    3  A    between atoms: CA_12  and  C_13
REMARK    4  A    between atoms: C_13  and  OXT_15
REMARK                            x       y       z     vdW  Elec       q    Type
REMARK                         _______ _______ _______ _____ _____    ______ ____
ROOT
ATOM      1  N   UNL     1       2.542   4.757  21.004  0.00  0.00    +0.000 N 
ATOM      2  C   UNL     1       3.320   4.503  19.897  0.00  0.00    +0.000 A 
ATOM      3  N   UNL     1       3.296   3.265  19.399  0.00  0.00    +0.000 NA
ATOM      4  C   UNL     1       4.058   3.068  18.314  0.00  0.00    +0.000 A 
ATOM      5  C   UNL     1       4.857   4.015  17.706  0.00  0.00    +0.000 A 
ATOM      6  C   UNL     1       4.821   5.254  18.341  0.00  0.00    +0.000 A 
ATOM      7  N   UNL     1       4.066   5.506  19.424  0.00  0.00    +0.000 NA
ATOM      8  N   UNL     1       5.640   6.290  17.911  0.00  0.00    +0.000 N 
ATOM      9  C   UNL     1       6.143   6.249  16.558  0.00  0.00    +0.000 C 
ATOM     10  CA  UNL     1       6.138   4.836  15.977  0.00  0.00    +0.000 C 
ATOM     11  N   UNL     1       5.593   3.775  16.516  0.00  0.00    +0.000 NA
ATOM     12  H   UNL     1       2.356   3.908  21.520  0.00  0.00    +0.000 HD
ATOM     13  H   UNL     1       2.906   5.544  21.523  0.00  0.00    +0.000 HD
ATOM     14  H   UNL     1       5.366   7.188  18.291  0.00  0.00    +0.000 HD
ENDROOT
BRANCH   4  15
ATOM     15  O   UNL     1       3.974   1.800  17.825  0.00  0.00    +0.000 OA
ATOM     16  H   UNL     1       4.824   1.434  18.123  0.00  0.00    +0.000 HD
ENDBRANCH   4  15
BRANCH   9  17
ATOM     17  O   UNL     1       7.459   6.726  16.676  0.00  0.00    +0.000 OA
ATOM     18  H   UNL     1       7.369   7.510  17.246  0.00  0.00    +0.000 HD
ENDBRANCH   9  17
BRANCH  10  19
ATOM     19  C   UNL     1       6.820   4.675  14.632  0.00  0.00    +0.000 C 
ATOM     20  O   UNL     1       7.665   5.443  14.223  0.00  0.00    +0.000 OA
BRANCH  19  21
ATOM     21  OXT UNL     1       6.333   3.609  13.970  0.00  0.00    +0.000 OA
ATOM     22  HXT UNL     1       5.420   3.806  13.654  0.00  0.00    +0.000 HD
ENDBRANCH  19  21
ENDBRANCH  10  19
TORSDOF 4
ENDMDL
MODEL 9
REMARK VINA RESULT:      -6.7      1.251      1.444
REMARK  Name = 
REMARK  4 active torsions:
REMARK  status: ('A' for Active; 'I' for Inactive)
REMARK    1  A    between atoms: C_4  and  O_5
REMARK    2  A    between atoms: C_10  and  O_11
REMARK    3  A    between atoms: CA_12  and  C_13
REMARK    4  A    between atoms: C_13  and  OXT_15
REMARK                            x       y       z     vdW  Elec       q    Type
REMARK                         _______ _______ _______ _____ _____    ______ ____
ROOT
ATOM      1  N   UNL     1       0.954   1.770  18.576  0.00  0.00    +0.000 N 
ATOM      2  C   UNL     1       2.160   2.427  18.666  0.00  0.00    +0.000 A 
ATOM      3  N   UNL     1       3.101   1.885  19.441  0.00  0.00    +0.000 NA
ATOM      4  C   UNL     1       4.262   2.553  19.488  0.00  0.00    +0.000 A 
ATOM      5  C   UNL     1       4.540   3.735  18.831  0.00  0.00    +0.000 A 
ATOM      6  C   UNL     1       3.466   4.214  18.084  0.00  0.00    +0.000 A 
ATOM      7  N   UNL     1       2.286   3.578  17.996  0.00  0.00    +0.000 NA
ATOM      8  N   UNL     1       3.551   5.441  17.438  0.00  0.00    +0.000 N 
ATOM      9  C   UNL     1       4.860   5.968  17.137  0.00  0.00    +0.000 C 
ATOM     10  CA  UNL     1       5.949   5.369  18.026  0.00  0.00    +0.000 C 
ATOM     11  N   UNL     1       5.810   4.368  18.857  0.00  0.00    +0.000 NA
ATOM     12  H   UNL     1       0.798   1.184  19.384  0.00  0.00    +0.000 HD
ATOM     13  H   UNL     1       0.216   2.411  18.318  0.00  0.00    +0.000 HD
ATOM     14  H   UNL     1       2.813   5.574  16.756  0.00  0.00    +0.000 HD
ENDROOT
BRANCH   4  15
ATOM     15  O   UNL     1       5.199   1.943  20.264  0.00  0.00    +0.000 OA
ATOM     16  H   UNL     1       5.375   2.641  20.918  0.00  0.00    +0.000 HD
ENDBRANCH   4  15
BRANCH   9  17
ATOM     17  O   UNL     1       4.731   7.346  17.379  0.00  0.00    +0.000 OA
ATOM     18  H   UNL     1       3.932   7.593  16.881  0.00  0.00    +0.000 HD
ENDBRANCH   9  17
BRANCH  10  19
ATOM     19  C   UNL     1       7.321   6.002  17.902  0.00  0.00    +0.000 C 
ATOM     20  O   UNL     1       8.074   6.141  18.843  0.00  0.00    +0.000 OA
BRANCH  19  21
ATOM     21  OXT UNL     1       7.552   6.406  16.639  0.00  0.00    +0.000 OA
ATOM     22  HXT UNL     1       8.434   6.079  16.343  0.00  0.00    +0.000 HD
ENDBRANCH  19  21
ENDBRANCH  10  19
TORSDOF 4
ENDMDL
