MODEL 1
REMARK VINA RESULT:      -7.6      0.000      0.000
REMARK  Name = 
REMARK  12 active torsions:
REMARK  status: ('A' for Active; 'I' for Inactive)
REMARK    1  A    between atoms: C_1  and  C_2
REMARK    2  A    between atoms: C_2  and  C_3
REMARK    3  A    between atoms: C_2  and  N_4
REMARK    4  A    between atoms: N_4  and  C_5
REMARK    5  A    between atoms: C_5  and  C_6
REMARK    6  A    between atoms: C_6  and  O_7
REMARK    7  A    between atoms: C_8  and  C_10
REMARK    8  A    between atoms: C_10  and  C_11
REMARK    9  A    between atoms: C_10  and  N_12
REMARK   10  A    between atoms: C_15  and  N_16
REMARK   11  A    between atoms: N_16  and  S_17
REMARK   12  A    between atoms: S_17  and  C_20
REMARK                            x       y       z     vdW  Elec       q    Type
REMARK                         _______ _______ _______ _____ _____    ______ ____
ROOT
ATOM      1  N   UNL     1       0.565   9.792  19.913  0.00  0.00    +0.000 N 
ATOM      2  C   UNL     1       0.149   9.674  21.293  0.00  0.00    +0.000 C 
ATOM      3  C   UNL     1       1.068   8.576  21.841  0.00  0.00    +0.000 C 
ATOM      4  C   UNL     1       1.226   7.666  20.619  0.00  0.00    +0.000 C 
ATOM      5  C   UNL     1       1.370   8.723  19.548  0.00  0.00    +0.000 C 
ATOM      6  O   UNL     1       2.105   8.693  18.572  0.00  0.00    +0.000 OA
ENDROOT
BRANCH   1   7
ATOM      7  C   UNL     1      -0.004  10.763  18.965  0.00  0.00    +0.000 C 
ATOM      8  C   UNL     1      -1.197  10.209  18.175  0.00  0.00    +0.000 C 
BRANCH   7  10
ATOM      9  N   UNL     1       0.496  13.079  19.915  0.00  0.00    +0.000 N 
ATOM     10  C   UNL     1      -0.454  12.067  19.694  0.00  0.00    +0.000 C 
ATOM     11  O   UNL     1      -1.634  12.207  20.032  0.00  0.00    +0.000 OA
BRANCH   9  13
ATOM     12  C   UNL     1       1.117  14.928  21.505  0.00  0.00    +0.000 C 
ATOM     13  C   UNL     1       0.087  14.376  20.512  0.00  0.00    +0.000 C 
ATOM     14  C   UNL     1      -0.296  15.437  19.477  0.00  0.00    +0.000 C 
ENDBRANCH   9  13
BRANCH   9  15
ATOM     15  C   UNL     1       1.925  12.924  19.583  0.00  0.00    +0.000 C 
BRANCH  15  16
ATOM     16  C   UNL     1       2.304  13.400  18.174  0.00  0.00    +0.000 C 
BRANCH  16  17
ATOM     17  O   UNL     1       2.664  12.320  17.317  0.00  0.00    +0.000 OA
ATOM     18  H   UNL     1       1.864  11.784  17.182  0.00  0.00    +0.000 HD
ENDBRANCH  16  17
ENDBRANCH  15  16
ENDBRANCH   9  15
ENDBRANCH   7  10
ENDBRANCH   1   7
BRANCH   4  19
ATOM     19  N   UNL     1       2.372   6.752  20.707  0.00  0.00    +0.000 NA
ATOM     20  H   UNL     1       3.001   6.921  21.492  0.00  0.00    +0.000 HD
BRANCH  19  21
ATOM     21  S   UNL     1       1.987   5.084  20.580  0.00  0.00    +0.000 S 
ATOM     22  O   UNL     1       2.610   4.284  21.601  0.00  0.00    +0.000 OA
ATOM     23  O   UNL     1       0.578   5.009  20.270  0.00  0.00    +0.000 OA
BRANCH  21  24
ATOM     24  C   UNL     1       2.853   4.661  19.083  0.00  0.00    +0.000 A 
ATOM     25  C   UNL     1       3.093   3.324  18.781  0.00  0.00    +0.000 A 
ATOM     26  C   UNL     1       3.878   3.008  17.673  0.00  0.00    +0.000 A 
ATOM     27  C   UNL     1       4.437   4.025  16.879  0.00  0.00    +0.000 A 
ATOM     28  C   UNL     1       5.255   3.722  15.784  0.00  0.00    +0.000 A 
ATOM     29  C   UNL     1       5.823   4.745  15.025  0.00  0.00    +0.000 A 
ATOM     30 CL   UNL     1       6.838   4.352  13.693  0.00  0.00    +0.000 Cl
ATOM     31  C   UNL     1       5.584   6.080  15.338  0.00  0.00    +0.000 A 
ATOM     32  C   UNL     1       4.767   6.400  16.424  0.00  0.00    +0.000 A 
ATOM     33  C   UNL     1       4.191   5.382  17.201  0.00  0.00    +0.000 A 
ATOM     34  C   UNL     1       3.398   5.691  18.306  0.00  0.00    +0.000 A 
ENDBRANCH  21  24
ENDBRANCH  19  21
ENDBRANCH   4  19
TORSDOF 9
ENDMDL
MODEL 2
REMARK VINA RESULT:      -7.0      1.007      1.067
REMARK  Name = 
REMARK  12 active torsions:
REMARK  status: ('A' for Active; 'I' for Inactive)
REMARK    1  A    between atoms: C_1  and  C_2
REMARK    2  A    between atoms: C_2  and  C_3
REMARK    3  A    between atoms: C_2  and  N_4
REMARK    4  A    between atoms: N_4  and  C_5
REMARK    5  A    between atoms: C_5  and  C_6
REMARK    6  A    between atoms: C_6  and  O_7
REMARK    7  A    between atoms: C_8  and  C_10
REMARK    8  A    between atoms: C_10  and  C_11
REMARK    9  A    between atoms: C_10  and  N_12
REMARK   10  A    between atoms: C_15  and  N_16
REMARK   11  A    between atoms: N_16  and  S_17
REMARK   12  A    between atoms: S_17  and  C_20
REMARK                            x       y       z     vdW  Elec       q    Type
REMARK                         _______ _______ _______ _____ _____    ______ ____
ROOT
ATOM      1  N   UNL     1       0.455   9.882  19.851  0.00  0.00    +0.000 N 
ATOM      2  C   UNL     1       0.052   9.944  21.238  0.00  0.00    +0.000 C 
ATOM      3  C   UNL     1       0.952   8.901  21.910  0.00  0.00    +0.000 C 
ATOM      4  C   UNL     1       1.078   7.844  20.809  0.00  0.00    +0.000 C 
ATOM      5  C   UNL     1       1.234   8.758  19.614  0.00  0.00    +0.000 C 
ATOM      6  O   UNL     1       1.958   8.591  18.644  0.00  0.00    +0.000 OA
ENDROOT
BRANCH   1   7
ATOM      7  C   UNL     1      -0.102  10.741  18.794  0.00  0.00    +0.000 C 
ATOM      8  C   UNL     1      -1.080  10.006  17.870  0.00  0.00    +0.000 C 
BRANCH   7  10
ATOM      9  N   UNL     1      -0.102  13.172  19.572  0.00  0.00    +0.000 N 
ATOM     10  C   UNL     1      -0.829  11.981  19.401  0.00  0.00    +0.000 C 
ATOM     11  O   UNL     1      -2.029  11.913  19.686  0.00  0.00    +0.000 OA
BRANCH   9  13
ATOM     12  C   UNL     1      -0.767  14.542  21.576  0.00  0.00    +0.000 C 
ATOM     13  C   UNL     1      -0.781  14.404  20.049  0.00  0.00    +0.000 C 
ATOM     14  C   UNL     1      -0.274  15.685  19.381  0.00  0.00    +0.000 C 
ENDBRANCH   9  13
BRANCH   9  15
ATOM     15  C   UNL     1       1.344  13.275  19.303  0.00  0.00    +0.000 C 
BRANCH  15  16
ATOM     16  C   UNL     1       2.234  13.099  20.541  0.00  0.00    +0.000 C 
BRANCH  16  17
ATOM     17  O   UNL     1       3.295  14.049  20.586  0.00  0.00    +0.000 OA
ATOM     18  H   UNL     1       3.409  14.391  19.682  0.00  0.00    +0.000 HD
ENDBRANCH  16  17
ENDBRANCH  15  16
ENDBRANCH   9  15
ENDBRANCH   7  10
ENDBRANCH   1   7
BRANCH   4  19
ATOM     19  N   UNL     1       2.205   6.923  21.000  0.00  0.00    +0.000 NA
ATOM     20  H   UNL     1       2.704   7.027  21.883  0.00  0.00    +0.000 HD
BRANCH  19  21
ATOM     21  S   UNL     1       1.858   5.270  20.685  0.00  0.00    +0.000 S 
ATOM     22  O   UNL     1       2.498   4.375  21.612  0.00  0.00    +0.000 OA
ATOM     23  O   UNL     1       0.451   5.199  20.363  0.00  0.00    +0.000 OA
BRANCH  21  24
ATOM     24  C   UNL     1       2.736   5.038  19.154  0.00  0.00    +0.000 A 
ATOM     25  C   UNL     1       2.388   3.984  18.313  0.00  0.00    +0.000 A 
ATOM     26  C   UNL     1       3.160   3.736  17.180  0.00  0.00    +0.000 A 
ATOM     27  C   UNL     1       4.287   4.527  16.894  0.00  0.00    +0.000 A 
ATOM     28  C   UNL     1       5.090   4.266  15.777  0.00  0.00    +0.000 A 
ATOM     29  C   UNL     1       6.220   5.044  15.526  0.00  0.00    +0.000 A 
ATOM     30 CL   UNL     1       7.203   4.699  14.157  0.00  0.00    +0.000 Cl
ATOM     31  C   UNL     1       6.565   6.092  16.374  0.00  0.00    +0.000 A 
ATOM     32  C   UNL     1       5.773   6.368  17.490  0.00  0.00    +0.000 A 
ATOM     33  C   UNL     1       4.634   5.592  17.760  0.00  0.00    +0.000 A 
ATOM     34  C   UNL     1       3.853   5.841  18.888  0.00  0.00    +0.000 A 
ENDBRANCH  21  24
ENDBRANCH  19  21
ENDBRANCH   4  19
TORSDOF 9
ENDMDL
MODEL 3
REMARK VINA RESULT:      -6.8      4.598     10.175
REMARK  Name = 
REMARK  12 active torsions:
REMARK  status: ('A' for Active; 'I' for Inactive)
REMARK    1  A    between atoms: C_1  and  C_2
REMARK    2  A    between atoms: C_2  and  C_3
REMARK    3  A    between atoms: C_2  and  N_4
REMARK    4  A    between atoms: N_4  and  C_5
REMARK    5  A    between atoms: C_5  and  C_6
REMARK    6  A    between atoms: C_6  and  O_7
REMARK    7  A    between atoms: C_8  and  C_10
REMARK    8  A    between atoms: C_10  and  C_11
REMARK    9  A    between atoms: C_10  and  N_12
REMARK   10  A    between atoms: C_15  and  N_16
REMARK   11  A    between atoms: N_16  and  S_17
REMARK   12  A    between atoms: S_17  and  C_20
REMARK                            x       y       z     vdW  Elec       q    Type
REMARK                         _______ _______ _______ _____ _____    ______ ____
ROOT
ATOM      1  N   UNL     1       2.331   7.053  18.970  0.00  0.00    +0.000 N 
ATOM      2  C   UNL     1       2.258   6.842  20.399  0.00  0.00    +0.000 C 
ATOM      3  C   UNL     1       1.156   7.813  20.839  0.00  0.00    +0.000 C 
ATOM      4  C   UNL     1       1.370   8.981  19.871  0.00  0.00    +0.000 C 
ATOM      5  C   UNL     1       1.642   8.200  18.605  0.00  0.00    +0.000 C 
ATOM      6  O   UNL     1       1.273   8.473  17.473  0.00  0.00    +0.000 OA
ENDROOT
BRANCH   1   7
ATOM      7  C   UNL     1       3.230   6.307  18.075  0.00  0.00    +0.000 C 
ATOM      8  C   UNL     1       4.339   7.176  17.469  0.00  0.00    +0.000 C 
BRANCH   7  10
ATOM      9  N   UNL     1       3.245   3.855  18.788  0.00  0.00    +0.000 N 
ATOM     10  C   UNL     1       3.892   5.103  18.816  0.00  0.00    +0.000 C 
ATOM     11  O   UNL     1       4.981   5.252  19.380  0.00  0.00    +0.000 OA
BRANCH   9  13
ATOM     12  C   UNL     1       3.479   2.432  20.850  0.00  0.00    +0.000 C 
ATOM     13  C   UNL     1       3.891   2.661  19.391  0.00  0.00    +0.000 C 
ATOM     14  C   UNL     1       3.715   1.383  18.567  0.00  0.00    +0.000 C 
ENDBRANCH   9  13
BRANCH   9  15
ATOM     15  C   UNL     1       1.917   3.653  18.180  0.00  0.00    +0.000 C 
BRANCH  15  16
ATOM     16  C   UNL     1       0.896   2.969  19.099  0.00  0.00    +0.000 C 
BRANCH  16  17
ATOM     17  O   UNL     1       0.473   3.816  20.163  0.00  0.00    +0.000 OA
ATOM     18  H   UNL     1       0.446   3.270  20.969  0.00  0.00    +0.000 HD
ENDBRANCH  16  17
ENDBRANCH  15  16
ENDBRANCH   9  15
ENDBRANCH   7  10
ENDBRANCH   1   7
BRANCH   4  19
ATOM     19  N   UNL     1       0.216   9.885  19.772  0.00  0.00    +0.000 NA
ATOM     20  H   UNL     1      -0.666   9.498  20.108  0.00  0.00    +0.000 HD
BRANCH  19  21
ATOM     21  S   UNL     1       0.470  11.464  20.398  0.00  0.00    +0.000 S 
ATOM     22  O   UNL     1       1.201  11.467  21.636  0.00  0.00    +0.000 OA
ATOM     23  O   UNL     1       0.820  12.300  19.272  0.00  0.00    +0.000 OA
BRANCH  21  24
ATOM     24  C   UNL     1      -1.193  11.907  20.853  0.00  0.00    +0.000 A 
ATOM     25  C   UNL     1      -2.047  12.451  19.897  0.00  0.00    +0.000 A 
ATOM     26  C   UNL     1      -3.303  12.910  20.291  0.00  0.00    +0.000 A 
ATOM     27  C   UNL     1      -3.700  12.841  21.638  0.00  0.00    +0.000 A 
ATOM     28  C   UNL     1      -4.945  13.329  22.052  0.00  0.00    +0.000 A 
ATOM     29  C   UNL     1      -5.309  13.277  23.397  0.00  0.00    +0.000 A 
ATOM     30 CL   UNL     1      -6.837  13.896  23.889  0.00  0.00    +0.000 Cl
ATOM     31  C   UNL     1      -4.448  12.737  24.348  0.00  0.00    +0.000 A 
ATOM     32  C   UNL     1      -3.204  12.243  23.951  0.00  0.00    +0.000 A 
ATOM     33  C   UNL     1      -2.819  12.291  22.602  0.00  0.00    +0.000 A 
ATOM     34  C   UNL     1      -1.568  11.826  22.200  0.00  0.00    +0.000 A 
ENDBRANCH  21  24
ENDBRANCH  19  21
ENDBRANCH   4  19
TORSDOF 9
ENDMDL
MODEL 4
REMARK VINA RESULT:      -6.7      3.590      8.939
REMARK  Name = 
REMARK  12 active torsions:
REMARK  status: ('A' for Active; 'I' for Inactive)
REMARK    1  A    between atoms: C_1  and  C_2
REMARK    2  A    between atoms: C_2  and  C_3
REMARK    3  A    between atoms: C_2  and  N_4
REMARK    4  A    between atoms: N_4  and  C_5
REMARK    5  A    between atoms: C_5  and  C_6
REMARK    6  A    between atoms: C_6  and  O_7
REMARK    7  A    between atoms: C_8  and  C_10
REMARK    8  A    between atoms: C_10  and  C_11
REMARK    9  A    between atoms: C_10  and  N_12
REMARK   10  A    between atoms: C_15  and  N_16
REMARK   11  A    between atoms: N_16  and  S_17
REMARK   12  A    between atoms: S_17  and  C_20
REMARK                            x       y       z     vdW  Elec       q    Type
REMARK                         _______ _______ _______ _____ _____    ______ ____
ROOT
ATOM      1  N   UNL     1       3.200   5.110  19.628  0.00  0.00    +0.000 N 
ATOM      2  C   UNL     1       2.346   4.656  20.703  0.00  0.00    +0.000 C 
ATOM      3  C   UNL     1       1.321   5.788  20.837  0.00  0.00    +0.000 C 
ATOM      4  C   UNL     1       2.172   7.017  20.502  0.00  0.00    +0.000 C 
ATOM      5  C   UNL     1       2.972   6.451  19.351  0.00  0.00    +0.000 C 
ATOM      6  O   UNL     1       3.306   7.027  18.327  0.00  0.00    +0.000 OA
ENDROOT
BRANCH   1   7
ATOM      7  C   UNL     1       4.328   4.334  19.091  0.00  0.00    +0.000 C 
ATOM      8  C   UNL     1       4.410   2.913  19.662  0.00  0.00    +0.000 C 
BRANCH   7  10
ATOM      9  N   UNL     1       5.286   4.831  16.777  0.00  0.00    +0.000 N 
ATOM     10  C   UNL     1       4.260   4.240  17.535  0.00  0.00    +0.000 C 
ATOM     11  O   UNL     1       3.334   3.623  16.996  0.00  0.00    +0.000 OA
BRANCH   9  13
ATOM     12  C   UNL     1       5.456   6.012  14.562  0.00  0.00    +0.000 C 
ATOM     13  C   UNL     1       5.313   4.676  15.300  0.00  0.00    +0.000 C 
ATOM     14  C   UNL     1       6.352   3.666  14.806  0.00  0.00    +0.000 C 
ENDBRANCH   9  13
BRANCH   9  15
ATOM     15  C   UNL     1       6.371   5.628  17.380  0.00  0.00    +0.000 C 
BRANCH  15  16
ATOM     16  C   UNL     1       7.591   4.807  17.819  0.00  0.00    +0.000 C 
BRANCH  16  17
ATOM     17  O   UNL     1       7.899   4.991  19.198  0.00  0.00    +0.000 OA
ATOM     18  H   UNL     1       8.867   5.072  19.266  0.00  0.00    +0.000 HD
ENDBRANCH  16  17
ENDBRANCH  15  16
ENDBRANCH   9  15
ENDBRANCH   7  10
ENDBRANCH   1   7
BRANCH   4  19
ATOM     19  N   UNL     1       1.383   8.203  20.147  0.00  0.00    +0.000 NA
ATOM     20  H   UNL     1       0.747   8.080  19.360  0.00  0.00    +0.000 HD
BRANCH  19  21
ATOM     21  S   UNL     1       0.586   8.970  21.462  0.00  0.00    +0.000 S 
ATOM     22  O   UNL     1      -0.679   8.366  21.782  0.00  0.00    +0.000 OA
ATOM     23  O   UNL     1       1.601   9.247  22.453  0.00  0.00    +0.000 OA
BRANCH  21  24
ATOM     24  C   UNL     1       0.167  10.534  20.723  0.00  0.00    +0.000 A 
ATOM     25  C   UNL     1      -0.779  10.582  19.702  0.00  0.00    +0.000 A 
ATOM     26  C   UNL     1      -1.010  11.790  19.046  0.00  0.00    +0.000 A 
ATOM     27  C   UNL     1      -0.286  12.944  19.395  0.00  0.00    +0.000 A 
ATOM     28  C   UNL     1      -0.483  14.154  18.720  0.00  0.00    +0.000 A 
ATOM     29  C   UNL     1       0.265  15.280  19.061  0.00  0.00    +0.000 A 
ATOM     30 CL   UNL     1       0.018  16.755  18.210  0.00  0.00    +0.000 Cl
ATOM     31  C   UNL     1       1.213  15.223  20.078  0.00  0.00    +0.000 A 
ATOM     32  C   UNL     1       1.421  14.024  20.763  0.00  0.00    +0.000 A 
ATOM     33  C   UNL     1       0.679  12.880  20.429  0.00  0.00    +0.000 A 
ATOM     34  C   UNL     1       0.899  11.671  21.088  0.00  0.00    +0.000 A 
ENDBRANCH  21  24
ENDBRANCH  19  21
ENDBRANCH   4  19
TORSDOF 9
ENDMDL
MODEL 5
REMARK VINA RESULT:      -6.7      4.556     10.103
REMARK  Name = 
REMARK  12 active torsions:
REMARK  status: ('A' for Active; 'I' for Inactive)
REMARK    1  A    between atoms: C_1  and  C_2
REMARK    2  A    between atoms: C_2  and  C_3
REMARK    3  A    between atoms: C_2  and  N_4
REMARK    4  A    between atoms: N_4  and  C_5
REMARK    5  A    between atoms: C_5  and  C_6
REMARK    6  A    between atoms: C_6  and  O_7
REMARK    7  A    between atoms: C_8  and  C_10
REMARK    8  A    between atoms: C_10  and  C_11
REMARK    9  A    between atoms: C_10  and  N_12
REMARK   10  A    between atoms: C_15  and  N_16
REMARK   11  A    between atoms: N_16  and  S_17
REMARK   12  A    between atoms: S_17  and  C_20
REMARK                            x       y       z     vdW  Elec       q    Type
REMARK                         _______ _______ _______ _____ _____    ______ ____
ROOT
ATOM      1  N   UNL     1       2.225   7.163  19.037  0.00  0.00    +0.000 N 
ATOM      2  C   UNL     1       2.144   6.922  20.461  0.00  0.00    +0.000 C 
ATOM      3  C   UNL     1       1.069   7.912  20.923  0.00  0.00    +0.000 C 
ATOM      4  C   UNL     1       1.315   9.096  19.982  0.00  0.00    +0.000 C 
ATOM      5  C   UNL     1       1.567   8.337  18.699  0.00  0.00    +0.000 C 
ATOM      6  O   UNL     1       1.206   8.645  17.573  0.00  0.00    +0.000 OA
ENDROOT
BRANCH   1   7
ATOM      7  C   UNL     1       3.103   6.413  18.126  0.00  0.00    +0.000 C 
ATOM      8  C   UNL     1       4.202   7.278  17.498  0.00  0.00    +0.000 C 
BRANCH   7  10
ATOM      9  N   UNL     1       3.174   3.941  18.760  0.00  0.00    +0.000 N 
ATOM     10  C   UNL     1       3.775   5.208  18.855  0.00  0.00    +0.000 C 
ATOM     11  O   UNL     1       4.835   5.374  19.469  0.00  0.00    +0.000 OA
BRANCH   9  13
ATOM     12  C   UNL     1       3.468   2.531  20.823  0.00  0.00    +0.000 C 
ATOM     13  C   UNL     1       3.836   2.750  19.351  0.00  0.00    +0.000 C 
ATOM     14  C   UNL     1       3.632   1.466  18.541  0.00  0.00    +0.000 C 
ENDBRANCH   9  13
BRANCH   9  15
ATOM     15  C   UNL     1       1.880   3.715  18.090  0.00  0.00    +0.000 C 
BRANCH  15  16
ATOM     16  C   UNL     1       0.800   3.098  18.989  0.00  0.00    +0.000 C 
BRANCH  16  17
ATOM     17  O   UNL     1       0.496   3.919  20.112  0.00  0.00    +0.000 OA
ATOM     18  H   UNL     1       1.200   4.589  20.175  0.00  0.00    +0.000 HD
ENDBRANCH  16  17
ENDBRANCH  15  16
ENDBRANCH   9  15
ENDBRANCH   7  10
ENDBRANCH   1   7
BRANCH   4  19
ATOM     19  N   UNL     1       0.187  10.033  19.904  0.00  0.00    +0.000 NA
ATOM     20  H   UNL     1      -0.665   9.724  20.371  0.00  0.00    +0.000 HD
BRANCH  19  21
ATOM     21  S   UNL     1       0.557  11.658  20.317  0.00  0.00    +0.000 S 
ATOM     22  O   UNL     1       1.699  11.771  21.184  0.00  0.00    +0.000 OA
ATOM     23  O   UNL     1       0.404  12.435  19.108  0.00  0.00    +0.000 OA
BRANCH  21  24
ATOM     24  C   UNL     1      -0.836  12.058  21.350  0.00  0.00    +0.000 A 
ATOM     25  C   UNL     1      -0.948  11.479  22.611  0.00  0.00    +0.000 A 
ATOM     26  C   UNL     1      -2.102  11.700  23.361  0.00  0.00    +0.000 A 
ATOM     27  C   UNL     1      -3.150  12.484  22.846  0.00  0.00    +0.000 A 
ATOM     28  C   UNL     1      -4.329  12.685  23.575  0.00  0.00    +0.000 A 
ATOM     29  C   UNL     1      -5.369  13.442  23.036  0.00  0.00    +0.000 A 
ATOM     30 CL   UNL     1      -6.815  13.666  23.940  0.00  0.00    +0.000 Cl
ATOM     31  C   UNL     1      -5.252  14.013  21.772  0.00  0.00    +0.000 A 
ATOM     32  C   UNL     1      -4.082  13.825  21.033  0.00  0.00    +0.000 A 
ATOM     33  C   UNL     1      -3.027  13.062  21.559  0.00  0.00    +0.000 A 
ATOM     34  C   UNL     1      -1.867  12.844  20.818  0.00  0.00    +0.000 A 
ENDBRANCH  21  24
ENDBRANCH  19  21
ENDBRANCH   4  19
TORSDOF 9
ENDMDL
MODEL 6
REMARK VINA RESULT:      -6.6      2.839      4.605
REMARK  Name = 
REMARK  12 active torsions:
REMARK  status: ('A' for Active; 'I' for Inactive)
REMARK    1  A    between atoms: C_1  and  C_2
REMARK    2  A    between atoms: C_2  and  C_3
REMARK    3  A    between atoms: C_2  and  N_4
REMARK    4  A    between atoms: N_4  and  C_5
REMARK    5  A    between atoms: C_5  and  C_6
REMARK    6  A    between atoms: C_6  and  O_7
REMARK    7  A    between atoms: C_8  and  C_10
REMARK    8  A    between atoms: C_10  and  C_11
REMARK    9  A    between atoms: C_10  and  N_12
REMARK   10  A    between atoms: C_15  and  N_16
REMARK   11  A    between atoms: N_16  and  S_17
REMARK   12  A    between atoms: S_17  and  C_20
REMARK                            x       y       z     vdW  Elec       q    Type
REMARK                         _______ _______ _______ _____ _____    ______ ____
ROOT
ATOM      1  N   UNL     1       1.812  13.294  19.856  0.00  0.00    +0.000 N 
ATOM      2  C   UNL     1       2.223  12.758  18.577  0.00  0.00    +0.000 C 
ATOM      3  C   UNL     1       1.427  11.452  18.473  0.00  0.00    +0.000 C 
ATOM      4  C   UNL     1       1.385  10.999  19.936  0.00  0.00    +0.000 C 
ATOM      5  C   UNL     1       1.135  12.336  20.596  0.00  0.00    +0.000 C 
ATOM      6  O   UNL     1       0.418  12.564  21.559  0.00  0.00    +0.000 OA
ENDROOT
BRANCH   1   7
ATOM      7  C   UNL     1       2.278  14.581  20.395  0.00  0.00    +0.000 C 
ATOM      8  C   UNL     1       3.804  14.663  20.530  0.00  0.00    +0.000 C 
BRANCH   7  10
ATOM      9  N   UNL     1       0.592  16.417  19.848  0.00  0.00    +0.000 N 
ATOM     10  C   UNL     1       1.794  15.772  19.511  0.00  0.00    +0.000 C 
ATOM     11  O   UNL     1       2.484  16.152  18.558  0.00  0.00    +0.000 OA
BRANCH   9  13
ATOM     12  C   UNL     1      -0.633  17.273  17.823  0.00  0.00    +0.000 C 
ATOM     13  C   UNL     1       0.148  17.619  19.096  0.00  0.00    +0.000 C 
ATOM     14  C   UNL     1      -0.622  18.630  19.949  0.00  0.00    +0.000 C 
ENDBRANCH   9  13
BRANCH   9  15
ATOM     15  C   UNL     1      -0.289  15.955  20.937  0.00  0.00    +0.000 C 
BRANCH  15  16
ATOM     16  C   UNL     1      -1.645  15.410  20.468  0.00  0.00    +0.000 C 
BRANCH  16  17
ATOM     17  O   UNL     1      -1.509  14.252  19.649  0.00  0.00    +0.000 OA
ATOM     18  H   UNL     1      -2.351  14.138  19.174  0.00  0.00    +0.000 HD
ENDBRANCH  16  17
ENDBRANCH  15  16
ENDBRANCH   9  15
ENDBRANCH   7  10
ENDBRANCH   1   7
BRANCH   4  19
ATOM     19  N   UNL     1       0.347   9.998  20.214  0.00  0.00    +0.000 NA
ATOM     20  H   UNL     1       0.008   9.488  19.399  0.00  0.00    +0.000 HD
BRANCH  19  21
ATOM     21  S   UNL     1       0.698   8.922  21.505  0.00  0.00    +0.000 S 
ATOM     22  O   UNL     1       1.718   9.419  22.389  0.00  0.00    +0.000 OA
ATOM     23  O   UNL     1      -0.572   8.413  21.973  0.00  0.00    +0.000 OA
BRANCH  21  24
ATOM     24  C   UNL     1       1.477   7.589  20.619  0.00  0.00    +0.000 A 
ATOM     25  C   UNL     1       2.101   7.845  19.401  0.00  0.00    +0.000 A 
ATOM     26  C   UNL     1       2.598   6.777  18.656  0.00  0.00    +0.000 A 
ATOM     27  C   UNL     1       2.457   5.456  19.116  0.00  0.00    +0.000 A 
ATOM     28  C   UNL     1       2.921   4.372  18.360  0.00  0.00    +0.000 A 
ATOM     29  C   UNL     1       2.746   3.067  18.819  0.00  0.00    +0.000 A 
ATOM     30 CL   UNL     1       3.310   1.749  17.870  0.00  0.00    +0.000 Cl
ATOM     31  C   UNL     1       2.115   2.820  20.035  0.00  0.00    +0.000 A 
ATOM     32  C   UNL     1       1.649   3.889  20.802  0.00  0.00    +0.000 A 
ATOM     33  C   UNL     1       1.813   5.209  20.352  0.00  0.00    +0.000 A 
ATOM     34  C   UNL     1       1.326   6.281  21.098  0.00  0.00    +0.000 A 
ENDBRANCH  21  24
ENDBRANCH  19  21
ENDBRANCH   4  19
TORSDOF 9
ENDMDL
MODEL 7
REMARK VINA RESULT:      -6.6      4.115      9.692
REMARK  Name = 
REMARK  12 active torsions:
REMARK  status: ('A' for Active; 'I' for Inactive)
REMARK    1  A    between atoms: C_1  and  C_2
REMARK    2  A    between atoms: C_2  and  C_3
REMARK    3  A    between atoms: C_2  and  N_4
REMARK    4  A    between atoms: N_4  and  C_5
REMARK    5  A    between atoms: C_5  and  C_6
REMARK    6  A    between atoms: C_6  and  O_7
REMARK    7  A    between atoms: C_8  and  C_10
REMARK    8  A    between atoms: C_10  and  C_11
REMARK    9  A    between atoms: C_10  and  N_12
REMARK   10  A    between atoms: C_15  and  N_16
REMARK   11  A    between atoms: N_16  and  S_17
REMARK   12  A    between atoms: S_17  and  C_20
REMARK                            x       y       z     vdW  Elec       q    Type
REMARK                         _______ _______ _______ _____ _____    ______ ____
ROOT
ATOM      1  N   UNL     1       2.515   7.031  18.808  0.00  0.00    +0.000 N 
ATOM      2  C   UNL     1       2.291   6.780  20.215  0.00  0.00    +0.000 C 
ATOM      3  C   UNL     1       1.229   7.820  20.590  0.00  0.00    +0.000 C 
ATOM      4  C   UNL     1       1.621   8.999  19.694  0.00  0.00    +0.000 C 
ATOM      5  C   UNL     1       1.952   8.241  18.428  0.00  0.00    +0.000 C 
ATOM      6  O   UNL     1       1.713   8.578  17.278  0.00  0.00    +0.000 OA
ENDROOT
BRANCH   1   7
ATOM      7  C   UNL     1       3.435   6.246  17.971  0.00  0.00    +0.000 C 
ATOM      8  C   UNL     1       4.596   7.074  17.407  0.00  0.00    +0.000 C 
BRANCH   7  10
ATOM      9  N   UNL     1       3.356   3.803  18.709  0.00  0.00    +0.000 N 
ATOM     10  C   UNL     1       4.026   5.038  18.762  0.00  0.00    +0.000 C 
ATOM     11  O   UNL     1       5.083   5.170  19.388  0.00  0.00    +0.000 OA
BRANCH   9  13
ATOM     12  C   UNL     1       3.514   2.454  20.827  0.00  0.00    +0.000 C 
ATOM     13  C   UNL     1       3.940   2.603  19.361  0.00  0.00    +0.000 C 
ATOM     14  C   UNL     1       3.700   1.304  18.589  0.00  0.00    +0.000 C 
ENDBRANCH   9  13
BRANCH   9  15
ATOM     15  C   UNL     1       2.062   3.622  18.025  0.00  0.00    +0.000 C 
BRANCH  15  16
ATOM     16  C   UNL     1       0.976   2.962  18.886  0.00  0.00    +0.000 C 
BRANCH  16  17
ATOM     17  O   UNL     1       0.536   3.808  19.944  0.00  0.00    +0.000 OA
ATOM     18  H   UNL     1       0.799   4.716  19.712  0.00  0.00    +0.000 HD
ENDBRANCH  16  17
ENDBRANCH  15  16
ENDBRANCH   9  15
ENDBRANCH   7  10
ENDBRANCH   1   7
BRANCH   4  19
ATOM     19  N   UNL     1       0.554   9.994  19.525  0.00  0.00    +0.000 NA
ATOM     20  H   UNL     1      -0.383   9.608  19.412  0.00  0.00    +0.000 HD
BRANCH  19  21
ATOM     21  S   UNL     1       0.555  11.267  20.677  0.00  0.00    +0.000 S 
ATOM     22  O   UNL     1       0.590  10.797  22.036  0.00  0.00    +0.000 OA
ATOM     23  O   UNL     1       1.452  12.280  20.169  0.00  0.00    +0.000 OA
BRANCH  21  24
ATOM     24  C   UNL     1      -1.093  11.905  20.462  0.00  0.00    +0.000 A 
ATOM     25  C   UNL     1      -1.701  12.608  21.499  0.00  0.00    +0.000 A 
ATOM     26  C   UNL     1      -3.034  12.994  21.368  0.00  0.00    +0.000 A 
ATOM     27  C   UNL     1      -3.764  12.664  20.214  0.00  0.00    +0.000 A 
ATOM     28  C   UNL     1      -5.114  13.017  20.085  0.00  0.00    +0.000 A 
ATOM     29  C   UNL     1      -5.829  12.655  18.944  0.00  0.00    +0.000 A 
ATOM     30 CL   UNL     1      -7.490  13.084  18.812  0.00  0.00    +0.000 Cl
ATOM     31  C   UNL     1      -5.217  11.946  17.915  0.00  0.00    +0.000 A 
ATOM     32  C   UNL     1      -3.872  11.590  18.025  0.00  0.00    +0.000 A 
ATOM     33  C   UNL     1      -3.137  11.942  19.169  0.00  0.00    +0.000 A 
ATOM     34  C   UNL     1      -1.801  11.566  19.302  0.00  0.00    +0.000 A 
ENDBRANCH  21  24
ENDBRANCH  19  21
ENDBRANCH   4  19
TORSDOF 9
ENDMDL
MODEL 8
REMARK VINA RESULT:      -6.6      0.975      1.701
REMARK  Name = 
REMARK  12 active torsions:
REMARK  status: ('A' for Active; 'I' for Inactive)
REMARK    1  A    between atoms: C_1  and  C_2
REMARK    2  A    between atoms: C_2  and  C_3
REMARK    3  A    between atoms: C_2  and  N_4
REMARK    4  A    between atoms: N_4  and  C_5
REMARK    5  A    between atoms: C_5  and  C_6
REMARK    6  A    between atoms: C_6  and  O_7
REMARK    7  A    between atoms: C_8  and  C_10
REMARK    8  A    between atoms: C_10  and  C_11
REMARK    9  A    between atoms: C_10  and  N_12
REMARK   10  A    between atoms: C_15  and  N_16
REMARK   11  A    between atoms: N_16  and  S_17
REMARK   12  A    between atoms: S_17  and  C_20
REMARK                            x       y       z     vdW  Elec       q    Type
REMARK                         _______ _______ _______ _____ _____    ______ ____
ROOT
ATOM      1  N   UNL     1       0.420   9.758  19.816  0.00  0.00    +0.000 N 
ATOM      2  C   UNL     1       0.008   9.274  21.116  0.00  0.00    +0.000 C 
ATOM      3  C   UNL     1       1.106   8.267  21.477  0.00  0.00    +0.000 C 
ATOM      4  C   UNL     1       1.454   7.684  20.104  0.00  0.00    +0.000 C 
ATOM      5  C   UNL     1       1.418   8.954  19.285  0.00  0.00    +0.000 C 
ATOM      6  O   UNL     1       2.164   9.266  18.369  0.00  0.00    +0.000 OA
ENDROOT
BRANCH   1   7
ATOM      7  C   UNL     1      -0.303  10.791  19.058  0.00  0.00    +0.000 C 
ATOM      8  C   UNL     1      -1.656  10.311  18.520  0.00  0.00    +0.000 C 
BRANCH   7  10
ATOM      9  N   UNL     1      -0.002  13.290  19.490  0.00  0.00    +0.000 N 
ATOM     10  C   UNL     1      -0.539  12.066  19.927  0.00  0.00    +0.000 C 
ATOM     11  O   UNL     1      -1.219  11.992  20.957  0.00  0.00    +0.000 OA
BRANCH   9  13
ATOM     12  C   UNL     1       0.693  14.799  21.380  0.00  0.00    +0.000 C 
ATOM     13  C   UNL     1      -0.291  14.544  20.232  0.00  0.00    +0.000 C 
ATOM     14  C   UNL     1      -0.411  15.777  19.333  0.00  0.00    +0.000 C 
ENDBRANCH   9  13
BRANCH   9  15
ATOM     15  C   UNL     1       0.864  13.407  18.303  0.00  0.00    +0.000 C 
BRANCH  15  16
ATOM     16  C   UNL     1       2.319  12.975  18.534  0.00  0.00    +0.000 C 
BRANCH  16  17
ATOM     17  O   UNL     1       2.764  12.030  17.565  0.00  0.00    +0.000 OA
ATOM     18  H   UNL     1       2.795  12.491  16.709  0.00  0.00    +0.000 HD
ENDBRANCH  16  17
ENDBRANCH  15  16
ENDBRANCH   9  15
ENDBRANCH   7  10
ENDBRANCH   1   7
BRANCH   4  19
ATOM     19  N   UNL     1       2.750   6.993  20.068  0.00  0.00    +0.000 NA
ATOM     20  H   UNL     1       3.273   7.009  20.942  0.00  0.00    +0.000 HD
BRANCH  19  21
ATOM     21  S   UNL     1       2.714   5.410  19.404  0.00  0.00    +0.000 S 
ATOM     22  O   UNL     1       3.270   4.418  20.286  0.00  0.00    +0.000 OA
ATOM     23  O   UNL     1       1.428   5.262  18.761  0.00  0.00    +0.000 OA
BRANCH  21  24
ATOM     24  C   UNL     1       3.912   5.575  18.097  0.00  0.00    +0.000 A 
ATOM     25  C   UNL     1       4.355   6.842  17.725  0.00  0.00    +0.000 A 
ATOM     26  C   UNL     1       5.195   6.970  16.621  0.00  0.00    +0.000 A 
ATOM     27  C   UNL     1       5.579   5.840  15.879  0.00  0.00    +0.000 A 
ATOM     28  C   UNL     1       6.396   5.959  14.747  0.00  0.00    +0.000 A 
ATOM     29  C   UNL     1       6.742   4.830  14.007  0.00  0.00    +0.000 A 
ATOM     30 CL   UNL     1       7.733   4.999  12.611  0.00  0.00    +0.000 Cl
ATOM     31  C   UNL     1       6.290   3.567  14.382  0.00  0.00    +0.000 A 
ATOM     32  C   UNL     1       5.479   3.430  15.509  0.00  0.00    +0.000 A 
ATOM     33  C   UNL     1       5.116   4.558  16.263  0.00  0.00    +0.000 A 
ATOM     34  C   UNL     1       4.283   4.435  17.374  0.00  0.00    +0.000 A 
ENDBRANCH  21  24
ENDBRANCH  19  21
ENDBRANCH   4  19
TORSDOF 9
ENDMDL
MODEL 9
REMARK VINA RESULT:      -6.6      1.490      2.761
REMARK  Name = 
REMARK  12 active torsions:
REMARK  status: ('A' for Active; 'I' for Inactive)
REMARK    1  A    between atoms: C_1  and  C_2
REMARK    2  A    between atoms: C_2  and  C_3
REMARK    3  A    between atoms: C_2  and  N_4
REMARK    4  A    between atoms: N_4  and  C_5
REMARK    5  A    between atoms: C_5  and  C_6
REMARK    6  A    between atoms: C_6  and  O_7
REMARK    7  A    between atoms: C_8  and  C_10
REMARK    8  A    between atoms: C_10  and  C_11
REMARK    9  A    between atoms: C_10  and  N_12
REMARK   10  A    between atoms: C_15  and  N_16
REMARK   11  A    between atoms: N_16  and  S_17
REMARK   12  A    between atoms: S_17  and  C_20
REMARK                            x       y       z     vdW  Elec       q    Type
REMARK                         _______ _______ _______ _____ _____    ______ ____
ROOT
ATOM      1  N   UNL     1       0.770   9.798  20.216  0.00  0.00    +0.000 N 
ATOM      2  C   UNL     1       0.281   9.599  21.562  0.00  0.00    +0.000 C 
ATOM      3  C   UNL     1       1.103   8.405  22.059  0.00  0.00    +0.000 C 
ATOM      4  C   UNL     1       1.265   7.585  20.775  0.00  0.00    +0.000 C 
ATOM      5  C   UNL     1       1.525   8.711  19.801  0.00  0.00    +0.000 C 
ATOM      6  O   UNL     1       2.304   8.710  18.859  0.00  0.00    +0.000 OA
ENDROOT
BRANCH   1   7
ATOM      7  C   UNL     1       0.308  10.874  19.325  0.00  0.00    +0.000 C 
ATOM      8  C   UNL     1       1.440  11.512  18.511  0.00  0.00    +0.000 C 
BRANCH   7  10
ATOM      9  N   UNL     1      -2.083  10.891  18.429  0.00  0.00    +0.000 N 
ATOM     10  C   UNL     1      -0.785  10.360  18.337  0.00  0.00    +0.000 C 
ATOM     11  O   UNL     1      -0.489   9.528  17.472  0.00  0.00    +0.000 OA
BRANCH   9  13
ATOM     12  C   UNL     1      -4.547  10.816  17.923  0.00  0.00    +0.000 C 
ATOM     13  C   UNL     1      -3.124  10.505  17.443  0.00  0.00    +0.000 C 
ATOM     14  C   UNL     1      -2.885  11.073  16.042  0.00  0.00    +0.000 C 
ENDBRANCH   9  13
BRANCH   9  15
ATOM     15  C   UNL     1      -2.489  11.837  19.486  0.00  0.00    +0.000 C 
BRANCH  15  16
ATOM     16  C   UNL     1      -1.909  13.249  19.329  0.00  0.00    +0.000 C 
BRANCH  16  17
ATOM     17  O   UNL     1      -1.194  13.672  20.487  0.00  0.00    +0.000 OA
ATOM     18  H   UNL     1      -1.180  14.645  20.474  0.00  0.00    +0.000 HD
ENDBRANCH  16  17
ENDBRANCH  15  16
ENDBRANCH   9  15
ENDBRANCH   7  10
ENDBRANCH   1   7
BRANCH   4  19
ATOM     19  N   UNL     1       2.348   6.595  20.839  0.00  0.00    +0.000 NA
ATOM     20  H   UNL     1       2.961   6.676  21.650  0.00  0.00    +0.000 HD
BRANCH  19  21
ATOM     21  S   UNL     1       1.862   4.965  20.600  0.00  0.00    +0.000 S 
ATOM     22  O   UNL     1       2.394   4.069  21.591  0.00  0.00    +0.000 OA
ATOM     23  O   UNL     1       0.463   5.002  20.239  0.00  0.00    +0.000 OA
BRANCH  21  24
ATOM     24  C   UNL     1       2.754   4.574  19.110  0.00  0.00    +0.000 A 
ATOM     25  C   UNL     1       3.011   3.243  18.791  0.00  0.00    +0.000 A 
ATOM     26  C   UNL     1       3.816   2.952  17.690  0.00  0.00    +0.000 A 
ATOM     27  C   UNL     1       4.376   3.986  16.920  0.00  0.00    +0.000 A 
ATOM     28  C   UNL     1       5.213   3.707  15.833  0.00  0.00    +0.000 A 
ATOM     29  C   UNL     1       5.782   4.746  15.098  0.00  0.00    +0.000 A 
ATOM     30 CL   UNL     1       6.821   4.383  13.776  0.00  0.00    +0.000 Cl
ATOM     31  C   UNL     1       5.525   6.074  15.427  0.00  0.00    +0.000 A 
ATOM     32  C   UNL     1       4.690   6.370  16.506  0.00  0.00    +0.000 A 
ATOM     33  C   UNL     1       4.112   5.335  17.259  0.00  0.00    +0.000 A 
ATOM     34  C   UNL     1       3.300   5.620  18.356  0.00  0.00    +0.000 A 
ENDBRANCH  21  24
ENDBRANCH  19  21
ENDBRANCH   4  19
TORSDOF 9
ENDMDL
