MODEL 1
REMARK VINA RESULT:      -6.6      0.000      0.000
REMARK  Name = 
REMARK  7 active torsions:
REMARK  status: ('A' for Active; 'I' for Inactive)
REMARK    1  A    between atoms: C_1  and  N_2
REMARK    2  A    between atoms: C_4  and  C_5
REMARK    3  A    between atoms: C_5  and  C_6
REMARK    4  A    between atoms: C_5  and  O_7
REMARK    5  A    between atoms: C_5  and  C_8
REMARK    6  A    between atoms: C_8  and  N_9
REMARK    7  A    between atoms: C_10  and  C_12
REMARK                            x       y       z     vdW  Elec       q    Type
REMARK                         _______ _______ _______ _____ _____    ______ ____
ROOT
ATOM      1  C   UNL     1       5.301   6.086  15.955  0.00  0.00    +0.000 C 
ENDROOT
BRANCH   1   2
ATOM      2  N   UNL     1       4.492   5.601  17.060  0.00  0.00    +0.000 N 
ATOM      3  C   UNL     1       3.730   6.426  17.860  0.00  0.00    +0.000 C 
ATOM      4  O   UNL     1       3.672   7.638  17.663  0.00  0.00    +0.000 OA
ATOM      5  H   UNL     1       4.552   4.620  17.306  0.00  0.00    +0.000 HD
BRANCH   3   6
ATOM      6  C   UNL     1       3.027   5.770  18.953  0.00  0.00    +0.000 A 
ATOM      7  C   UNL     1       2.171   6.365  19.865  0.00  0.00    +0.000 A 
ATOM      8  C   UNL     1       1.635   5.434  20.806  0.00  0.00    +0.000 A 
ATOM      9  C   UNL     1       2.110   4.169  20.570  0.00  0.00    +0.000 A 
ATOM     10 BR   UNL     1       1.627   2.674  21.589  0.00  0.00    +0.000 Br
ATOM     11  S   UNL     1       3.179   4.087  19.262  0.00  0.00    +0.000 S 
ENDBRANCH   3   6
ENDBRANCH   1   2
BRANCH   1  12
ATOM     12  C   UNL     1       6.613   5.292  15.696  0.00  0.00    +0.000 C 
ATOM     13  C   UNL     1       6.859   4.245  16.790  0.00  0.00    +0.000 C 
BRANCH  12  17
ATOM     14  C   UNL     1       5.639   2.497  11.607  0.00  0.00    +0.000 C 
ATOM     15  N   UNL     1       6.183   3.463  12.529  0.00  0.00    +0.000 N 
ATOM     16  C   UNL     1       5.774   3.708  13.806  0.00  0.00    +0.000 A 
ATOM     17  C   UNL     1       6.614   4.684  14.313  0.00  0.00    +0.000 A 
ATOM     18  C   UNL     1       7.492   4.955  13.233  0.00  0.00    +0.000 A 
ATOM     19  N   UNL     1       7.233   4.214  12.155  0.00  0.00    +0.000 NA
ENDBRANCH  12  17
BRANCH  12  20
ATOM     20  O   UNL     1       7.692   6.242  15.798  0.00  0.00    +0.000 OA
ATOM     21  H   UNL     1       8.222   6.147  14.986  0.00  0.00    +0.000 HD
ENDBRANCH  12  20
ENDBRANCH   1  12
TORSDOF 5
ENDMDL
MODEL 2
REMARK VINA RESULT:      -6.6      3.582      4.431
REMARK  Name = 
REMARK  7 active torsions:
REMARK  status: ('A' for Active; 'I' for Inactive)
REMARK    1  A    between atoms: C_1  and  N_2
REMARK    2  A    between atoms: C_4  and  C_5
REMARK    3  A    between atoms: C_5  and  C_6
REMARK    4  A    between atoms: C_5  and  O_7
REMARK    5  A    between atoms: C_5  and  C_8
REMARK    6  A    between atoms: C_8  and  N_9
REMARK    7  A    between atoms: C_10  and  C_12
REMARK                            x       y       z     vdW  Elec       q    Type
REMARK                         _______ _______ _______ _____ _____    ______ ____
ROOT
ATOM      1  C   UNL     1       4.118   4.645  19.345  0.00  0.00    +0.000 C 
ENDROOT
BRANCH   1   2
ATOM      2  N   UNL     1       3.573   5.964  19.072  0.00  0.00    +0.000 N 
ATOM      3  C   UNL     1       2.457   6.469  19.707  0.00  0.00    +0.000 C 
ATOM      4  O   UNL     1       1.864   5.828  20.571  0.00  0.00    +0.000 OA
ATOM      5  H   UNL     1       3.984   6.509  18.325  0.00  0.00    +0.000 HD
BRANCH   3   6
ATOM      6  C   UNL     1       2.024   7.787  19.267  0.00  0.00    +0.000 A 
ATOM      7  C   UNL     1       2.224   8.353  18.018  0.00  0.00    +0.000 A 
ATOM      8  C   UNL     1       1.660   9.660  17.909  0.00  0.00    +0.000 A 
ATOM      9  C   UNL     1       1.056  10.033  19.082  0.00  0.00    +0.000 A 
ATOM     10 BR   UNL     1       0.193  11.678  19.327  0.00  0.00    +0.000 Br
ATOM     11  S   UNL     1       1.163   8.860  20.296  0.00  0.00    +0.000 S 
ENDBRANCH   3   6
ENDBRANCH   1   2
BRANCH   1  12
ATOM     12  C   UNL     1       4.234   3.708  18.109  0.00  0.00    +0.000 C 
ATOM     13  C   UNL     1       2.895   3.589  17.368  0.00  0.00    +0.000 C 
BRANCH  12  17
ATOM     14  C   UNL     1       7.100   4.811  14.102  0.00  0.00    +0.000 C 
ATOM     15  N   UNL     1       6.600   4.634  15.443  0.00  0.00    +0.000 N 
ATOM     16  C   UNL     1       5.360   4.204  15.813  0.00  0.00    +0.000 A 
ATOM     17  C   UNL     1       5.353   4.152  17.196  0.00  0.00    +0.000 A 
ATOM     18  C   UNL     1       6.656   4.586  17.548  0.00  0.00    +0.000 A 
ATOM     19  N   UNL     1       7.411   4.874  16.487  0.00  0.00    +0.000 NA
ENDBRANCH  12  17
BRANCH  12  20
ATOM     20  O   UNL     1       4.530   2.394  18.619  0.00  0.00    +0.000 OA
ATOM     21  H   UNL     1       5.291   2.495  19.219  0.00  0.00    +0.000 HD
ENDBRANCH  12  20
ENDBRANCH   1  12
TORSDOF 5
ENDMDL
MODEL 3
REMARK VINA RESULT:      -6.2      3.439      4.306
REMARK  Name = 
REMARK  7 active torsions:
REMARK  status: ('A' for Active; 'I' for Inactive)
REMARK    1  A    between atoms: C_1  and  N_2
REMARK    2  A    between atoms: C_4  and  C_5
REMARK    3  A    between atoms: C_5  and  C_6
REMARK    4  A    between atoms: C_5  and  O_7
REMARK    5  A    between atoms: C_5  and  C_8
REMARK    6  A    between atoms: C_8  and  N_9
REMARK    7  A    between atoms: C_10  and  C_12
REMARK                            x       y       z     vdW  Elec       q    Type
REMARK                         _______ _______ _______ _____ _____    ______ ____
ROOT
ATOM      1  C   UNL     1       4.285   4.491  19.512  0.00  0.00    +0.000 C 
ENDROOT
BRANCH   1   2
ATOM      2  N   UNL     1       3.610   5.775  19.600  0.00  0.00    +0.000 N 
ATOM      3  C   UNL     1       2.403   5.954  20.242  0.00  0.00    +0.000 C 
ATOM      4  O   UNL     1       1.831   5.024  20.806  0.00  0.00    +0.000 OA
ATOM      5  H   UNL     1       4.005   6.561  19.099  0.00  0.00    +0.000 HD
BRANCH   3   6
ATOM      6  C   UNL     1       1.851   7.299  20.182  0.00  0.00    +0.000 A 
ATOM      7  C   UNL     1       1.163   7.960  21.186  0.00  0.00    +0.000 A 
ATOM      8  C   UNL     1       0.767   9.278  20.808  0.00  0.00    +0.000 A 
ATOM      9  C   UNL     1       1.170   9.564  19.528  0.00  0.00    +0.000 A 
ATOM     10 BR   UNL     1       0.844  11.201  18.680  0.00  0.00    +0.000 Br
ATOM     11  S   UNL     1       1.995   8.289  18.784  0.00  0.00    +0.000 S 
ENDBRANCH   3   6
ENDBRANCH   1   2
BRANCH   1  12
ATOM     12  C   UNL     1       4.179   3.781  18.132  0.00  0.00    +0.000 C 
ATOM     13  C   UNL     1       2.805   4.008  17.489  0.00  0.00    +0.000 C 
BRANCH  12  17
ATOM     14  C   UNL     1       7.073   4.830  14.131  0.00  0.00    +0.000 C 
ATOM     15  N   UNL     1       6.570   4.653  15.472  0.00  0.00    +0.000 N 
ATOM     16  C   UNL     1       5.317   4.265  15.840  0.00  0.00    +0.000 A 
ATOM     17  C   UNL     1       5.312   4.195  17.222  0.00  0.00    +0.000 A 
ATOM     18  C   UNL     1       6.630   4.576  17.576  0.00  0.00    +0.000 A 
ATOM     19  N   UNL     1       7.392   4.851  16.516  0.00  0.00    +0.000 NA
ENDBRANCH  12  17
BRANCH  12  20
ATOM     20  O   UNL     1       4.273   2.367  18.394  0.00  0.00    +0.000 OA
ATOM     21  H   UNL     1       3.477   2.126  18.900  0.00  0.00    +0.000 HD
ENDBRANCH  12  20
ENDBRANCH   1  12
TORSDOF 5
ENDMDL
MODEL 4
REMARK VINA RESULT:      -6.2      3.815      6.958
REMARK  Name = 
REMARK  7 active torsions:
REMARK  status: ('A' for Active; 'I' for Inactive)
REMARK    1  A    between atoms: C_1  and  N_2
REMARK    2  A    between atoms: C_4  and  C_5
REMARK    3  A    between atoms: C_5  and  C_6
REMARK    4  A    between atoms: C_5  and  O_7
REMARK    5  A    between atoms: C_5  and  C_8
REMARK    6  A    between atoms: C_8  and  N_9
REMARK    7  A    between atoms: C_10  and  C_12
REMARK                            x       y       z     vdW  Elec       q    Type
REMARK                         _______ _______ _______ _____ _____    ______ ____
ROOT
ATOM      1  C   UNL     1       3.639   3.053  19.606  0.00  0.00    +0.000 C 
ENDROOT
BRANCH   1   2
ATOM      2  N   UNL     1       4.325   3.275  18.344  0.00  0.00    +0.000 N 
ATOM      3  C   UNL     1       5.440   4.077  18.219  0.00  0.00    +0.000 C 
ATOM      4  O   UNL     1       5.939   4.640  19.191  0.00  0.00    +0.000 OA
ATOM      5  H   UNL     1       3.919   2.886  17.501  0.00  0.00    +0.000 HD
BRANCH   3   6
ATOM      6  C   UNL     1       5.961   4.225  16.869  0.00  0.00    +0.000 A 
ATOM      7  C   UNL     1       7.070   4.960  16.483  0.00  0.00    +0.000 A 
ATOM      8  C   UNL     1       7.319   4.886  15.079  0.00  0.00    +0.000 A 
ATOM      9  C   UNL     1       6.385   4.098  14.456  0.00  0.00    +0.000 A 
ATOM     10 BR   UNL     1       6.383   3.751  12.615  0.00  0.00    +0.000 Br
ATOM     11  S   UNL     1       5.228   3.464  15.514  0.00  0.00    +0.000 S 
ENDBRANCH   3   6
ENDBRANCH   1   2
BRANCH   1  12
ATOM     12  C   UNL     1       2.183   3.596  19.672  0.00  0.00    +0.000 C 
ATOM     13  C   UNL     1       1.461   3.111  20.936  0.00  0.00    +0.000 C 
BRANCH  12  17
ATOM     14  C   UNL     1       2.446   8.337  17.961  0.00  0.00    +0.000 C 
ATOM     15  N   UNL     1       2.273   7.169  18.789  0.00  0.00    +0.000 N 
ATOM     16  C   UNL     1       2.353   5.864  18.403  0.00  0.00    +0.000 A 
ATOM     17  C   UNL     1       2.159   5.100  19.542  0.00  0.00    +0.000 A 
ATOM     18  C   UNL     1       1.962   6.069  20.558  0.00  0.00    +0.000 A 
ATOM     19  N   UNL     1       2.034   7.320  20.102  0.00  0.00    +0.000 NA
ENDBRANCH  12  17
BRANCH  12  20
ATOM     20  O   UNL     1       1.479   3.012  18.558  0.00  0.00    +0.000 OA
ATOM     21  H   UNL     1       2.025   2.269  18.245  0.00  0.00    +0.000 HD
ENDBRANCH  12  20
ENDBRANCH   1  12
TORSDOF 5
ENDMDL
MODEL 5
REMARK VINA RESULT:      -6.2      3.040      3.944
REMARK  Name = 
REMARK  7 active torsions:
REMARK  status: ('A' for Active; 'I' for Inactive)
REMARK    1  A    between atoms: C_1  and  N_2
REMARK    2  A    between atoms: C_4  and  C_5
REMARK    3  A    between atoms: C_5  and  C_6
REMARK    4  A    between atoms: C_5  and  O_7
REMARK    5  A    between atoms: C_5  and  C_8
REMARK    6  A    between atoms: C_8  and  N_9
REMARK    7  A    between atoms: C_10  and  C_12
REMARK                            x       y       z     vdW  Elec       q    Type
REMARK                         _______ _______ _______ _____ _____    ______ ____
ROOT
ATOM      1  C   UNL     1       3.044   4.885  18.007  0.00  0.00    +0.000 C 
ENDROOT
BRANCH   1   2
ATOM      2  N   UNL     1       2.355   5.939  18.732  0.00  0.00    +0.000 N 
ATOM      3  C   UNL     1       2.519   7.280  18.457  0.00  0.00    +0.000 C 
ATOM      4  O   UNL     1       3.254   7.664  17.549  0.00  0.00    +0.000 OA
ATOM      5  H   UNL     1       1.787   5.682  19.530  0.00  0.00    +0.000 HD
BRANCH   3   6
ATOM      6  C   UNL     1       1.789   8.195  19.321  0.00  0.00    +0.000 A 
ATOM      7  C   UNL     1       1.324   9.457  18.990  0.00  0.00    +0.000 A 
ATOM      8  C   UNL     1       0.634  10.090  20.067  0.00  0.00    +0.000 A 
ATOM      9  C   UNL     1       0.604   9.281  21.174  0.00  0.00    +0.000 A 
ATOM     10 BR   UNL     1      -0.223   9.758  22.786  0.00  0.00    +0.000 Br
ATOM     11  S   UNL     1       1.390   7.801  20.945  0.00  0.00    +0.000 S 
ENDBRANCH   3   6
ENDBRANCH   1   2
BRANCH   1  12
ATOM     12  C   UNL     1       4.448   4.510  18.561  0.00  0.00    +0.000 C 
ATOM     13  C   UNL     1       4.430   3.143  19.258  0.00  0.00    +0.000 C 
BRANCH  12  17
ATOM     14  C   UNL     1       6.864   4.644  14.131  0.00  0.00    +0.000 C 
ATOM     15  N   UNL     1       6.546   4.643  15.537  0.00  0.00    +0.000 N 
ATOM     16  C   UNL     1       5.306   4.612  16.104  0.00  0.00    +0.000 A 
ATOM     17  C   UNL     1       5.496   4.583  17.475  0.00  0.00    +0.000 A 
ATOM     18  C   UNL     1       6.906   4.609  17.612  0.00  0.00    +0.000 A 
ATOM     19  N   UNL     1       7.541   4.642  16.440  0.00  0.00    +0.000 NA
ENDBRANCH  12  17
BRANCH  12  20
ATOM     20  O   UNL     1       4.756   5.479  19.582  0.00  0.00    +0.000 OA
ATOM     21  H   UNL     1       5.582   5.183  20.004  0.00  0.00    +0.000 HD
ENDBRANCH  12  20
ENDBRANCH   1  12
TORSDOF 5
ENDMDL
MODEL 6
REMARK VINA RESULT:      -6.2      4.033      5.037
REMARK  Name = 
REMARK  7 active torsions:
REMARK  status: ('A' for Active; 'I' for Inactive)
REMARK    1  A    between atoms: C_1  and  N_2
REMARK    2  A    between atoms: C_4  and  C_5
REMARK    3  A    between atoms: C_5  and  C_6
REMARK    4  A    between atoms: C_5  and  O_7
REMARK    5  A    between atoms: C_5  and  C_8
REMARK    6  A    between atoms: C_8  and  N_9
REMARK    7  A    between atoms: C_10  and  C_12
REMARK                            x       y       z     vdW  Elec       q    Type
REMARK                         _______ _______ _______ _____ _____    ______ ____
ROOT
ATOM      1  C   UNL     1       3.751   4.659  19.592  0.00  0.00    +0.000 C 
ENDROOT
BRANCH   1   2
ATOM      2  N   UNL     1       3.264   6.014  19.399  0.00  0.00    +0.000 N 
ATOM      3  C   UNL     1       2.128   6.505  20.007  0.00  0.00    +0.000 C 
ATOM      4  O   UNL     1       1.464   5.817  20.779  0.00  0.00    +0.000 OA
ATOM      5  H   UNL     1       3.736   6.603  18.724  0.00  0.00    +0.000 HD
BRANCH   3   6
ATOM      6  C   UNL     1       1.763   7.869  19.654  0.00  0.00    +0.000 A 
ATOM      7  C   UNL     1       1.978   8.498  18.439  0.00  0.00    +0.000 A 
ATOM      8  C   UNL     1       1.486   9.838  18.417  0.00  0.00    +0.000 A 
ATOM      9  C   UNL     1       0.917  10.171  19.620  0.00  0.00    +0.000 A 
ATOM     10 BR   UNL     1       0.149  11.842  19.976  0.00  0.00    +0.000 Br
ATOM     11  S   UNL     1       0.974   8.922  20.759  0.00  0.00    +0.000 S 
ENDBRANCH   3   6
ENDBRANCH   1   2
BRANCH   1  12
ATOM     12  C   UNL     1       4.695   4.129  18.475  0.00  0.00    +0.000 C 
ATOM     13  C   UNL     1       3.929   3.288  17.446  0.00  0.00    +0.000 C 
BRANCH  12  17
ATOM     14  C   UNL     1       7.826   7.978  17.548  0.00  0.00    +0.000 C 
ATOM     15  N   UNL     1       6.832   6.940  17.431  0.00  0.00    +0.000 N 
ATOM     16  C   UNL     1       6.482   6.021  18.375  0.00  0.00    +0.000 A 
ATOM     17  C   UNL     1       5.461   5.261  17.831  0.00  0.00    +0.000 A 
ATOM     18  C   UNL     1       5.289   5.817  16.539  0.00  0.00    +0.000 A 
ATOM     19  N   UNL     1       6.117   6.835  16.299  0.00  0.00    +0.000 NA
ENDBRANCH  12  17
BRANCH  12  20
ATOM     20  O   UNL     1       5.623   3.232  19.117  0.00  0.00    +0.000 OA
ATOM     21  H   UNL     1       6.186   2.866  18.412  0.00  0.00    +0.000 HD
ENDBRANCH  12  20
ENDBRANCH   1  12
TORSDOF 5
ENDMDL
MODEL 7
REMARK VINA RESULT:      -6.1      4.380      6.862
REMARK  Name = 
REMARK  7 active torsions:
REMARK  status: ('A' for Active; 'I' for Inactive)
REMARK    1  A    between atoms: C_1  and  N_2
REMARK    2  A    between atoms: C_4  and  C_5
REMARK    3  A    between atoms: C_5  and  C_6
REMARK    4  A    between atoms: C_5  and  O_7
REMARK    5  A    between atoms: C_5  and  C_8
REMARK    6  A    between atoms: C_8  and  N_9
REMARK    7  A    between atoms: C_10  and  C_12
REMARK                            x       y       z     vdW  Elec       q    Type
REMARK                         _______ _______ _______ _____ _____    ______ ____
ROOT
ATOM      1  C   UNL     1       3.859   2.692  18.713  0.00  0.00    +0.000 C 
ENDROOT
BRANCH   1   2
ATOM      2  N   UNL     1       4.806   3.790  18.798  0.00  0.00    +0.000 N 
ATOM      3  C   UNL     1       5.400   4.366  17.694  0.00  0.00    +0.000 C 
ATOM      4  O   UNL     1       5.137   3.989  16.554  0.00  0.00    +0.000 OA
ATOM      5  H   UNL     1       5.107   4.097  19.715  0.00  0.00    +0.000 HD
BRANCH   3   6
ATOM      6  C   UNL     1       6.364   5.419  17.974  0.00  0.00    +0.000 A 
ATOM      7  C   UNL     1       7.480   5.328  18.790  0.00  0.00    +0.000 A 
ATOM      8  C   UNL     1       8.227   6.543  18.839  0.00  0.00    +0.000 A 
ATOM      9  C   UNL     1       7.645   7.509  18.059  0.00  0.00    +0.000 A 
ATOM     10 BR   UNL     1       8.339   9.238  17.859  0.00  0.00    +0.000 Br
ATOM     11  S   UNL     1       6.233   6.989  17.288  0.00  0.00    +0.000 S 
ENDBRANCH   3   6
ENDBRANCH   1   2
BRANCH   1  12
ATOM     12  C   UNL     1       2.370   3.112  18.557  0.00  0.00    +0.000 C 
ATOM     13  C   UNL     1       1.422   2.021  19.071  0.00  0.00    +0.000 C 
BRANCH  12  17
ATOM     14  C   UNL     1       1.964   8.041  19.570  0.00  0.00    +0.000 C 
ATOM     15  N   UNL     1       1.935   6.601  19.652  0.00  0.00    +0.000 N 
ATOM     16  C   UNL     1       2.243   5.712  18.666  0.00  0.00    +0.000 A 
ATOM     17  C   UNL     1       2.112   4.448  19.215  0.00  0.00    +0.000 A 
ATOM     18  C   UNL     1       1.708   4.709  20.548  0.00  0.00    +0.000 A 
ATOM     19  N   UNL     1       1.603   6.012  20.813  0.00  0.00    +0.000 NA
ENDBRANCH  12  17
BRANCH  12  20
ATOM     20  O   UNL     1       2.124   3.226  17.142  0.00  0.00    +0.000 OA
ATOM     21  H   UNL     1       2.613   2.499  16.717  0.00  0.00    +0.000 HD
ENDBRANCH  12  20
ENDBRANCH   1  12
TORSDOF 5
ENDMDL
MODEL 8
REMARK VINA RESULT:      -6.1      4.625      5.817
REMARK  Name = 
REMARK  7 active torsions:
REMARK  status: ('A' for Active; 'I' for Inactive)
REMARK    1  A    between atoms: C_1  and  N_2
REMARK    2  A    between atoms: C_4  and  C_5
REMARK    3  A    between atoms: C_5  and  C_6
REMARK    4  A    between atoms: C_5  and  O_7
REMARK    5  A    between atoms: C_5  and  C_8
REMARK    6  A    between atoms: C_8  and  N_9
REMARK    7  A    between atoms: C_10  and  C_12
REMARK                            x       y       z     vdW  Elec       q    Type
REMARK                         _______ _______ _______ _____ _____    ______ ____
ROOT
ATOM      1  C   UNL     1       3.771   6.685  17.660  0.00  0.00    +0.000 C 
ENDROOT
BRANCH   1   2
ATOM      2  N   UNL     1       2.849   7.348  18.568  0.00  0.00    +0.000 N 
ATOM      3  C   UNL     1       2.150   8.490  18.237  0.00  0.00    +0.000 C 
ATOM      4  O   UNL     1       2.252   9.006  17.127  0.00  0.00    +0.000 OA
ATOM      5  H   UNL     1       2.776   7.001  19.517  0.00  0.00    +0.000 HD
BRANCH   3   6
ATOM      6  C   UNL     1       1.314   9.044  19.292  0.00  0.00    +0.000 A 
ATOM      7  C   UNL     1       0.396  10.074  19.168  0.00  0.00    +0.000 A 
ATOM      8  C   UNL     1      -0.270  10.368  20.395  0.00  0.00    +0.000 A 
ATOM      9  C   UNL     1       0.172   9.549  21.403  0.00  0.00    +0.000 A 
ATOM     10 BR   UNL     1      -0.474   9.624  23.160  0.00  0.00    +0.000 Br
ATOM     11  S   UNL     1       1.363   8.456  20.906  0.00  0.00    +0.000 S 
ENDBRANCH   3   6
ENDBRANCH   1   2
BRANCH   1  12
ATOM     12  C   UNL     1       4.237   5.270  18.107  0.00  0.00    +0.000 C 
ATOM     13  C   UNL     1       5.482   5.345  19.000  0.00  0.00    +0.000 C 
BRANCH  12  17
ATOM     14  C   UNL     1       1.310   2.751  21.358  0.00  0.00    +0.000 C 
ATOM     15  N   UNL     1       1.833   3.413  20.188  0.00  0.00    +0.000 N 
ATOM     16  C   UNL     1       3.015   4.083  20.077  0.00  0.00    +0.000 A 
ATOM     17  C   UNL     1       3.108   4.510  18.764  0.00  0.00    +0.000 A 
ATOM     18  C   UNL     1       1.906   4.040  18.179  0.00  0.00    +0.000 A 
ATOM     19  N   UNL     1       1.136   3.373  19.040  0.00  0.00    +0.000 NA
ENDBRANCH  12  17
BRANCH  12  20
ATOM     20  O   UNL     1       4.641   4.577  16.909  0.00  0.00    +0.000 OA
ATOM     21  H   UNL     1       4.612   3.626  17.117  0.00  0.00    +0.000 HD
ENDBRANCH  12  20
ENDBRANCH   1  12
TORSDOF 5
ENDMDL
MODEL 9
REMARK VINA RESULT:      -6.1      3.598      4.618
REMARK  Name = 
REMARK  7 active torsions:
REMARK  status: ('A' for Active; 'I' for Inactive)
REMARK    1  A    between atoms: C_1  and  N_2
REMARK    2  A    between atoms: C_4  and  C_5
REMARK    3  A    between atoms: C_5  and  C_6
REMARK    4  A    between atoms: C_5  and  O_7
REMARK    5  A    between atoms: C_5  and  C_8
REMARK    6  A    between atoms: C_8  and  N_9
REMARK    7  A    between atoms: C_10  and  C_12
REMARK                            x       y       z     vdW  Elec       q    Type
REMARK                         _______ _______ _______ _____ _____    ______ ____
ROOT
ATOM      1  C   UNL     1       4.264   4.277  17.100  0.00  0.00    +0.000 C 
ENDROOT
BRANCH   1   2
ATOM      2  N   UNL     1       3.538   5.445  17.570  0.00  0.00    +0.000 N 
ATOM      3  C   UNL     1       3.452   5.798  18.900  0.00  0.00    +0.000 C 
ATOM      4  O   UNL     1       4.016   5.146  19.776  0.00  0.00    +0.000 OA
ATOM      5  H   UNL     1       3.003   5.981  16.898  0.00  0.00    +0.000 HD
BRANCH   3   6
ATOM      6  C   UNL     1       2.637   6.969  19.190  0.00  0.00    +0.000 A 
ATOM      7  C   UNL     1       1.961   7.238  20.368  0.00  0.00    +0.000 A 
ATOM      8  C   UNL     1       1.263   8.483  20.331  0.00  0.00    +0.000 A 
ATOM      9  C   UNL     1       1.438   9.108  19.122  0.00  0.00    +0.000 A 
ATOM     10 BR   UNL     1       0.686  10.769  18.695  0.00  0.00    +0.000 Br
ATOM     11  S   UNL     1       2.404   8.230  18.046  0.00  0.00    +0.000 S 
ENDBRANCH   3   6
ENDBRANCH   1   2
BRANCH   1  12
ATOM     12  C   UNL     1       5.594   4.582  16.352  0.00  0.00    +0.000 C 
ATOM     13  C   UNL     1       5.332   5.101  14.932  0.00  0.00    +0.000 C 
BRANCH  12  17
ATOM     14  C   UNL     1       8.174   8.581  18.034  0.00  0.00    +0.000 C 
ATOM     15  N   UNL     1       7.586   7.273  17.884  0.00  0.00    +0.000 N 
ATOM     16  C   UNL     1       6.721   6.862  16.914  0.00  0.00    +0.000 A 
ATOM     17  C   UNL     1       6.463   5.523  17.153  0.00  0.00    +0.000 A 
ATOM     18  C   UNL     1       7.230   5.241  18.311  0.00  0.00    +0.000 A 
ATOM     19  N   UNL     1       7.912   6.300  18.751  0.00  0.00    +0.000 NA
ENDBRANCH  12  17
BRANCH  12  20
ATOM     20  O   UNL     1       6.274   3.321  16.201  0.00  0.00    +0.000 OA
ATOM     21  H   UNL     1       6.632   3.306  15.295  0.00  0.00    +0.000 HD
ENDBRANCH  12  20
ENDBRANCH   1  12
TORSDOF 5
ENDMDL
