MODEL 1
REMARK VINA RESULT:      -8.0      0.000      0.000
REMARK  Name = 
REMARK  6 active torsions:
REMARK  status: ('A' for Active; 'I' for Inactive)
REMARK    1  A    between atoms: C_1  and  C_2
REMARK    2  A    between atoms: C_2  and  C_3
REMARK    3  A    between atoms: C_2  and  N_4
REMARK    4  A    between atoms: C_10  and  N_11
REMARK    5  A    between atoms: C_12  and  C_14
REMARK    6  A    between atoms: C_24  and  C_25
REMARK                            x       y       z     vdW  Elec       q    Type
REMARK                         _______ _______ _______ _____ _____    ______ ____
ROOT
ATOM      1  N   UNL     1      -2.678  13.565  22.890  0.00  0.00    +0.000 NA
ATOM      2  C   UNL     1      -2.577  14.181  21.537  0.00  0.00    +0.000 C 
ATOM      3  C   UNL     1      -2.396  13.177  20.372  0.00  0.00    +0.000 C 
ATOM      4  C   UNL     1      -1.482  12.038  20.750  0.00  0.00    +0.000 A 
ATOM      5  C   UNL     1      -1.047  11.903  22.054  0.00  0.00    +0.000 A 
ATOM      6  S   UNL     1      -0.140  10.490  22.284  0.00  0.00    +0.000 S 
ATOM      7  C   UNL     1      -0.222  10.097  20.622  0.00  0.00    +0.000 A 
ATOM      8  C   UNL     1      -1.043  10.952  19.893  0.00  0.00    +0.000 A 
ATOM      9  C   UNL     1      -1.388  12.866  23.157  0.00  0.00    +0.000 C 
ENDROOT
BRANCH   8  10
ATOM     10  C   UNL     1      -1.545  10.796  18.523  0.00  0.00    +0.000 C 
ATOM     11  N   UNL     1      -1.034  11.579  17.539  0.00  0.00    +0.000 N 
ATOM     12  O   UNL     1      -2.445  10.009  18.233  0.00  0.00    +0.000 OA
ATOM     13  H   UNL     1      -0.656  12.482  17.814  0.00  0.00    +0.000 HD
ATOM     14  H   UNL     1      -1.547  11.564  16.670  0.00  0.00    +0.000 HD
ENDBRANCH   8  10
BRANCH   7  15
ATOM     15  N   UNL     1       0.520   8.964  20.319  0.00  0.00    +0.000 N 
ATOM     16  C   UNL     1       1.451   9.032  19.300  0.00  0.00    +0.000 C 
ATOM     17  O   UNL     1       1.676  10.030  18.616  0.00  0.00    +0.000 OA
ATOM     18  H   UNL     1       0.768   8.375  21.107  0.00  0.00    +0.000 HD
BRANCH  16  19
ATOM     19  C   UNL     1       2.276   7.829  19.042  0.00  0.00    +0.000 A 
ATOM     20  C   UNL     1       2.201   6.672  19.819  0.00  0.00    +0.000 A 
ATOM     21  C   UNL     1       2.948   5.547  19.447  0.00  0.00    +0.000 A 
ATOM     22  C   UNL     1       3.779   5.569  18.308  0.00  0.00    +0.000 A 
ATOM     23  C   UNL     1       4.557   4.464  17.920  0.00  0.00    +0.000 A 
ATOM     24  C   UNL     1       5.371   4.523  16.785  0.00  0.00    +0.000 A 
ATOM     25  C   UNL     1       5.406   5.677  16.008  0.00  0.00    +0.000 A 
ATOM     26  C   UNL     1       4.634   6.779  16.371  0.00  0.00    +0.000 A 
ATOM     27  C   UNL     1       3.832   6.739  17.519  0.00  0.00    +0.000 A 
ATOM     28  C   UNL     1       3.076   7.852  17.893  0.00  0.00    +0.000 A 
ENDBRANCH  16  19
ENDBRANCH   7  15
BRANCH   1  30
ATOM     29  C   UNL     1      -4.144  12.361  24.522  0.00  0.00    +0.000 C 
ATOM     30  C   UNL     1      -3.859  12.671  23.043  0.00  0.00    +0.000 C 
ATOM     31  C   UNL     1      -5.145  13.271  22.448  0.00  0.00    +0.000 C 
ENDBRANCH   1  30
TORSDOF 4
ENDMDL
MODEL 2
REMARK VINA RESULT:      -7.9      0.936      1.794
REMARK  Name = 
REMARK  6 active torsions:
REMARK  status: ('A' for Active; 'I' for Inactive)
REMARK    1  A    between atoms: C_1  and  C_2
REMARK    2  A    between atoms: C_2  and  C_3
REMARK    3  A    between atoms: C_2  and  N_4
REMARK    4  A    between atoms: C_10  and  N_11
REMARK    5  A    between atoms: C_12  and  C_14
REMARK    6  A    between atoms: C_24  and  C_25
REMARK                            x       y       z     vdW  Elec       q    Type
REMARK                         _______ _______ _______ _____ _____    ______ ____
ROOT
ATOM      1  N   UNL     1      -2.901  13.960  23.156  0.00  0.00    +0.000 NA
ATOM      2  C   UNL     1      -2.815  14.689  21.859  0.00  0.00    +0.000 C 
ATOM      3  C   UNL     1      -2.689  13.787  20.607  0.00  0.00    +0.000 C 
ATOM      4  C   UNL     1      -1.799  12.596  20.861  0.00  0.00    +0.000 A 
ATOM      5  C   UNL     1      -1.337  12.336  22.136  0.00  0.00    +0.000 A 
ATOM      6  S   UNL     1      -0.464  10.886  22.220  0.00  0.00    +0.000 S 
ATOM      7  C   UNL     1      -0.596  10.642  20.532  0.00  0.00    +0.000 A 
ATOM      8  C   UNL     1      -1.410  11.578  19.902  0.00  0.00    +0.000 A 
ATOM      9  C   UNL     1      -1.625  13.208  23.328  0.00  0.00    +0.000 C 
ENDROOT
BRANCH   8  10
ATOM     10  C   UNL     1      -1.948  11.556  18.537  0.00  0.00    +0.000 C 
ATOM     11  N   UNL     1      -1.439  12.407  17.612  0.00  0.00    +0.000 N 
ATOM     12  O   UNL     1      -2.877  10.821  18.203  0.00  0.00    +0.000 OA
ATOM     13  H   UNL     1      -1.029  13.273  17.954  0.00  0.00    +0.000 HD
ATOM     14  H   UNL     1      -1.972  12.482  16.758  0.00  0.00    +0.000 HD
ENDBRANCH   8  10
BRANCH   7  15
ATOM     15  N   UNL     1       0.107   9.521  20.114  0.00  0.00    +0.000 N 
ATOM     16  C   UNL     1       1.139   9.684  19.210  0.00  0.00    +0.000 C 
ATOM     17  O   UNL     1       1.491  10.760  18.727  0.00  0.00    +0.000 OA
ATOM     18  H   UNL     1       0.238   8.796  20.811  0.00  0.00    +0.000 HD
BRANCH  16  19
ATOM     19  C   UNL     1       1.917   8.481  18.831  0.00  0.00    +0.000 A 
ATOM     20  C   UNL     1       2.815   8.459  17.762  0.00  0.00    +0.000 A 
ATOM     21  C   UNL     1       3.579   7.307  17.534  0.00  0.00    +0.000 A 
ATOM     22  C   UNL     1       3.450   6.172  18.360  0.00  0.00    +0.000 A 
ATOM     23  C   UNL     1       4.187   4.994  18.143  0.00  0.00    +0.000 A 
ATOM     24  C   UNL     1       4.031   3.887  18.983  0.00  0.00    +0.000 A 
ATOM     25  C   UNL     1       3.153   3.944  20.061  0.00  0.00    +0.000 A 
ATOM     26  C   UNL     1       2.421   5.105  20.296  0.00  0.00    +0.000 A 
ATOM     27  C   UNL     1       2.552   6.213  19.449  0.00  0.00    +0.000 A 
ATOM     28  C   UNL     1       1.802   7.370  19.674  0.00  0.00    +0.000 A 
ENDBRANCH  16  19
ENDBRANCH   7  15
BRANCH   1  30
ATOM     29  C   UNL     1      -4.274  12.533  24.686  0.00  0.00    +0.000 C 
ATOM     30  C   UNL     1      -4.102  13.087  23.261  0.00  0.00    +0.000 C 
ATOM     31  C   UNL     1      -5.407  13.816  22.897  0.00  0.00    +0.000 C 
ENDBRANCH   1  30
TORSDOF 4
ENDMDL
MODEL 3
REMARK VINA RESULT:      -7.5      1.580      2.232
REMARK  Name = 
REMARK  6 active torsions:
REMARK  status: ('A' for Active; 'I' for Inactive)
REMARK    1  A    between atoms: C_1  and  C_2
REMARK    2  A    between atoms: C_2  and  C_3
REMARK    3  A    between atoms: C_2  and  N_4
REMARK    4  A    between atoms: C_10  and  N_11
REMARK    5  A    between atoms: C_12  and  C_14
REMARK    6  A    between atoms: C_24  and  C_25
REMARK                            x       y       z     vdW  Elec       q    Type
REMARK                         _______ _______ _______ _____ _____    ______ ____
ROOT
ATOM      1  N   UNL     1      -0.993  14.197  21.624  0.00  0.00    +0.000 NA
ATOM      2  C   UNL     1      -1.181  14.618  20.207  0.00  0.00    +0.000 C 
ATOM      3  C   UNL     1      -1.392  13.459  19.203  0.00  0.00    +0.000 C 
ATOM      4  C   UNL     1      -0.520  12.271  19.525  0.00  0.00    +0.000 A 
ATOM      5  C   UNL     1       0.216  12.249  20.693  0.00  0.00    +0.000 A 
ATOM      6  S   UNL     1       1.020  10.774  20.917  0.00  0.00    +0.000 S 
ATOM      7  C   UNL     1       0.485  10.186  19.403  0.00  0.00    +0.000 A 
ATOM      8  C   UNL     1      -0.413  11.038  18.767  0.00  0.00    +0.000 A 
ATOM      9  C   UNL     1       0.254  13.381  21.683  0.00  0.00    +0.000 C 
ENDROOT
BRANCH   8  10
ATOM     10  C   UNL     1      -1.256  10.774  17.596  0.00  0.00    +0.000 C 
ATOM     11  N   UNL     1      -1.852  11.815  16.962  0.00  0.00    +0.000 N 
ATOM     12  O   UNL     1      -1.481   9.636  17.185  0.00  0.00    +0.000 OA
ATOM     13  H   UNL     1      -2.043  12.647  17.515  0.00  0.00    +0.000 HD
ATOM     14  H   UNL     1      -2.565  11.560  16.294  0.00  0.00    +0.000 HD
ENDBRANCH   8  10
BRANCH   7  15
ATOM     15  N   UNL     1       1.021   8.940  19.112  0.00  0.00    +0.000 N 
ATOM     16  C   UNL     1       1.978   8.843  18.120  0.00  0.00    +0.000 C 
ATOM     17  O   UNL     1       2.398   9.786  17.452  0.00  0.00    +0.000 OA
ATOM     18  H   UNL     1       1.135   8.313  19.902  0.00  0.00    +0.000 HD
BRANCH  16  19
ATOM     19  C   UNL     1       2.582   7.512  17.876  0.00  0.00    +0.000 A 
ATOM     20  C   UNL     1       3.915   7.337  17.499  0.00  0.00    +0.000 A 
ATOM     21  C   UNL     1       4.429   6.039  17.382  0.00  0.00    +0.000 A 
ATOM     22  C   UNL     1       3.620   4.911  17.631  0.00  0.00    +0.000 A 
ATOM     23  C   UNL     1       4.101   3.596  17.501  0.00  0.00    +0.000 A 
ATOM     24  C   UNL     1       3.269   2.501  17.754  0.00  0.00    +0.000 A 
ATOM     25  C   UNL     1       1.953   2.701  18.159  0.00  0.00    +0.000 A 
ATOM     26  C   UNL     1       1.462   3.996  18.301  0.00  0.00    +0.000 A 
ATOM     27  C   UNL     1       2.279   5.101  18.029  0.00  0.00    +0.000 A 
ATOM     28  C   UNL     1       1.779   6.399  18.152  0.00  0.00    +0.000 A 
ENDBRANCH  16  19
ENDBRANCH   7  15
BRANCH   1  30
ATOM     29  C   UNL     1      -1.789  12.643  23.418  0.00  0.00    +0.000 C 
ATOM     30  C   UNL     1      -2.173  13.486  22.189  0.00  0.00    +0.000 C 
ATOM     31  C   UNL     1      -3.295  14.443  22.628  0.00  0.00    +0.000 C 
ENDBRANCH   1  30
TORSDOF 4
ENDMDL
MODEL 4
REMARK VINA RESULT:      -7.4      1.390      2.063
REMARK  Name = 
REMARK  6 active torsions:
REMARK  status: ('A' for Active; 'I' for Inactive)
REMARK    1  A    between atoms: C_1  and  C_2
REMARK    2  A    between atoms: C_2  and  C_3
REMARK    3  A    between atoms: C_2  and  N_4
REMARK    4  A    between atoms: C_10  and  N_11
REMARK    5  A    between atoms: C_12  and  C_14
REMARK    6  A    between atoms: C_24  and  C_25
REMARK                            x       y       z     vdW  Elec       q    Type
REMARK                         _______ _______ _______ _____ _____    ______ ____
ROOT
ATOM      1  N   UNL     1      -2.199  13.374  21.770  0.00  0.00    +0.000 NA
ATOM      2  C   UNL     1      -3.028  13.591  20.551  0.00  0.00    +0.000 C 
ATOM      3  C   UNL     1      -2.999  12.433  19.524  0.00  0.00    +0.000 C 
ATOM      4  C   UNL     1      -1.622  11.829  19.399  0.00  0.00    +0.000 A 
ATOM      5  C   UNL     1      -0.616  12.215  20.262  0.00  0.00    +0.000 A 
ATOM      6  S   UNL     1       0.806  11.322  20.030  0.00  0.00    +0.000 S 
ATOM      7  C   UNL     1       0.132  10.486  18.699  0.00  0.00    +0.000 A 
ATOM      8  C   UNL     1      -1.214  10.770  18.493  0.00  0.00    +0.000 A 
ATOM      9  C   UNL     1      -0.779  13.265  21.327  0.00  0.00    +0.000 C 
ENDROOT
BRANCH   8  10
ATOM     10  C   UNL     1      -2.175  10.083  17.624  0.00  0.00    +0.000 C 
ATOM     11  N   UNL     1      -2.017  10.153  16.278  0.00  0.00    +0.000 N 
ATOM     12  O   UNL     1      -3.150   9.475  18.065  0.00  0.00    +0.000 OA
ATOM     13  H   UNL     1      -1.531  10.966  15.909  0.00  0.00    +0.000 HD
ATOM     14  H   UNL     1      -2.805   9.830  15.736  0.00  0.00    +0.000 HD
ENDBRANCH   8  10
BRANCH   7  15
ATOM     15  N   UNL     1       1.055   9.642  18.096  0.00  0.00    +0.000 N 
ATOM     16  C   UNL     1       1.594   8.608  18.838  0.00  0.00    +0.000 C 
ATOM     17  O   UNL     1       1.326   8.370  20.015  0.00  0.00    +0.000 OA
ATOM     18  H   UNL     1       0.900   9.449  17.113  0.00  0.00    +0.000 HD
BRANCH  16  19
ATOM     19  C   UNL     1       2.525   7.683  18.151  0.00  0.00    +0.000 A 
ATOM     20  C   UNL     1       3.633   8.118  17.421  0.00  0.00    +0.000 A 
ATOM     21  C   UNL     1       4.515   7.171  16.884  0.00  0.00    +0.000 A 
ATOM     22  C   UNL     1       4.295   5.790  17.062  0.00  0.00    +0.000 A 
ATOM     23  C   UNL     1       5.150   4.815  16.518  0.00  0.00    +0.000 A 
ATOM     24  C   UNL     1       4.900   3.453  16.714  0.00  0.00    +0.000 A 
ATOM     25  C   UNL     1       3.807   3.044  17.470  0.00  0.00    +0.000 A 
ATOM     26  C   UNL     1       2.954   3.995  18.025  0.00  0.00    +0.000 A 
ATOM     27  C   UNL     1       3.182   5.362  17.818  0.00  0.00    +0.000 A 
ATOM     28  C   UNL     1       2.314   6.314  18.357  0.00  0.00    +0.000 A 
ENDBRANCH  16  19
ENDBRANCH   7  15
BRANCH   1  30
ATOM     29  C   UNL     1      -1.448  11.503  23.253  0.00  0.00    +0.000 C 
ATOM     30  C   UNL     1      -2.640  12.205  22.581  0.00  0.00    +0.000 C 
ATOM     31  C   UNL     1      -3.628  12.590  23.696  0.00  0.00    +0.000 C 
ENDBRANCH   1  30
TORSDOF 4
ENDMDL
MODEL 5
REMARK VINA RESULT:      -7.3      1.291      1.409
REMARK  Name = 
REMARK  6 active torsions:
REMARK  status: ('A' for Active; 'I' for Inactive)
REMARK    1  A    between atoms: C_1  and  C_2
REMARK    2  A    between atoms: C_2  and  C_3
REMARK    3  A    between atoms: C_2  and  N_4
REMARK    4  A    between atoms: C_10  and  N_11
REMARK    5  A    between atoms: C_12  and  C_14
REMARK    6  A    between atoms: C_24  and  C_25
REMARK                            x       y       z     vdW  Elec       q    Type
REMARK                         _______ _______ _______ _____ _____    ______ ____
ROOT
ATOM      1  N   UNL     1      -1.180  14.256  21.545  0.00  0.00    +0.000 NA
ATOM      2  C   UNL     1      -1.623  14.470  20.138  0.00  0.00    +0.000 C 
ATOM      3  C   UNL     1      -1.852  13.176  19.320  0.00  0.00    +0.000 C 
ATOM      4  C   UNL     1      -0.815  12.125  19.629  0.00  0.00    +0.000 A 
ATOM      5  C   UNL     1       0.085  12.323  20.657  0.00  0.00    +0.000 A 
ATOM      6  S   UNL     1       1.072  10.970  20.915  0.00  0.00    +0.000 S 
ATOM      7  C   UNL     1       0.385  10.143  19.585  0.00  0.00    +0.000 A 
ATOM      8  C   UNL     1      -0.686  10.819  19.009  0.00  0.00    +0.000 A 
ATOM      9  C   UNL     1       0.145  13.572  21.493  0.00  0.00    +0.000 C 
ENDROOT
BRANCH   8  10
ATOM     10  C   UNL     1      -1.660  10.329  18.028  0.00  0.00    +0.000 C 
ATOM     11  N   UNL     1      -1.552  10.724  16.734  0.00  0.00    +0.000 N 
ATOM     12  O   UNL     1      -2.604   9.602  18.338  0.00  0.00    +0.000 OA
ATOM     13  H   UNL     1      -1.099  11.618  16.558  0.00  0.00    +0.000 HD
ATOM     14  H   UNL     1      -2.351  10.515  16.154  0.00  0.00    +0.000 HD
ENDBRANCH   8  10
BRANCH   7  15
ATOM     15  N   UNL     1       1.007   8.924  19.355  0.00  0.00    +0.000 N 
ATOM     16  C   UNL     1       1.911   8.825  18.314  0.00  0.00    +0.000 C 
ATOM     17  O   UNL     1       2.212   9.742  17.552  0.00  0.00    +0.000 OA
ATOM     18  H   UNL     1       1.218   8.373  20.180  0.00  0.00    +0.000 HD
BRANCH  16  19
ATOM     19  C   UNL     1       2.609   7.531  18.132  0.00  0.00    +0.000 A 
ATOM     20  C   UNL     1       2.219   6.356  18.778  0.00  0.00    +0.000 A 
ATOM     21  C   UNL     1       2.877   5.157  18.475  0.00  0.00    +0.000 A 
ATOM     22  C   UNL     1       3.929   5.121  17.536  0.00  0.00    +0.000 A 
ATOM     23  C   UNL     1       4.622   3.937  17.226  0.00  0.00    +0.000 A 
ATOM     24  C   UNL     1       5.662   3.940  16.291  0.00  0.00    +0.000 A 
ATOM     25  C   UNL     1       6.012   5.118  15.638  0.00  0.00    +0.000 A 
ATOM     26  C   UNL     1       5.331   6.298  15.925  0.00  0.00    +0.000 A 
ATOM     27  C   UNL     1       4.302   6.312  16.876  0.00  0.00    +0.000 A 
ATOM     28  C   UNL     1       3.633   7.501  17.179  0.00  0.00    +0.000 A 
ENDBRANCH  16  19
ENDBRANCH   7  15
BRANCH   1  30
ATOM     29  C   UNL     1      -1.724  13.411  23.837  0.00  0.00    +0.000 C 
ATOM     30  C   UNL     1      -2.176  13.519  22.371  0.00  0.00    +0.000 C 
ATOM     31  C   UNL     1      -3.563  14.184  22.371  0.00  0.00    +0.000 C 
ENDBRANCH   1  30
TORSDOF 4
ENDMDL
MODEL 6
REMARK VINA RESULT:      -7.3      2.827      3.759
REMARK  Name = 
REMARK  6 active torsions:
REMARK  status: ('A' for Active; 'I' for Inactive)
REMARK    1  A    between atoms: C_1  and  C_2
REMARK    2  A    between atoms: C_2  and  C_3
REMARK    3  A    between atoms: C_2  and  N_4
REMARK    4  A    between atoms: C_10  and  N_11
REMARK    5  A    between atoms: C_12  and  C_14
REMARK    6  A    between atoms: C_24  and  C_25
REMARK                            x       y       z     vdW  Elec       q    Type
REMARK                         _______ _______ _______ _____ _____    ______ ____
ROOT
ATOM      1  N   UNL     1       0.946  15.238  19.687  0.00  0.00    +0.000 NA
ATOM      2  C   UNL     1      -0.459  14.968  19.272  0.00  0.00    +0.000 C 
ATOM      3  C   UNL     1      -0.870  13.475  19.283  0.00  0.00    +0.000 C 
ATOM      4  C   UNL     1       0.243  12.582  18.794  0.00  0.00    +0.000 A 
ATOM      5  C   UNL     1       1.497  13.109  18.552  0.00  0.00    +0.000 A 
ATOM      6  S   UNL     1       2.624  11.915  18.136  0.00  0.00    +0.000 S 
ATOM      7  C   UNL     1       1.428  10.693  18.165  0.00  0.00    +0.000 A 
ATOM      8  C   UNL     1       0.191  11.143  18.616  0.00  0.00    +0.000 A 
ATOM      9  C   UNL     1       1.838  14.567  18.698  0.00  0.00    +0.000 C 
ENDROOT
BRANCH   8  10
ATOM     10  C   UNL     1      -0.986  10.357  19.002  0.00  0.00    +0.000 C 
ATOM     11  N   UNL     1      -1.926  10.072  18.065  0.00  0.00    +0.000 N 
ATOM     12  O   UNL     1      -1.181   9.979  20.157  0.00  0.00    +0.000 OA
ATOM     13  H   UNL     1      -2.011  10.715  17.282  0.00  0.00    +0.000 HD
ATOM     14  H   UNL     1      -2.794   9.703  18.427  0.00  0.00    +0.000 HD
ENDBRANCH   8  10
BRANCH   7  15
ATOM     15  N   UNL     1       1.934   9.463  17.769  0.00  0.00    +0.000 N 
ATOM     16  C   UNL     1       2.096   8.473  18.719  0.00  0.00    +0.000 C 
ATOM     17  O   UNL     1       1.833   8.594  19.915  0.00  0.00    +0.000 OA
ATOM     18  H   UNL     1       1.658   9.149  16.844  0.00  0.00    +0.000 HD
BRANCH  16  19
ATOM     19  C   UNL     1       2.574   7.149  18.257  0.00  0.00    +0.000 A 
ATOM     20  C   UNL     1       3.768   6.971  17.555  0.00  0.00    +0.000 A 
ATOM     21  C   UNL     1       4.191   5.674  17.241  0.00  0.00    +0.000 A 
ATOM     22  C   UNL     1       3.428   4.548  17.614  0.00  0.00    +0.000 A 
ATOM     23  C   UNL     1       3.815   3.235  17.295  0.00  0.00    +0.000 A 
ATOM     24  C   UNL     1       3.031   2.143  17.681  0.00  0.00    +0.000 A 
ATOM     25  C   UNL     1       1.862   2.343  18.407  0.00  0.00    +0.000 A 
ATOM     26  C   UNL     1       1.467   3.636  18.741  0.00  0.00    +0.000 A 
ATOM     27  C   UNL     1       2.232   4.740  18.340  0.00  0.00    +0.000 A 
ATOM     28  C   UNL     1       1.824   6.037  18.658  0.00  0.00    +0.000 A 
ENDBRANCH  16  19
ENDBRANCH   7  15
BRANCH   1  30
ATOM     29  C   UNL     1       2.706  15.082  21.460  0.00  0.00    +0.000 C 
ATOM     30  C   UNL     1       1.234  14.830  21.091  0.00  0.00    +0.000 C 
ATOM     31  C   UNL     1       0.372  15.581  22.120  0.00  0.00    +0.000 C 
ENDBRANCH   1  30
TORSDOF 4
ENDMDL
MODEL 7
REMARK VINA RESULT:      -7.2      1.959      3.193
REMARK  Name = 
REMARK  6 active torsions:
REMARK  status: ('A' for Active; 'I' for Inactive)
REMARK    1  A    between atoms: C_1  and  C_2
REMARK    2  A    between atoms: C_2  and  C_3
REMARK    3  A    between atoms: C_2  and  N_4
REMARK    4  A    between atoms: C_10  and  N_11
REMARK    5  A    between atoms: C_12  and  C_14
REMARK    6  A    between atoms: C_24  and  C_25
REMARK                            x       y       z     vdW  Elec       q    Type
REMARK                         _______ _______ _______ _____ _____    ______ ____
ROOT
ATOM      1  N   UNL     1      -1.746  13.715  20.381  0.00  0.00    +0.000 NA
ATOM      2  C   UNL     1      -2.129  13.152  21.706  0.00  0.00    +0.000 C 
ATOM      3  C   UNL     1      -1.195  12.038  22.239  0.00  0.00    +0.000 C 
ATOM      4  C   UNL     1      -0.732  11.118  21.137  0.00  0.00    +0.000 A 
ATOM      5  C   UNL     1      -1.021  11.416  19.820  0.00  0.00    +0.000 A 
ATOM      6  S   UNL     1      -0.300  10.325  18.742  0.00  0.00    +0.000 S 
ATOM      7  C   UNL     1       0.315   9.375  20.025  0.00  0.00    +0.000 A 
ATOM      8  C   UNL     1       0.099   9.937  21.279  0.00  0.00    +0.000 A 
ATOM      9  C   UNL     1      -1.832  12.606  19.386  0.00  0.00    +0.000 C 
ENDROOT
BRANCH   8  10
ATOM     10  C   UNL     1       0.679   9.550  22.570  0.00  0.00    +0.000 C 
ATOM     11  N   UNL     1      -0.147   9.303  23.618  0.00  0.00    +0.000 N 
ATOM     12  O   UNL     1       1.893   9.480  22.756  0.00  0.00    +0.000 OA
ATOM     13  H   UNL     1      -1.051   9.769  23.617  0.00  0.00    +0.000 HD
ATOM     14  H   UNL     1       0.309   9.234  24.517  0.00  0.00    +0.000 HD
ENDBRANCH   8  10
BRANCH   7  15
ATOM     15  N   UNL     1       0.955   8.233  19.564  0.00  0.00    +0.000 N 
ATOM     16  C   UNL     1       1.970   8.369  18.636  0.00  0.00    +0.000 C 
ATOM     17  O   UNL     1       2.358   9.438  18.167  0.00  0.00    +0.000 OA
ATOM     18  H   UNL     1       1.070   7.487  20.241  0.00  0.00    +0.000 HD
BRANCH  16  19
ATOM     19  C   UNL     1       2.681   7.141  18.211  0.00  0.00    +0.000 A 
ATOM     20  C   UNL     1       2.156   5.858  18.381  0.00  0.00    +0.000 A 
ATOM     21  C   UNL     1       2.852   4.759  17.863  0.00  0.00    +0.000 A 
ATOM     22  C   UNL     1       4.076   4.927  17.183  0.00  0.00    +0.000 A 
ATOM     23  C   UNL     1       4.810   3.842  16.671  0.00  0.00    +0.000 A 
ATOM     24  C   UNL     1       6.021   4.047  16.004  0.00  0.00    +0.000 A 
ATOM     25  C   UNL     1       6.509   5.337  15.820  0.00  0.00    +0.000 A 
ATOM     26  C   UNL     1       5.792   6.425  16.312  0.00  0.00    +0.000 A 
ATOM     27  C   UNL     1       4.588   6.231  17.002  0.00  0.00    +0.000 A 
ATOM     28  C   UNL     1       3.881   7.321  17.513  0.00  0.00    +0.000 A 
ENDBRANCH  16  19
ENDBRANCH   7  15
BRANCH   1  30
ATOM     29  C   UNL     1      -0.025  14.875  18.982  0.00  0.00    +0.000 C 
ATOM     30  C   UNL     1      -0.414  14.380  20.386  0.00  0.00    +0.000 C 
ATOM     31  C   UNL     1      -0.357  15.596  21.328  0.00  0.00    +0.000 C 
ENDBRANCH   1  30
TORSDOF 4
ENDMDL
MODEL 8
REMARK VINA RESULT:      -7.2      1.409      1.908
REMARK  Name = 
REMARK  6 active torsions:
REMARK  status: ('A' for Active; 'I' for Inactive)
REMARK    1  A    between atoms: C_1  and  C_2
REMARK    2  A    between atoms: C_2  and  C_3
REMARK    3  A    between atoms: C_2  and  N_4
REMARK    4  A    between atoms: C_10  and  N_11
REMARK    5  A    between atoms: C_12  and  C_14
REMARK    6  A    between atoms: C_24  and  C_25
REMARK                            x       y       z     vdW  Elec       q    Type
REMARK                         _______ _______ _______ _____ _____    ______ ____
ROOT
ATOM      1  N   UNL     1      -2.618  13.817  22.674  0.00  0.00    +0.000 NA
ATOM      2  C   UNL     1      -1.483  14.758  22.458  0.00  0.00    +0.000 C 
ATOM      3  C   UNL     1      -0.423  14.282  21.435  0.00  0.00    +0.000 C 
ATOM      4  C   UNL     1      -0.160  12.800  21.548  0.00  0.00    +0.000 A 
ATOM      5  C   UNL     1      -0.944  12.019  22.375  0.00  0.00    +0.000 A 
ATOM      6  S   UNL     1      -0.562  10.373  22.253  0.00  0.00    +0.000 S 
ATOM      7  C   UNL     1       0.729  10.692  21.178  0.00  0.00    +0.000 A 
ATOM      8  C   UNL     1       0.808  12.027  20.793  0.00  0.00    +0.000 A 
ATOM      9  C   UNL     1      -2.050  12.559  23.240  0.00  0.00    +0.000 C 
ENDROOT
BRANCH   8  10
ATOM     10  C   UNL     1       1.611  12.627  19.721  0.00  0.00    +0.000 C 
ATOM     11  N   UNL     1       1.218  12.466  18.433  0.00  0.00    +0.000 N 
ATOM     12  O   UNL     1       2.655  13.240  19.940  0.00  0.00    +0.000 OA
ATOM     13  H   UNL     1       0.665  11.640  18.215  0.00  0.00    +0.000 HD
ATOM     14  H   UNL     1       1.903  12.729  17.739  0.00  0.00    +0.000 HD
ENDBRANCH   8  10
BRANCH   7  15
ATOM     15  N   UNL     1       1.435   9.541  20.860  0.00  0.00    +0.000 N 
ATOM     16  C   UNL     1       1.309   9.015  19.588  0.00  0.00    +0.000 C 
ATOM     17  O   UNL     1       0.602   9.485  18.698  0.00  0.00    +0.000 OA
ATOM     18  H   UNL     1       2.350   9.451  21.288  0.00  0.00    +0.000 HD
BRANCH  16  19
ATOM     19  C   UNL     1       2.124   7.824  19.253  0.00  0.00    +0.000 A 
ATOM     20  C   UNL     1       2.048   6.624  19.962  0.00  0.00    +0.000 A 
ATOM     21  C   UNL     1       2.785   5.518  19.518  0.00  0.00    +0.000 A 
ATOM     22  C   UNL     1       3.606   5.602  18.374  0.00  0.00    +0.000 A 
ATOM     23  C   UNL     1       4.374   4.517  17.916  0.00  0.00    +0.000 A 
ATOM     24  C   UNL     1       5.178   4.638  16.779  0.00  0.00    +0.000 A 
ATOM     25  C   UNL     1       5.213   5.835  16.071  0.00  0.00    +0.000 A 
ATOM     26  C   UNL     1       4.452   6.918  16.504  0.00  0.00    +0.000 A 
ATOM     27  C   UNL     1       3.660   6.816  17.655  0.00  0.00    +0.000 A 
ATOM     28  C   UNL     1       2.914   7.910  18.101  0.00  0.00    +0.000 A 
ENDBRANCH  16  19
ENDBRANCH   7  15
BRANCH   1  30
ATOM     29  C   UNL     1      -4.616  12.643  21.729  0.00  0.00    +0.000 C 
ATOM     30  C   UNL     1      -3.430  13.581  21.448  0.00  0.00    +0.000 C 
ATOM     31  C   UNL     1      -4.007  14.878  20.854  0.00  0.00    +0.000 C 
ENDBRANCH   1  30
TORSDOF 4
ENDMDL
MODEL 9
REMARK VINA RESULT:      -7.2      2.672      3.273
REMARK  Name = 
REMARK  6 active torsions:
REMARK  status: ('A' for Active; 'I' for Inactive)
REMARK    1  A    between atoms: C_1  and  C_2
REMARK    2  A    between atoms: C_2  and  C_3
REMARK    3  A    between atoms: C_2  and  N_4
REMARK    4  A    between atoms: C_10  and  N_11
REMARK    5  A    between atoms: C_12  and  C_14
REMARK    6  A    between atoms: C_24  and  C_25
REMARK                            x       y       z     vdW  Elec       q    Type
REMARK                         _______ _______ _______ _____ _____    ______ ____
ROOT
ATOM      1  N   UNL     1       0.697  15.211  19.811  0.00  0.00    +0.000 NA
ATOM      2  C   UNL     1      -0.699  14.836  19.447  0.00  0.00    +0.000 C 
ATOM      3  C   UNL     1      -0.998  13.317  19.476  0.00  0.00    +0.000 C 
ATOM      4  C   UNL     1       0.160  12.507  18.948  0.00  0.00    +0.000 A 
ATOM      5  C   UNL     1       1.361  13.124  18.658  0.00  0.00    +0.000 A 
ATOM      6  S   UNL     1       2.558  12.014  18.203  0.00  0.00    +0.000 S 
ATOM      7  C   UNL     1       1.458  10.707  18.278  0.00  0.00    +0.000 A 
ATOM      8  C   UNL     1       0.208  11.067  18.773  0.00  0.00    +0.000 A 
ATOM      9  C   UNL     1       1.599  14.603  18.790  0.00  0.00    +0.000 C 
ENDROOT
BRANCH   8  10
ATOM     10  C   UNL     1      -0.894  10.199  19.203  0.00  0.00    +0.000 C 
ATOM     11  N   UNL     1      -0.854   9.644  20.440  0.00  0.00    +0.000 N 
ATOM     12  O   UNL     1      -1.840   9.916  18.468  0.00  0.00    +0.000 OA
ATOM     13  H   UNL     1       0.063   9.498  20.855  0.00  0.00    +0.000 HD
ATOM     14  H   UNL     1      -1.530   8.912  20.604  0.00  0.00    +0.000 HD
ENDBRANCH   8  10
BRANCH   7  15
ATOM     15  N   UNL     1       2.037   9.517  17.864  0.00  0.00    +0.000 N 
ATOM     16  C   UNL     1       2.184   8.495  18.783  0.00  0.00    +0.000 C 
ATOM     17  O   UNL     1       1.845   8.554  19.964  0.00  0.00    +0.000 OA
ATOM     18  H   UNL     1       1.831   9.232  16.913  0.00  0.00    +0.000 HD
BRANCH  16  19
ATOM     19  C   UNL     1       2.745   7.212  18.299  0.00  0.00    +0.000 A 
ATOM     20  C   UNL     1       2.135   5.977  18.531  0.00  0.00    +0.000 A 
ATOM     21  C   UNL     1       2.683   4.823  17.955  0.00  0.00    +0.000 A 
ATOM     22  C   UNL     1       3.841   4.890  17.154  0.00  0.00    +0.000 A 
ATOM     23  C   UNL     1       4.427   3.747  16.580  0.00  0.00    +0.000 A 
ATOM     24  C   UNL     1       5.577   3.851  15.792  0.00  0.00    +0.000 A 
ATOM     25  C   UNL     1       6.149   5.096  15.549  0.00  0.00    +0.000 A 
ATOM     26  C   UNL     1       5.578   6.240  16.101  0.00  0.00    +0.000 A 
ATOM     27  C   UNL     1       4.438   6.146  16.911  0.00  0.00    +0.000 A 
ATOM     28  C   UNL     1       3.879   7.292  17.482  0.00  0.00    +0.000 A 
ENDBRANCH  16  19
ENDBRANCH   7  15
BRANCH   1  30
ATOM     29  C   UNL     1       2.531  15.178  21.513  0.00  0.00    +0.000 C 
ATOM     30  C   UNL     1       1.065  14.831  21.203  0.00  0.00    +0.000 C 
ATOM     31  C   UNL     1       0.199  15.532  22.263  0.00  0.00    +0.000 C 
ENDBRANCH   1  30
TORSDOF 4
ENDMDL
