MODEL 1
REMARK VINA RESULT:      -7.5      0.000      0.000
REMARK  Name = 
REMARK  5 active torsions:
REMARK  status: ('A' for Active; 'I' for Inactive)
REMARK    1  A    between atoms: C_5  and  C_6
REMARK    2  A    between atoms: N_9  and  C_10
REMARK    3  A    between atoms: C_10  and  C_11
REMARK    4  A    between atoms: C_11  and  N_12
REMARK    5  A    between atoms: C_18  and  C_19
REMARK                            x       y       z     vdW  Elec       q    Type
REMARK                         _______ _______ _______ _____ _____    ______ ____
ROOT
ATOM      1  C   UNL     1       5.766   5.301  17.421  0.00  0.00    +0.000 A 
ATOM      2  N   UNL     1       6.155   4.182  16.728  0.00  0.00    +0.000 NA
ATOM      3  C   UNL     1       5.055   3.507  16.503  0.00  0.00    +0.000 A 
ATOM      4  N   UNL     1       3.950   4.130  17.031  0.00  0.00    +0.000 N 
ATOM      5  C   UNL     1       4.380   5.312  17.637  0.00  0.00    +0.000 A 
ENDROOT
BRANCH   1  10
ATOM      6  F   UNL     1       9.293   9.384  18.910  0.00  0.00    +0.000 F 
ATOM      7  C   UNL     1       8.478   8.389  18.533  0.00  0.00    +0.000 A 
ATOM      8  C   UNL     1       7.596   8.589  17.479  0.00  0.00    +0.000 A 
ATOM      9  C   UNL     1       6.727   7.560  17.104  0.00  0.00    +0.000 A 
ATOM     10  C   UNL     1       6.736   6.330  17.785  0.00  0.00    +0.000 A 
ATOM     11  C   UNL     1       7.672   6.139  18.813  0.00  0.00    +0.000 A 
ATOM     12  C   UNL     1       8.527   7.174  19.202  0.00  0.00    +0.000 A 
ENDBRANCH   1  10
BRANCH   5  13
ATOM     13  C   UNL     1       3.498   6.338  18.239  0.00  0.00    +0.000 A 
ATOM     14  C   UNL     1       3.039   6.239  19.552  0.00  0.00    +0.000 A 
ATOM     15  C   UNL     1       2.187   7.218  20.046  0.00  0.00    +0.000 A 
ATOM     16  N   UNL     1       1.837   8.322  19.359  0.00  0.00    +0.000 NA
ATOM     17  C   UNL     1       2.339   8.442  18.118  0.00  0.00    +0.000 A 
ATOM     18  C   UNL     1       3.127   7.474  17.512  0.00  0.00    +0.000 A 
ENDBRANCH   5  13
BRANCH   4  19
ATOM     19  C   UNL     1       2.587   3.684  16.796  0.00  0.00    +0.000 C 
BRANCH  19  20
ATOM     20  C   UNL     1       1.603   3.782  17.984  0.00  0.00    +0.000 C 
BRANCH  20  21
ATOM     21  N   UNL     1       1.499   2.505  18.721  0.00  0.00    +0.000 NA
ATOM     22  C   UNL     1       0.741   2.590  19.992  0.00  0.00    +0.000 C 
ATOM     23  C   UNL     1       1.504   3.246  21.152  0.00  0.00    +0.000 C 
ATOM     24  O   UNL     1       2.759   2.599  21.385  0.00  0.00    +0.000 OA
ATOM     25  C   UNL     1       3.558   2.601  20.198  0.00  0.00    +0.000 C 
ATOM     26  C   UNL     1       2.824   1.918  19.030  0.00  0.00    +0.000 C 
ENDBRANCH  20  21
ENDBRANCH  19  20
ENDBRANCH   4  19
TORSDOF 5
ENDMDL
MODEL 2
REMARK VINA RESULT:      -7.4      3.417      6.041
REMARK  Name = 
REMARK  5 active torsions:
REMARK  status: ('A' for Active; 'I' for Inactive)
REMARK    1  A    between atoms: C_5  and  C_6
REMARK    2  A    between atoms: N_9  and  C_10
REMARK    3  A    between atoms: C_10  and  C_11
REMARK    4  A    between atoms: C_11  and  N_12
REMARK    5  A    between atoms: C_18  and  C_19
REMARK                            x       y       z     vdW  Elec       q    Type
REMARK                         _______ _______ _______ _____ _____    ______ ____
ROOT
ATOM      1  C   UNL     1       2.862   7.199  18.594  0.00  0.00    +0.000 A 
ATOM      2  N   UNL     1       3.650   7.713  17.596  0.00  0.00    +0.000 NA
ATOM      3  C   UNL     1       4.300   6.690  17.098  0.00  0.00    +0.000 A 
ATOM      4  N   UNL     1       3.981   5.516  17.735  0.00  0.00    +0.000 N 
ATOM      5  C   UNL     1       3.037   5.812  18.720  0.00  0.00    +0.000 A 
ENDROOT
BRANCH   1  10
ATOM      6  F   UNL     1      -0.872  10.381  21.288  0.00  0.00    +0.000 F 
ATOM      7  C   UNL     1       0.051   9.641  20.660  0.00  0.00    +0.000 A 
ATOM      8  C   UNL     1       0.367   9.918  19.337  0.00  0.00    +0.000 A 
ATOM      9  C   UNL     1       1.311   9.127  18.673  0.00  0.00    +0.000 A 
ATOM     10  C   UNL     1       1.937   8.054  19.333  0.00  0.00    +0.000 A 
ATOM     11  C   UNL     1       1.634   7.828  20.684  0.00  0.00    +0.000 A 
ATOM     12  C   UNL     1       0.676   8.606  21.341  0.00  0.00    +0.000 A 
ENDBRANCH   1  10
BRANCH   5  13
ATOM     13  C   UNL     1       2.346   4.819  19.573  0.00  0.00    +0.000 A 
ATOM     14  C   UNL     1       1.278   4.054  19.101  0.00  0.00    +0.000 A 
ATOM     15  C   UNL     1       0.652   3.164  19.963  0.00  0.00    +0.000 A 
ATOM     16  N   UNL     1       1.068   2.920  21.220  0.00  0.00    +0.000 NA
ATOM     17  C   UNL     1       2.140   3.612  21.643  0.00  0.00    +0.000 A 
ATOM     18  C   UNL     1       2.776   4.583  20.883  0.00  0.00    +0.000 A 
ENDBRANCH   5  13
BRANCH   4  19
ATOM     19  C   UNL     1       4.432   4.210  17.287  0.00  0.00    +0.000 C 
BRANCH  19  20
ATOM     20  C   UNL     1       4.670   4.033  15.770  0.00  0.00    +0.000 C 
BRANCH  20  21
ATOM     21  N   UNL     1       6.028   3.526  15.479  0.00  0.00    +0.000 NA
ATOM     22  C   UNL     1       7.103   4.156  16.282  0.00  0.00    +0.000 C 
ATOM     23  C   UNL     1       7.491   5.574  15.836  0.00  0.00    +0.000 C 
ATOM     24  O   UNL     1       7.845   5.608  14.450  0.00  0.00    +0.000 OA
ATOM     25  C   UNL     1       6.776   5.106  13.641  0.00  0.00    +0.000 C 
ATOM     26  C   UNL     1       6.393   3.672  14.050  0.00  0.00    +0.000 C 
ENDBRANCH  20  21
ENDBRANCH  19  20
ENDBRANCH   4  19
TORSDOF 5
ENDMDL
MODEL 3
REMARK VINA RESULT:      -7.3      3.532      6.214
REMARK  Name = 
REMARK  5 active torsions:
REMARK  status: ('A' for Active; 'I' for Inactive)
REMARK    1  A    between atoms: C_5  and  C_6
REMARK    2  A    between atoms: N_9  and  C_10
REMARK    3  A    between atoms: C_10  and  C_11
REMARK    4  A    between atoms: C_11  and  N_12
REMARK    5  A    between atoms: C_18  and  C_19
REMARK                            x       y       z     vdW  Elec       q    Type
REMARK                         _______ _______ _______ _____ _____    ______ ____
ROOT
ATOM      1  C   UNL     1       3.109   6.699  18.136  0.00  0.00    +0.000 A 
ATOM      2  N   UNL     1       3.131   8.057  17.948  0.00  0.00    +0.000 NA
ATOM      3  C   UNL     1       2.361   8.555  18.884  0.00  0.00    +0.000 A 
ATOM      4  N   UNL     1       1.818   7.576  19.681  0.00  0.00    +0.000 N 
ATOM      5  C   UNL     1       2.292   6.346  19.221  0.00  0.00    +0.000 A 
ENDROOT
BRANCH   1  10
ATOM      6  F   UNL     1       6.424   3.381  15.082  0.00  0.00    +0.000 F 
ATOM      7  C   UNL     1       5.601   4.169  15.786  0.00  0.00    +0.000 A 
ATOM      8  C   UNL     1       5.687   5.548  15.647  0.00  0.00    +0.000 A 
ATOM      9  C   UNL     1       4.846   6.371  16.404  0.00  0.00    +0.000 A 
ATOM     10  C   UNL     1       3.921   5.814  17.304  0.00  0.00    +0.000 A 
ATOM     11  C   UNL     1       3.822   4.417  17.388  0.00  0.00    +0.000 A 
ATOM     12  C   UNL     1       4.676   3.595  16.647  0.00  0.00    +0.000 A 
ENDBRANCH   1  10
BRANCH   5  13
ATOM     13  C   UNL     1       2.036   5.035  19.861  0.00  0.00    +0.000 A 
ATOM     14  C   UNL     1       2.587   4.695  21.096  0.00  0.00    +0.000 A 
ATOM     15  C   UNL     1       2.335   3.437  21.625  0.00  0.00    +0.000 A 
ATOM     16  N   UNL     1       1.509   2.537  21.058  0.00  0.00    +0.000 NA
ATOM     17  C   UNL     1       0.929   2.900  19.901  0.00  0.00    +0.000 A 
ATOM     18  C   UNL     1       1.188   4.101  19.256  0.00  0.00    +0.000 A 
ENDBRANCH   5  13
BRANCH   4  19
ATOM     19  C   UNL     1       1.056   7.852  20.887  0.00  0.00    +0.000 C 
BRANCH  19  20
ATOM     20  C   UNL     1       0.990   9.324  21.352  0.00  0.00    +0.000 C 
BRANCH  20  21
ATOM     21  N   UNL     1      -0.361   9.900  21.173  0.00  0.00    +0.000 NA
ATOM     22  C   UNL     1      -0.708  10.226  19.770  0.00  0.00    +0.000 C 
ATOM     23  C   UNL     1      -0.047  11.501  19.224  0.00  0.00    +0.000 C 
ATOM     24  O   UNL     1      -0.319  12.630  20.060  0.00  0.00    +0.000 OA
ATOM     25  C   UNL     1       0.110  12.381  21.403  0.00  0.00    +0.000 C 
ATOM     26  C   UNL     1      -0.566  11.125  21.981  0.00  0.00    +0.000 C 
ENDBRANCH  20  21
ENDBRANCH  19  20
ENDBRANCH   4  19
TORSDOF 5
ENDMDL
MODEL 4
REMARK VINA RESULT:      -7.1      3.594      6.245
REMARK  Name = 
REMARK  5 active torsions:
REMARK  status: ('A' for Active; 'I' for Inactive)
REMARK    1  A    between atoms: C_5  and  C_6
REMARK    2  A    between atoms: N_9  and  C_10
REMARK    3  A    between atoms: C_10  and  C_11
REMARK    4  A    between atoms: C_11  and  N_12
REMARK    5  A    between atoms: C_18  and  C_19
REMARK                            x       y       z     vdW  Elec       q    Type
REMARK                         _______ _______ _______ _____ _____    ______ ____
ROOT
ATOM      1  C   UNL     1       3.013   6.699  18.223  0.00  0.00    +0.000 A 
ATOM      2  N   UNL     1       2.995   8.059  18.043  0.00  0.00    +0.000 NA
ATOM      3  C   UNL     1       2.215   8.529  18.986  0.00  0.00    +0.000 A 
ATOM      4  N   UNL     1       1.704   7.529  19.779  0.00  0.00    +0.000 N 
ATOM      5  C   UNL     1       2.211   6.316  19.309  0.00  0.00    +0.000 A 
ENDROOT
BRANCH   1  10
ATOM      6  F   UNL     1       6.408   3.491  15.140  0.00  0.00    +0.000 F 
ATOM      7  C   UNL     1       5.566   4.254  15.850  0.00  0.00    +0.000 A 
ATOM      8  C   UNL     1       5.651   5.636  15.757  0.00  0.00    +0.000 A 
ATOM      9  C   UNL     1       4.790   6.432  16.520  0.00  0.00    +0.000 A 
ATOM     10  C   UNL     1       3.847   5.844  17.382  0.00  0.00    +0.000 A 
ATOM     11  C   UNL     1       3.751   4.445  17.419  0.00  0.00    +0.000 A 
ATOM     12  C   UNL     1       4.624   3.650  16.671  0.00  0.00    +0.000 A 
ENDBRANCH   1  10
BRANCH   5  13
ATOM     13  C   UNL     1       1.996   4.994  19.940  0.00  0.00    +0.000 A 
ATOM     14  C   UNL     1       2.601   4.644  21.147  0.00  0.00    +0.000 A 
ATOM     15  C   UNL     1       2.384   3.376  21.668  0.00  0.00    +0.000 A 
ATOM     16  N   UNL     1       1.545   2.475  21.123  0.00  0.00    +0.000 NA
ATOM     17  C   UNL     1       0.913   2.847  19.997  0.00  0.00    +0.000 A 
ATOM     18  C   UNL     1       1.133   4.059  19.358  0.00  0.00    +0.000 A 
ENDBRANCH   5  13
BRANCH   4  19
ATOM     19  C   UNL     1       0.940   7.775  20.989  0.00  0.00    +0.000 C 
BRANCH  19  20
ATOM     20  C   UNL     1       0.075   9.055  21.024  0.00  0.00    +0.000 C 
BRANCH  20  21
ATOM     21  N   UNL     1       0.601  10.052  21.981  0.00  0.00    +0.000 NA
ATOM     22  C   UNL     1      -0.237  10.244  23.188  0.00  0.00    +0.000 C 
ATOM     23  C   UNL     1      -1.511  11.072  22.961  0.00  0.00    +0.000 C 
ATOM     24  O   UNL     1      -1.211  12.344  22.378  0.00  0.00    +0.000 OA
ATOM     25  C   UNL     1      -0.496  12.182  21.149  0.00  0.00    +0.000 C 
ATOM     26  C   UNL     1       0.802  11.382  21.359  0.00  0.00    +0.000 C 
ENDBRANCH  20  21
ENDBRANCH  19  20
ENDBRANCH   4  19
TORSDOF 5
ENDMDL
MODEL 5
REMARK VINA RESULT:      -7.1      3.550      6.284
REMARK  Name = 
REMARK  5 active torsions:
REMARK  status: ('A' for Active; 'I' for Inactive)
REMARK    1  A    between atoms: C_5  and  C_6
REMARK    2  A    between atoms: N_9  and  C_10
REMARK    3  A    between atoms: C_10  and  C_11
REMARK    4  A    between atoms: C_11  and  N_12
REMARK    5  A    between atoms: C_18  and  C_19
REMARK                            x       y       z     vdW  Elec       q    Type
REMARK                         _______ _______ _______ _____ _____    ______ ____
ROOT
ATOM      1  C   UNL     1       3.169   6.738  18.094  0.00  0.00    +0.000 A 
ATOM      2  N   UNL     1       3.194   8.099  17.919  0.00  0.00    +0.000 NA
ATOM      3  C   UNL     1       2.381   8.585  18.824  0.00  0.00    +0.000 A 
ATOM      4  N   UNL     1       1.807   7.597  19.587  0.00  0.00    +0.000 N 
ATOM      5  C   UNL     1       2.306   6.373  19.138  0.00  0.00    +0.000 A 
ENDROOT
BRANCH   1  10
ATOM      6  F   UNL     1       6.228   3.302  14.906  0.00  0.00    +0.000 F 
ATOM      7  C   UNL     1       5.529   4.132  15.691  0.00  0.00    +0.000 A 
ATOM      8  C   UNL     1       4.730   3.610  16.700  0.00  0.00    +0.000 A 
ATOM      9  C   UNL     1       3.979   4.475  17.502  0.00  0.00    +0.000 A 
ATOM     10  C   UNL     1       4.022   5.865  17.291  0.00  0.00    +0.000 A 
ATOM     11  C   UNL     1       4.875   6.368  16.298  0.00  0.00    +0.000 A 
ATOM     12  C   UNL     1       5.611   5.502  15.483  0.00  0.00    +0.000 A 
ENDBRANCH   1  10
BRANCH   5  13
ATOM     13  C   UNL     1       2.027   5.055  19.753  0.00  0.00    +0.000 A 
ATOM     14  C   UNL     1       1.240   4.095  19.118  0.00  0.00    +0.000 A 
ATOM     15  C   UNL     1       0.989   2.891  19.764  0.00  0.00    +0.000 A 
ATOM     16  N   UNL     1       1.536   2.548  20.945  0.00  0.00    +0.000 NA
ATOM     17  C   UNL     1       2.348   3.453  21.517  0.00  0.00    +0.000 A 
ATOM     18  C   UNL     1       2.588   4.713  20.988  0.00  0.00    +0.000 A 
ENDBRANCH   5  13
BRANCH   4  19
ATOM     19  C   UNL     1       0.991   7.859  20.760  0.00  0.00    +0.000 C 
BRANCH  19  20
ATOM     20  C   UNL     1       0.991   9.305  21.305  0.00  0.00    +0.000 C 
BRANCH  20  21
ATOM     21  N   UNL     1      -0.333   9.949  21.165  0.00  0.00    +0.000 NA
ATOM     22  C   UNL     1      -0.740  10.218  19.766  0.00  0.00    +0.000 C 
ATOM     23  C   UNL     1      -0.040  11.421  19.114  0.00  0.00    +0.000 C 
ATOM     24  O   UNL     1      -0.201  12.607  19.897  0.00  0.00    +0.000 OA
ATOM     25  C   UNL     1       0.288  12.407  21.227  0.00  0.00    +0.000 C 
ATOM     26  C   UNL     1      -0.423  11.226  21.912  0.00  0.00    +0.000 C 
ENDBRANCH  20  21
ENDBRANCH  19  20
ENDBRANCH   4  19
TORSDOF 5
ENDMDL
MODEL 6
REMARK VINA RESULT:      -7.1      3.206      6.142
REMARK  Name = 
REMARK  5 active torsions:
REMARK  status: ('A' for Active; 'I' for Inactive)
REMARK    1  A    between atoms: C_5  and  C_6
REMARK    2  A    between atoms: N_9  and  C_10
REMARK    3  A    between atoms: C_10  and  C_11
REMARK    4  A    between atoms: C_11  and  N_12
REMARK    5  A    between atoms: C_18  and  C_19
REMARK                            x       y       z     vdW  Elec       q    Type
REMARK                         _______ _______ _______ _____ _____    ______ ____
ROOT
ATOM      1  C   UNL     1       2.420   7.639  18.845  0.00  0.00    +0.000 A 
ATOM      2  N   UNL     1       3.107   8.322  17.873  0.00  0.00    +0.000 NA
ATOM      3  C   UNL     1       3.826   7.420  17.251  0.00  0.00    +0.000 A 
ATOM      4  N   UNL     1       3.650   6.164  17.780  0.00  0.00    +0.000 N 
ATOM      5  C   UNL     1       2.730   6.271  18.825  0.00  0.00    +0.000 A 
ENDROOT
BRANCH   1  10
ATOM      6  F   UNL     1      -1.086  10.384  22.237  0.00  0.00    +0.000 F 
ATOM      7  C   UNL     1      -0.277   9.703  21.413  0.00  0.00    +0.000 A 
ATOM      8  C   UNL     1       0.541   8.706  21.927  0.00  0.00    +0.000 A 
ATOM      9  C   UNL     1       1.405   8.015  21.071  0.00  0.00    +0.000 A 
ATOM     10  C   UNL     1       1.455   8.324  19.700  0.00  0.00    +0.000 A 
ATOM     11  C   UNL     1       0.581   9.302  19.201  0.00  0.00    +0.000 A 
ATOM     12  C   UNL     1      -0.268  10.007  20.059  0.00  0.00    +0.000 A 
ENDBRANCH   1  10
BRANCH   5  13
ATOM     13  C   UNL     1       2.178   5.137  19.601  0.00  0.00    +0.000 A 
ATOM     14  C   UNL     1       1.216   4.277  19.070  0.00  0.00    +0.000 A 
ATOM     15  C   UNL     1       0.715   3.253  19.862  0.00  0.00    +0.000 A 
ATOM     16  N   UNL     1       1.165   2.975  21.100  0.00  0.00    +0.000 NA
ATOM     17  C   UNL     1       2.141   3.766  21.577  0.00  0.00    +0.000 A 
ATOM     18  C   UNL     1       2.642   4.864  20.892  0.00  0.00    +0.000 A 
ENDBRANCH   5  13
BRANCH   4  19
ATOM     19  C   UNL     1       4.200   4.958  17.187  0.00  0.00    +0.000 C 
BRANCH  19  20
ATOM     20  C   UNL     1       5.162   4.122  18.062  0.00  0.00    +0.000 C 
BRANCH  20  21
ATOM     21  N   UNL     1       6.492   3.974  17.434  0.00  0.00    +0.000 NA
ATOM     22  C   UNL     1       7.538   4.862  17.997  0.00  0.00    +0.000 C 
ATOM     23  C   UNL     1       7.443   6.329  17.550  0.00  0.00    +0.000 C 
ATOM     24  O   UNL     1       7.435   6.441  16.123  0.00  0.00    +0.000 OA
ATOM     25  C   UNL     1       6.363   5.679  15.561  0.00  0.00    +0.000 C 
ATOM     26  C   UNL     1       6.456   4.198  15.970  0.00  0.00    +0.000 C 
ENDBRANCH  20  21
ENDBRANCH  19  20
ENDBRANCH   4  19
TORSDOF 5
ENDMDL
MODEL 7
REMARK VINA RESULT:      -7.0      3.175      6.176
REMARK  Name = 
REMARK  5 active torsions:
REMARK  status: ('A' for Active; 'I' for Inactive)
REMARK    1  A    between atoms: C_5  and  C_6
REMARK    2  A    between atoms: N_9  and  C_10
REMARK    3  A    between atoms: C_10  and  C_11
REMARK    4  A    between atoms: C_11  and  N_12
REMARK    5  A    between atoms: C_18  and  C_19
REMARK                            x       y       z     vdW  Elec       q    Type
REMARK                         _______ _______ _______ _____ _____    ______ ____
ROOT
ATOM      1  C   UNL     1       2.327   7.814  18.820  0.00  0.00    +0.000 A 
ATOM      2  N   UNL     1       2.946   8.531  17.827  0.00  0.00    +0.000 NA
ATOM      3  C   UNL     1       3.687   7.667  17.178  0.00  0.00    +0.000 A 
ATOM      4  N   UNL     1       3.593   6.404  17.710  0.00  0.00    +0.000 N 
ATOM      5  C   UNL     1       2.705   6.463  18.786  0.00  0.00    +0.000 A 
ENDROOT
BRANCH   1  10
ATOM      6  F   UNL     1      -1.190  10.354  22.356  0.00  0.00    +0.000 F 
ATOM      7  C   UNL     1      -0.379   9.724  21.495  0.00  0.00    +0.000 A 
ATOM      8  C   UNL     1       0.408   8.671  21.942  0.00  0.00    +0.000 A 
ATOM      9  C   UNL     1       1.275   8.032  21.050  0.00  0.00    +0.000 A 
ATOM     10  C   UNL     1       1.359   8.450  19.710  0.00  0.00    +0.000 A 
ATOM     11  C   UNL     1       0.517   9.483  19.274  0.00  0.00    +0.000 A 
ATOM     12  C   UNL     1      -0.336  10.136  20.171  0.00  0.00    +0.000 A 
ENDBRANCH   1  10
BRANCH   5  13
ATOM     13  C   UNL     1       2.238   5.303  19.578  0.00  0.00    +0.000 A 
ATOM     14  C   UNL     1       2.727   5.035  20.857  0.00  0.00    +0.000 A 
ATOM     15  C   UNL     1       2.271   3.911  21.533  0.00  0.00    +0.000 A 
ATOM     16  N   UNL     1       1.308   3.095  21.065  0.00  0.00    +0.000 NA
ATOM     17  C   UNL     1       0.794   3.401  19.862  0.00  0.00    +0.000 A 
ATOM     18  C   UNL     1       1.246   4.452  19.077  0.00  0.00    +0.000 A 
ENDBRANCH   5  13
BRANCH   4  19
ATOM     19  C   UNL     1       4.182   5.227  17.096  0.00  0.00    +0.000 C 
BRANCH  19  20
ATOM     20  C   UNL     1       5.286   4.498  17.894  0.00  0.00    +0.000 C 
BRANCH  20  21
ATOM     21  N   UNL     1       6.615   4.647  17.263  0.00  0.00    +0.000 NA
ATOM     22  C   UNL     1       7.756   4.535  18.202  0.00  0.00    +0.000 C 
ATOM     23  C   UNL     1       7.988   5.773  19.083  0.00  0.00    +0.000 C 
ATOM     24  O   UNL     1       8.133   6.957  18.292  0.00  0.00    +0.000 OA
ATOM     25  C   UNL     1       6.989   7.149  17.453  0.00  0.00    +0.000 C 
ATOM     26  C   UNL     1       6.757   5.933  16.539  0.00  0.00    +0.000 C 
ENDBRANCH  20  21
ENDBRANCH  19  20
ENDBRANCH   4  19
TORSDOF 5
ENDMDL
MODEL 8
REMARK VINA RESULT:      -7.0      3.395      5.924
REMARK  Name = 
REMARK  5 active torsions:
REMARK  status: ('A' for Active; 'I' for Inactive)
REMARK    1  A    between atoms: C_5  and  C_6
REMARK    2  A    between atoms: N_9  and  C_10
REMARK    3  A    between atoms: C_10  and  C_11
REMARK    4  A    between atoms: C_11  and  N_12
REMARK    5  A    between atoms: C_18  and  C_19
REMARK                            x       y       z     vdW  Elec       q    Type
REMARK                         _______ _______ _______ _____ _____    ______ ____
ROOT
ATOM      1  C   UNL     1       3.496   6.649  17.630  0.00  0.00    +0.000 A 
ATOM      2  N   UNL     1       3.528   8.013  17.487  0.00  0.00    +0.000 NA
ATOM      3  C   UNL     1       2.694   8.480  18.384  0.00  0.00    +0.000 A 
ATOM      4  N   UNL     1       2.100   7.476  19.110  0.00  0.00    +0.000 N 
ATOM      5  C   UNL     1       2.606   6.262  18.644  0.00  0.00    +0.000 A 
ENDROOT
BRANCH   1  10
ATOM      6  F   UNL     1       6.620   3.256  14.459  0.00  0.00    +0.000 F 
ATOM      7  C   UNL     1       5.905   4.079  15.239  0.00  0.00    +0.000 A 
ATOM      8  C   UNL     1       5.193   3.559  16.311  0.00  0.00    +0.000 A 
ATOM      9  C   UNL     1       4.425   4.415  17.107  0.00  0.00    +0.000 A 
ATOM     10  C   UNL     1       4.365   5.791  16.828  0.00  0.00    +0.000 A 
ATOM     11  C   UNL     1       5.134   6.296  15.769  0.00  0.00    +0.000 A 
ATOM     12  C   UNL     1       5.886   5.439  14.961  0.00  0.00    +0.000 A 
ENDBRANCH   1  10
BRANCH   5  13
ATOM     13  C   UNL     1       2.309   4.931  19.222  0.00  0.00    +0.000 A 
ATOM     14  C   UNL     1       2.894   4.494  20.411  0.00  0.00    +0.000 A 
ATOM     15  C   UNL     1       2.599   3.222  20.881  0.00  0.00    +0.000 A 
ATOM     16  N   UNL     1       1.704   2.398  20.303  0.00  0.00    +0.000 NA
ATOM     17  C   UNL     1       1.095   2.855  19.196  0.00  0.00    +0.000 A 
ATOM     18  C   UNL     1       1.389   4.076  18.606  0.00  0.00    +0.000 A 
ENDBRANCH   5  13
BRANCH   4  19
ATOM     19  C   UNL     1       1.256   7.714  20.269  0.00  0.00    +0.000 C 
BRANCH  19  20
ATOM     20  C   UNL     1       0.518   9.069  20.331  0.00  0.00    +0.000 C 
BRANCH  20  21
ATOM     21  N   UNL     1       1.149   9.999  21.292  0.00  0.00    +0.000 NA
ATOM     22  C   UNL     1       1.169   9.514  22.692  0.00  0.00    +0.000 C 
ATOM     23  C   UNL     1      -0.179   9.608  23.423  0.00  0.00    +0.000 C 
ATOM     24  O   UNL     1      -0.704  10.939  23.384  0.00  0.00    +0.000 OA
ATOM     25  C   UNL     1      -0.837  11.391  22.033  0.00  0.00    +0.000 C 
ATOM     26  C   UNL     1       0.510  11.336  21.290  0.00  0.00    +0.000 C 
ENDBRANCH  20  21
ENDBRANCH  19  20
ENDBRANCH   4  19
TORSDOF 5
ENDMDL
MODEL 9
REMARK VINA RESULT:      -6.9      3.270      5.749
REMARK  Name = 
REMARK  5 active torsions:
REMARK  status: ('A' for Active; 'I' for Inactive)
REMARK    1  A    between atoms: C_5  and  C_6
REMARK    2  A    between atoms: N_9  and  C_10
REMARK    3  A    between atoms: C_10  and  C_11
REMARK    4  A    between atoms: C_11  and  N_12
REMARK    5  A    between atoms: C_18  and  C_19
REMARK                            x       y       z     vdW  Elec       q    Type
REMARK                         _______ _______ _______ _____ _____    ______ ____
ROOT
ATOM      1  C   UNL     1       3.492   7.101  17.855  0.00  0.00    +0.000 A 
ATOM      2  N   UNL     1       3.467   8.441  17.565  0.00  0.00    +0.000 NA
ATOM      3  C   UNL     1       2.460   8.930  18.248  0.00  0.00    +0.000 A 
ATOM      4  N   UNL     1       1.808   7.961  18.971  0.00  0.00    +0.000 N 
ATOM      5  C   UNL     1       2.462   6.749  18.740  0.00  0.00    +0.000 A 
ENDROOT
BRANCH   1  10
ATOM      6  F   UNL     1       7.654   4.000  15.758  0.00  0.00    +0.000 F 
ATOM      7  C   UNL     1       6.633   4.711  16.257  0.00  0.00    +0.000 A 
ATOM      8  C   UNL     1       5.923   5.566  15.425  0.00  0.00    +0.000 A 
ATOM      9  C   UNL     1       4.876   6.328  15.953  0.00  0.00    +0.000 A 
ATOM     10  C   UNL     1       4.540   6.238  17.315  0.00  0.00    +0.000 A 
ATOM     11  C   UNL     1       5.242   5.329  18.121  0.00  0.00    +0.000 A 
ATOM     12  C   UNL     1       6.302   4.582  17.599  0.00  0.00    +0.000 A 
ENDBRANCH   1  10
BRANCH   5  13
ATOM     13  C   UNL     1       2.148   5.464  19.407  0.00  0.00    +0.000 A 
ATOM     14  C   UNL     1       2.362   5.268  20.771  0.00  0.00    +0.000 A 
ATOM     15  C   UNL     1       2.078   4.028  21.328  0.00  0.00    +0.000 A 
ATOM     16  N   UNL     1       1.518   3.011  20.646  0.00  0.00    +0.000 NA
ATOM     17  C   UNL     1       1.252   3.233  19.347  0.00  0.00    +0.000 A 
ATOM     18  C   UNL     1       1.580   4.408  18.686  0.00  0.00    +0.000 A 
ENDBRANCH   5  13
BRANCH   4  19
ATOM     19  C   UNL     1       0.759   8.247  19.935  0.00  0.00    +0.000 C 
BRANCH  19  20
ATOM     20  C   UNL     1       0.269   9.710  20.023  0.00  0.00    +0.000 C 
BRANCH  20  21
ATOM     21  N   UNL     1       0.911  10.442  21.136  0.00  0.00    +0.000 NA
ATOM     22  C   UNL     1       0.964   9.692  22.413  0.00  0.00    +0.000 C 
ATOM     23  C   UNL     1      -0.369   9.622  23.173  0.00  0.00    +0.000 C 
ATOM     24  O   UNL     1      -0.908  10.927  23.405  0.00  0.00    +0.000 OA
ATOM     25  C   UNL     1      -1.074  11.634  22.171  0.00  0.00    +0.000 C 
ATOM     26  C   UNL     1       0.258  11.744  21.408  0.00  0.00    +0.000 C 
ENDBRANCH  20  21
ENDBRANCH  19  20
ENDBRANCH   4  19
TORSDOF 5
ENDMDL
