MODEL 1
REMARK VINA RESULT:      -7.0      0.000      0.000
REMARK  Name = 
REMARK  6 active torsions:
REMARK  status: ('A' for Active; 'I' for Inactive)
REMARK    1  A    between atoms: C_1  and  O_2
REMARK    2  A    between atoms: O_2  and  C_3
REMARK    3  A    between atoms: C_6  and  C_7
REMARK    4  A    between atoms: C_7  and  C_9
REMARK    5  A    between atoms: C_10  and  C_11
REMARK    6  A    between atoms: C_17  and  N_18
REMARK                            x       y       z     vdW  Elec       q    Type
REMARK                         _______ _______ _______ _____ _____    ______ ____
ROOT
ATOM      1  C   UNL     1       2.533   7.055  18.688  0.00  0.00    +0.000 C 
ATOM      2  C   UNL     1       2.259   6.127  17.759  0.00  0.00    +0.000 C 
ENDROOT
BRANCH   2   3
ATOM      3  C   UNL     1       2.712   4.745  17.927  0.00  0.00    +0.000 A 
ATOM      4  C   UNL     1       1.969   3.824  18.633  0.00  0.00    +0.000 A 
ATOM      5  N   UNL     1       2.328   2.535  18.799  0.00  0.00    +0.000 NA
ATOM      6  C   UNL     1       3.483   2.169  18.240  0.00  0.00    +0.000 A 
ATOM      7  N   UNL     1       3.874   0.855  18.400  0.00  0.00    +0.000 N 
ATOM      8  N   UNL     1       4.266   2.964  17.507  0.00  0.00    +0.000 NA
ATOM      9  C   UNL     1       3.881   4.242  17.368  0.00  0.00    +0.000 A 
ATOM     10  H   UNL     1       3.070   0.276  18.588  0.00  0.00    +0.000 HD
ATOM     11  H   UNL     1       4.484   0.579  17.643  0.00  0.00    +0.000 HD
BRANCH   9  12
ATOM     12  N   UNL     1       4.703   5.031  16.555  0.00  0.00    +0.000 N 
ATOM     13  H   UNL     1       4.574   5.999  16.839  0.00  0.00    +0.000 HD
ATOM     14  H   UNL     1       4.506   4.890  15.571  0.00  0.00    +0.000 HD
ENDBRANCH   9  12
ENDBRANCH   2   3
BRANCH   1  15
ATOM     15  C   UNL     1       1.996   8.437  18.552  0.00  0.00    +0.000 C 
ATOM     16  O   UNL     1       2.094   9.046  17.489  0.00  0.00    +0.000 OA
BRANCH  15  20
ATOM     17  C   UNL     1       0.144  10.198  22.034  0.00  0.00    +0.000 A 
ATOM     18  C   UNL     1       0.813   8.977  22.109  0.00  0.00    +0.000 A 
ATOM     19  C   UNL     1       1.404   8.417  20.969  0.00  0.00    +0.000 A 
ATOM     20  C   UNL     1       1.322   9.069  19.730  0.00  0.00    +0.000 A 
ATOM     21  C   UNL     1       0.637  10.290  19.663  0.00  0.00    +0.000 A 
ATOM     22  C   UNL     1       0.045  10.845  20.804  0.00  0.00    +0.000 A 
BRANCH  17  24
ATOM     23  C   UNL     1      -1.460  11.584  23.080  0.00  0.00    +0.000 C 
ATOM     24  O   UNL     1      -0.389  10.653  23.208  0.00  0.00    +0.000 OA
ENDBRANCH  17  24
ENDBRANCH  15  20
ENDBRANCH   1  15
TORSDOF 5
ENDMDL
MODEL 2
REMARK VINA RESULT:      -7.0      2.757      4.045
REMARK  Name = 
REMARK  6 active torsions:
REMARK  status: ('A' for Active; 'I' for Inactive)
REMARK    1  A    between atoms: C_1  and  O_2
REMARK    2  A    between atoms: O_2  and  C_3
REMARK    3  A    between atoms: C_6  and  C_7
REMARK    4  A    between atoms: C_7  and  C_9
REMARK    5  A    between atoms: C_10  and  C_11
REMARK    6  A    between atoms: C_17  and  N_18
REMARK                            x       y       z     vdW  Elec       q    Type
REMARK                         _______ _______ _______ _____ _____    ______ ____
ROOT
ATOM      1  C   UNL     1       3.632   5.515  18.382  0.00  0.00    +0.000 C 
ATOM      2  C   UNL     1       4.962   5.691  18.369  0.00  0.00    +0.000 C 
ENDROOT
BRANCH   2   3
ATOM      3  C   UNL     1       5.728   5.508  17.136  0.00  0.00    +0.000 A 
ATOM      4  C   UNL     1       5.291   6.019  15.933  0.00  0.00    +0.000 A 
ATOM      5  N   UNL     1       5.967   5.900  14.773  0.00  0.00    +0.000 NA
ATOM      6  C   UNL     1       7.121   5.231  14.830  0.00  0.00    +0.000 A 
ATOM      7  N   UNL     1       7.830   5.092  13.654  0.00  0.00    +0.000 N 
ATOM      8  N   UNL     1       7.659   4.724  15.942  0.00  0.00    +0.000 NA
ATOM      9  C   UNL     1       6.955   4.857  17.077  0.00  0.00    +0.000 A 
ATOM     10  H   UNL     1       7.572   5.822  13.007  0.00  0.00    +0.000 HD
ATOM     11  H   UNL     1       8.813   4.967  13.854  0.00  0.00    +0.000 HD
BRANCH   9  12
ATOM     12  N   UNL     1       7.573   4.353  18.228  0.00  0.00    +0.000 N 
ATOM     13  H   UNL     1       7.356   4.987  18.993  0.00  0.00    +0.000 HD
ATOM     14  H   UNL     1       8.572   4.238  18.098  0.00  0.00    +0.000 HD
ENDBRANCH   9  12
ENDBRANCH   2   3
BRANCH   1  15
ATOM     15  C   UNL     1       2.849   5.786  19.618  0.00  0.00    +0.000 C 
ATOM     16  O   UNL     1       2.769   4.941  20.508  0.00  0.00    +0.000 OA
BRANCH  15  20
ATOM     17  C   UNL     1       0.863   9.610  19.909  0.00  0.00    +0.000 A 
ATOM     18  C   UNL     1       1.510   9.217  18.738  0.00  0.00    +0.000 A 
ATOM     19  C   UNL     1       2.154   7.975  18.662  0.00  0.00    +0.000 A 
ATOM     20  C   UNL     1       2.170   7.112  19.767  0.00  0.00    +0.000 A 
ATOM     21  C   UNL     1       1.527   7.521  20.943  0.00  0.00    +0.000 A 
ATOM     22  C   UNL     1       0.887   8.764  21.016  0.00  0.00    +0.000 A 
BRANCH  17  24
ATOM     23  C   UNL     1       0.750  11.732  18.873  0.00  0.00    +0.000 C 
ATOM     24  O   UNL     1       0.264  10.838  19.870  0.00  0.00    +0.000 OA
ENDBRANCH  17  24
ENDBRANCH  15  20
ENDBRANCH   1  15
TORSDOF 5
ENDMDL
MODEL 3
REMARK VINA RESULT:      -6.9      1.352      2.231
REMARK  Name = 
REMARK  6 active torsions:
REMARK  status: ('A' for Active; 'I' for Inactive)
REMARK    1  A    between atoms: C_1  and  O_2
REMARK    2  A    between atoms: O_2  and  C_3
REMARK    3  A    between atoms: C_6  and  C_7
REMARK    4  A    between atoms: C_7  and  C_9
REMARK    5  A    between atoms: C_10  and  C_11
REMARK    6  A    between atoms: C_17  and  N_18
REMARK                            x       y       z     vdW  Elec       q    Type
REMARK                         _______ _______ _______ _____ _____    ______ ____
ROOT
ATOM      1  C   UNL     1       2.600   7.207  19.267  0.00  0.00    +0.000 C 
ATOM      2  C   UNL     1       2.125   5.988  18.969  0.00  0.00    +0.000 C 
ENDROOT
BRANCH   2   3
ATOM      3  C   UNL     1       2.910   4.788  19.263  0.00  0.00    +0.000 A 
ATOM      4  C   UNL     1       4.269   4.744  19.039  0.00  0.00    +0.000 A 
ATOM      5  N   UNL     1       5.043   3.674  19.313  0.00  0.00    +0.000 NA
ATOM      6  C   UNL     1       4.418   2.609  19.819  0.00  0.00    +0.000 A 
ATOM      7  N   UNL     1       5.188   1.499  20.103  0.00  0.00    +0.000 N 
ATOM      8  N   UNL     1       3.116   2.550  20.109  0.00  0.00    +0.000 NA
ATOM      9  C   UNL     1       2.375   3.632  19.818  0.00  0.00    +0.000 A 
ATOM     10  H   UNL     1       6.149   1.773  20.241  0.00  0.00    +0.000 HD
ATOM     11  H   UNL     1       4.748   0.948  20.827  0.00  0.00    +0.000 HD
BRANCH   9  12
ATOM     12  N   UNL     1       1.025   3.548  20.179  0.00  0.00    +0.000 N 
ATOM     13  H   UNL     1       0.856   2.601  20.509  0.00  0.00    +0.000 HD
ATOM     14  H   UNL     1       0.414   3.800  19.411  0.00  0.00    +0.000 HD
ENDBRANCH   9  12
ENDBRANCH   2   3
BRANCH   1  15
ATOM     15  C   UNL     1       1.760   8.416  19.045  0.00  0.00    +0.000 C 
ATOM     16  O   UNL     1       1.594   8.865  17.912  0.00  0.00    +0.000 OA
BRANCH  15  20
ATOM     17  C   UNL     1      -0.212  10.357  22.361  0.00  0.00    +0.000 A 
ATOM     18  C   UNL     1      -0.280  10.881  21.070  0.00  0.00    +0.000 A 
ATOM     19  C   UNL     1       0.369  10.241  20.007  0.00  0.00    +0.000 A 
ATOM     20  C   UNL     1       1.111   9.071  20.224  0.00  0.00    +0.000 A 
ATOM     21  C   UNL     1       1.183   8.560  21.527  0.00  0.00    +0.000 A 
ATOM     22  C   UNL     1       0.534   9.203  22.588  0.00  0.00    +0.000 A 
BRANCH  17  24
ATOM     23  C   UNL     1      -1.972  11.857  22.854  0.00  0.00    +0.000 C 
ATOM     24  O   UNL     1      -0.888  11.059  23.320  0.00  0.00    +0.000 OA
ENDBRANCH  17  24
ENDBRANCH  15  20
ENDBRANCH   1  15
TORSDOF 5
ENDMDL
MODEL 4
REMARK VINA RESULT:      -6.9      2.861      4.035
REMARK  Name = 
REMARK  6 active torsions:
REMARK  status: ('A' for Active; 'I' for Inactive)
REMARK    1  A    between atoms: C_1  and  O_2
REMARK    2  A    between atoms: O_2  and  C_3
REMARK    3  A    between atoms: C_6  and  C_7
REMARK    4  A    between atoms: C_7  and  C_9
REMARK    5  A    between atoms: C_10  and  C_11
REMARK    6  A    between atoms: C_17  and  N_18
REMARK                            x       y       z     vdW  Elec       q    Type
REMARK                         _______ _______ _______ _____ _____    ______ ____
ROOT
ATOM      1  C   UNL     1       3.673   5.542  17.926  0.00  0.00    +0.000 C 
ATOM      2  C   UNL     1       5.001   5.636  17.757  0.00  0.00    +0.000 C 
ENDROOT
BRANCH   2   3
ATOM      3  C   UNL     1       5.617   5.280  16.478  0.00  0.00    +0.000 A 
ATOM      4  C   UNL     1       4.984   4.448  15.580  0.00  0.00    +0.000 A 
ATOM      5  N   UNL     1       5.496   4.105  14.380  0.00  0.00    +0.000 NA
ATOM      6  C   UNL     1       6.693   4.615  14.084  0.00  0.00    +0.000 A 
ATOM      7  N   UNL     1       7.240   4.275  12.863  0.00  0.00    +0.000 N 
ATOM      8  N   UNL     1       7.382   5.456  14.859  0.00  0.00    +0.000 NA
ATOM      9  C   UNL     1       6.845   5.771  16.048  0.00  0.00    +0.000 A 
ATOM     10  H   UNL     1       6.510   4.003  12.222  0.00  0.00    +0.000 HD
ATOM     11  H   UNL     1       7.888   4.990  12.562  0.00  0.00    +0.000 HD
BRANCH   9  12
ATOM     12  N   UNL     1       7.574   6.691  16.810  0.00  0.00    +0.000 N 
ATOM     13  H   UNL     1       7.034   6.886  17.650  0.00  0.00    +0.000 HD
ATOM     14  H   UNL     1       7.783   7.532  16.286  0.00  0.00    +0.000 HD
ENDBRANCH   9  12
ENDBRANCH   2   3
BRANCH   1  15
ATOM     15  C   UNL     1       3.044   5.988  19.200  0.00  0.00    +0.000 C 
ATOM     16  O   UNL     1       3.121   5.296  20.213  0.00  0.00    +0.000 OA
BRANCH  15  20
ATOM     17  C   UNL     1       0.944   9.761  19.152  0.00  0.00    +0.000 A 
ATOM     18  C   UNL     1       1.571   9.266  18.009  0.00  0.00    +0.000 A 
ATOM     19  C   UNL     1       2.252   8.043  18.043  0.00  0.00    +0.000 A 
ATOM     20  C   UNL     1       2.327   7.302  19.231  0.00  0.00    +0.000 A 
ATOM     21  C   UNL     1       1.704   7.814  20.377  0.00  0.00    +0.000 A 
ATOM     22  C   UNL     1       1.027   9.038  20.340  0.00  0.00    +0.000 A 
BRANCH  17  24
ATOM     23  C   UNL     1      -1.119  10.908  19.023  0.00  0.00    +0.000 C 
ATOM     24  O   UNL     1       0.304  10.961  19.004  0.00  0.00    +0.000 OA
ENDBRANCH  17  24
ENDBRANCH  15  20
ENDBRANCH   1  15
TORSDOF 5
ENDMDL
MODEL 5
REMARK VINA RESULT:      -6.9      1.271      1.825
REMARK  Name = 
REMARK  6 active torsions:
REMARK  status: ('A' for Active; 'I' for Inactive)
REMARK    1  A    between atoms: C_1  and  O_2
REMARK    2  A    between atoms: O_2  and  C_3
REMARK    3  A    between atoms: C_6  and  C_7
REMARK    4  A    between atoms: C_7  and  C_9
REMARK    5  A    between atoms: C_10  and  C_11
REMARK    6  A    between atoms: C_17  and  N_18
REMARK                            x       y       z     vdW  Elec       q    Type
REMARK                         _______ _______ _______ _____ _____    ______ ____
ROOT
ATOM      1  C   UNL     1       2.628   7.330  19.085  0.00  0.00    +0.000 C 
ATOM      2  C   UNL     1       2.431   6.171  18.439  0.00  0.00    +0.000 C 
ENDROOT
BRANCH   2   3
ATOM      3  C   UNL     1       3.124   4.953  18.861  0.00  0.00    +0.000 A 
ATOM      4  C   UNL     1       4.499   4.864  18.847  0.00  0.00    +0.000 A 
ATOM      5  N   UNL     1       5.188   3.776  19.246  0.00  0.00    +0.000 NA
ATOM      6  C   UNL     1       4.460   2.739  19.664  0.00  0.00    +0.000 A 
ATOM      7  N   UNL     1       5.143   1.611  20.073  0.00  0.00    +0.000 N 
ATOM      8  N   UNL     1       3.128   2.723  19.754  0.00  0.00    +0.000 NA
ATOM      9  C   UNL     1       2.475   3.822  19.343  0.00  0.00    +0.000 A 
ATOM     10  H   UNL     1       6.081   1.858  20.352  0.00  0.00    +0.000 HD
ATOM     11  H   UNL     1       4.582   1.085  20.729  0.00  0.00    +0.000 HD
BRANCH   9  12
ATOM     12  N   UNL     1       1.084   3.784  19.496  0.00  0.00    +0.000 N 
ATOM     13  H   UNL     1       0.889   3.397  20.416  0.00  0.00    +0.000 HD
ATOM     14  H   UNL     1       0.638   3.254  18.756  0.00  0.00    +0.000 HD
ENDBRANCH   9  12
ENDBRANCH   2   3
BRANCH   1  15
ATOM     15  C   UNL     1       1.855   8.544  18.705  0.00  0.00    +0.000 C 
ATOM     16  O   UNL     1       1.882   8.968  17.551  0.00  0.00    +0.000 OA
BRANCH  15  20
ATOM     17  C   UNL     1      -0.431  10.480  21.815  0.00  0.00    +0.000 A 
ATOM     18  C   UNL     1       0.247   9.285  22.052  0.00  0.00    +0.000 A 
ATOM     19  C   UNL     1       0.980   8.668  21.030  0.00  0.00    +0.000 A 
ATOM     20  C   UNL     1       1.033   9.234  19.748  0.00  0.00    +0.000 A 
ATOM     21  C   UNL     1       0.339  10.428  19.518  0.00  0.00    +0.000 A 
ATOM     22  C   UNL     1      -0.395  11.042  20.540  0.00  0.00    +0.000 A 
BRANCH  17  24
ATOM     23  C   UNL     1      -1.228  12.417  22.912  0.00  0.00    +0.000 C 
ATOM     24  O   UNL     1      -1.109  10.998  22.884  0.00  0.00    +0.000 OA
ENDBRANCH  17  24
ENDBRANCH  15  20
ENDBRANCH   1  15
TORSDOF 5
ENDMDL
MODEL 6
REMARK VINA RESULT:      -6.9      0.174      1.087
REMARK  Name = 
REMARK  6 active torsions:
REMARK  status: ('A' for Active; 'I' for Inactive)
REMARK    1  A    between atoms: C_1  and  O_2
REMARK    2  A    between atoms: O_2  and  C_3
REMARK    3  A    between atoms: C_6  and  C_7
REMARK    4  A    between atoms: C_7  and  C_9
REMARK    5  A    between atoms: C_10  and  C_11
REMARK    6  A    between atoms: C_17  and  N_18
REMARK                            x       y       z     vdW  Elec       q    Type
REMARK                         _______ _______ _______ _____ _____    ______ ____
ROOT
ATOM      1  C   UNL     1       2.605   7.044  18.567  0.00  0.00    +0.000 C 
ATOM      2  C   UNL     1       2.029   6.029  17.905  0.00  0.00    +0.000 C 
ENDROOT
BRANCH   2   3
ATOM      3  C   UNL     1       2.560   4.669  18.014  0.00  0.00    +0.000 A 
ATOM      4  C   UNL     1       1.870   3.677  18.674  0.00  0.00    +0.000 A 
ATOM      5  N   UNL     1       2.302   2.404  18.785  0.00  0.00    +0.000 NA
ATOM      6  C   UNL     1       3.478   2.130  18.216  0.00  0.00    +0.000 A 
ATOM      7  N   UNL     1       3.943   0.835  18.320  0.00  0.00    +0.000 N 
ATOM      8  N   UNL     1       4.215   3.000  17.523  0.00  0.00    +0.000 NA
ATOM      9  C   UNL     1       3.757   4.259  17.438  0.00  0.00    +0.000 A 
ATOM     10  H   UNL     1       3.173   0.203  18.478  0.00  0.00    +0.000 HD
ATOM     11  H   UNL     1       4.570   0.629  17.554  0.00  0.00    +0.000 HD
BRANCH   9  12
ATOM     12  N   UNL     1       4.535   5.129  16.665  0.00  0.00    +0.000 N 
ATOM     13  H   UNL     1       4.273   6.079  16.918  0.00  0.00    +0.000 HD
ATOM     14  H   UNL     1       4.424   4.953  15.673  0.00  0.00    +0.000 HD
ENDBRANCH   9  12
ENDBRANCH   2   3
BRANCH   1  15
ATOM     15  C   UNL     1       2.008   8.407  18.519  0.00  0.00    +0.000 C 
ATOM     16  O   UNL     1       1.980   9.044  17.468  0.00  0.00    +0.000 OA
BRANCH  15  20
ATOM     17  C   UNL     1       0.253  10.153  22.058  0.00  0.00    +0.000 A 
ATOM     18  C   UNL     1       0.285  10.846  20.848  0.00  0.00    +0.000 A 
ATOM     19  C   UNL     1       0.863  10.267  19.711  0.00  0.00    +0.000 A 
ATOM     20  C   UNL     1       1.431   8.986  19.773  0.00  0.00    +0.000 A 
ATOM     21  C   UNL     1       1.404   8.304  20.997  0.00  0.00    +0.000 A 
ATOM     22  C   UNL     1       0.828   8.886  22.132  0.00  0.00    +0.000 A 
BRANCH  17  24
ATOM     23  C   UNL     1      -1.458  11.625  22.761  0.00  0.00    +0.000 C 
ATOM     24  O   UNL     1      -0.339  10.810  23.100  0.00  0.00    +0.000 OA
ENDBRANCH  17  24
ENDBRANCH  15  20
ENDBRANCH   1  15
TORSDOF 5
ENDMDL
MODEL 7
REMARK VINA RESULT:      -6.9      2.059      3.063
REMARK  Name = 
REMARK  6 active torsions:
REMARK  status: ('A' for Active; 'I' for Inactive)
REMARK    1  A    between atoms: C_1  and  O_2
REMARK    2  A    between atoms: O_2  and  C_3
REMARK    3  A    between atoms: C_6  and  C_7
REMARK    4  A    between atoms: C_7  and  C_9
REMARK    5  A    between atoms: C_10  and  C_11
REMARK    6  A    between atoms: C_17  and  N_18
REMARK                            x       y       z     vdW  Elec       q    Type
REMARK                         _______ _______ _______ _____ _____    ______ ____
ROOT
ATOM      1  C   UNL     1       2.982   6.754  19.022  0.00  0.00    +0.000 C 
ATOM      2  C   UNL     1       3.552   5.574  18.733  0.00  0.00    +0.000 C 
ENDROOT
BRANCH   2   3
ATOM      3  C   UNL     1       4.611   5.483  17.727  0.00  0.00    +0.000 A 
ATOM      4  C   UNL     1       4.674   6.359  16.665  0.00  0.00    +0.000 A 
ATOM      5  N   UNL     1       5.639   6.334  15.724  0.00  0.00    +0.000 NA
ATOM      6  C   UNL     1       6.567   5.384  15.856  0.00  0.00    +0.000 A 
ATOM      7  N   UNL     1       7.563   5.335  14.902  0.00  0.00    +0.000 N 
ATOM      8  N   UNL     1       6.626   4.505  16.860  0.00  0.00    +0.000 NA
ATOM      9  C   UNL     1       5.646   4.555  17.775  0.00  0.00    +0.000 A 
ATOM     10  H   UNL     1       7.664   6.237  14.463  0.00  0.00    +0.000 HD
ATOM     11  H   UNL     1       8.393   4.905  15.288  0.00  0.00    +0.000 HD
BRANCH   9  12
ATOM     12  N   UNL     1       5.769   3.649  18.835  0.00  0.00    +0.000 N 
ATOM     13  H   UNL     1       5.315   4.065  19.645  0.00  0.00    +0.000 HD
ATOM     14  H   UNL     1       6.737   3.413  19.018  0.00  0.00    +0.000 HD
ENDBRANCH   9  12
ENDBRANCH   2   3
BRANCH   1  15
ATOM     15  C   UNL     1       1.966   6.852  20.106  0.00  0.00    +0.000 C 
ATOM     16  O   UNL     1       1.575   5.845  20.692  0.00  0.00    +0.000 OA
BRANCH  15  20
ATOM     17  C   UNL     1       0.498  10.730  21.314  0.00  0.00    +0.000 A 
ATOM     18  C   UNL     1       0.659   9.697  22.236  0.00  0.00    +0.000 A 
ATOM     19  C   UNL     1       1.132   8.444  21.827  0.00  0.00    +0.000 A 
ATOM     20  C   UNL     1       1.439   8.202  20.480  0.00  0.00    +0.000 A 
ATOM     21  C   UNL     1       1.262   9.244  19.559  0.00  0.00    +0.000 A 
ATOM     22  C   UNL     1       0.787  10.494  19.971  0.00  0.00    +0.000 A 
BRANCH  17  24
ATOM     23  C   UNL     1      -1.025  11.805  22.768  0.00  0.00    +0.000 C 
ATOM     24  O   UNL     1       0.036  11.912  21.823  0.00  0.00    +0.000 OA
ENDBRANCH  17  24
ENDBRANCH  15  20
ENDBRANCH   1  15
TORSDOF 5
ENDMDL
MODEL 8
REMARK VINA RESULT:      -6.9      2.702      3.797
REMARK  Name = 
REMARK  6 active torsions:
REMARK  status: ('A' for Active; 'I' for Inactive)
REMARK    1  A    between atoms: C_1  and  O_2
REMARK    2  A    between atoms: O_2  and  C_3
REMARK    3  A    between atoms: C_6  and  C_7
REMARK    4  A    between atoms: C_7  and  C_9
REMARK    5  A    between atoms: C_10  and  C_11
REMARK    6  A    between atoms: C_17  and  N_18
REMARK                            x       y       z     vdW  Elec       q    Type
REMARK                         _______ _______ _______ _____ _____    ______ ____
ROOT
ATOM      1  C   UNL     1       3.503   5.630  18.455  0.00  0.00    +0.000 C 
ATOM      2  C   UNL     1       4.824   5.860  18.439  0.00  0.00    +0.000 C 
ENDROOT
BRANCH   2   3
ATOM      3  C   UNL     1       5.609   5.621  17.226  0.00  0.00    +0.000 A 
ATOM      4  C   UNL     1       5.230   6.143  16.009  0.00  0.00    +0.000 A 
ATOM      5  N   UNL     1       5.927   5.973  14.866  0.00  0.00    +0.000 NA
ATOM      6  C   UNL     1       7.039   5.241  14.959  0.00  0.00    +0.000 A 
ATOM      7  N   UNL     1       7.767   5.049  13.802  0.00  0.00    +0.000 N 
ATOM      8  N   UNL     1       7.520   4.716  16.088  0.00  0.00    +0.000 NA
ATOM      9  C   UNL     1       6.797   4.901  17.204  0.00  0.00    +0.000 A 
ATOM     10  H   UNL     1       7.567   5.786  13.142  0.00  0.00    +0.000 HD
ATOM     11  H   UNL     1       8.737   4.871  14.027  0.00  0.00    +0.000 HD
BRANCH   9  12
ATOM     12  N   UNL     1       7.358   4.376  18.374  0.00  0.00    +0.000 N 
ATOM     13  H   UNL     1       7.782   3.483  18.135  0.00  0.00    +0.000 HD
ATOM     14  H   UNL     1       6.671   4.286  19.114  0.00  0.00    +0.000 HD
ENDBRANCH   9  12
ENDBRANCH   2   3
BRANCH   1  15
ATOM     15  C   UNL     1       2.698   5.956  19.665  0.00  0.00    +0.000 C 
ATOM     16  O   UNL     1       2.589   5.147  20.583  0.00  0.00    +0.000 OA
BRANCH  15  20
ATOM     17  C   UNL     1       0.805   9.819  20.045  0.00  0.00    +0.000 A 
ATOM     18  C   UNL     1       0.832   8.918  21.109  0.00  0.00    +0.000 A 
ATOM     19  C   UNL     1       1.446   7.667  20.967  0.00  0.00    +0.000 A 
ATOM     20  C   UNL     1       2.032   7.294  19.749  0.00  0.00    +0.000 A 
ATOM     21  C   UNL     1       1.988   8.202  18.683  0.00  0.00    +0.000 A 
ATOM     22  C   UNL     1       1.371   9.451  18.827  0.00  0.00    +0.000 A 
BRANCH  17  24
ATOM     23  C   UNL     1      -0.298  11.710  19.152  0.00  0.00    +0.000 C 
ATOM     24  O   UNL     1       0.185  11.012  20.296  0.00  0.00    +0.000 OA
ENDBRANCH  17  24
ENDBRANCH  15  20
ENDBRANCH   1  15
TORSDOF 5
ENDMDL
MODEL 9
REMARK VINA RESULT:      -6.8      2.958      3.994
REMARK  Name = 
REMARK  6 active torsions:
REMARK  status: ('A' for Active; 'I' for Inactive)
REMARK    1  A    between atoms: C_1  and  O_2
REMARK    2  A    between atoms: O_2  and  C_3
REMARK    3  A    between atoms: C_6  and  C_7
REMARK    4  A    between atoms: C_7  and  C_9
REMARK    5  A    between atoms: C_10  and  C_11
REMARK    6  A    between atoms: C_17  and  N_18
REMARK                            x       y       z     vdW  Elec       q    Type
REMARK                         _______ _______ _______ _____ _____    ______ ____
ROOT
ATOM      1  C   UNL     1       3.866   5.922  17.566  0.00  0.00    +0.000 C 
ATOM      2  C   UNL     1       5.028   5.255  17.501  0.00  0.00    +0.000 C 
ENDROOT
BRANCH   2   3
ATOM      3  C   UNL     1       5.694   5.040  16.216  0.00  0.00    +0.000 A 
ATOM      4  C   UNL     1       5.143   4.232  15.245  0.00  0.00    +0.000 A 
ATOM      5  N   UNL     1       5.702   4.017  14.037  0.00  0.00    +0.000 NA
ATOM      6  C   UNL     1       6.864   4.633  13.808  0.00  0.00    +0.000 A 
ATOM      7  N   UNL     1       7.458   4.425  12.580  0.00  0.00    +0.000 N 
ATOM      8  N   UNL     1       7.472   5.463  14.658  0.00  0.00    +0.000 NA
ATOM      9  C   UNL     1       6.890   5.649  15.853  0.00  0.00    +0.000 A 
ATOM     10  H   UNL     1       6.763   4.148  11.903  0.00  0.00    +0.000 HD
ATOM     11  H   UNL     1       8.056   5.206  12.347  0.00  0.00    +0.000 HD
BRANCH   9  12
ATOM     12  N   UNL     1       7.533   6.561  16.698  0.00  0.00    +0.000 N 
ATOM     13  H   UNL     1       8.226   6.044  17.234  0.00  0.00    +0.000 HD
ATOM     14  H   UNL     1       6.876   7.051  17.294  0.00  0.00    +0.000 HD
ENDBRANCH   9  12
ENDBRANCH   2   3
BRANCH   1  15
ATOM     15  C   UNL     1       3.238   6.212  18.885  0.00  0.00    +0.000 C 
ATOM     16  O   UNL     1       3.422   5.466  19.844  0.00  0.00    +0.000 OA
BRANCH  15  20
ATOM     17  C   UNL     1       0.824   9.751  19.430  0.00  0.00    +0.000 A 
ATOM     18  C   UNL     1       1.050   8.860  20.479  0.00  0.00    +0.000 A 
ATOM     19  C   UNL     1       1.832   7.715  20.284  0.00  0.00    +0.000 A 
ATOM     20  C   UNL     1       2.389   7.436  19.027  0.00  0.00    +0.000 A 
ATOM     21  C   UNL     1       2.145   8.332  17.977  0.00  0.00    +0.000 A 
ATOM     22  C   UNL     1       1.362   9.475  18.175  0.00  0.00    +0.000 A 
BRANCH  17  24
ATOM     23  C   UNL     1       0.677  12.107  19.561  0.00  0.00    +0.000 C 
ATOM     24  O   UNL     1       0.052  10.838  19.734  0.00  0.00    +0.000 OA
ENDBRANCH  17  24
ENDBRANCH  15  20
ENDBRANCH   1  15
TORSDOF 5
ENDMDL
