MODEL 1
REMARK VINA RESULT:      -7.4      0.000      0.000
REMARK  Name = 
REMARK  5 active torsions:
REMARK  status: ('A' for Active; 'I' for Inactive)
REMARK    1  A    between atoms: C_1  and  C_2
REMARK    2  A    between atoms: N_4  and  C_5
REMARK    3  A    between atoms: C_5  and  C_6
REMARK    4  A    between atoms: C_10  and  C_11
REMARK    5  A    between atoms: C_10  and  C_12
REMARK                            x       y       z     vdW  Elec       q    Type
REMARK                         _______ _______ _______ _____ _____    ______ ____
ROOT
ATOM      1  C   UNL     1       2.092   7.654  19.548  0.00  0.00    +0.000 C 
ATOM      2  O   UNL     1       1.453   7.852  20.573  0.00  0.00    +0.000 OA
ATOM      3  N   UNL     1       2.777   6.470  19.263  0.00  0.00    +0.000 N 
ATOM      4  C   UNL     1       3.705   6.285  18.145  0.00  0.00    +0.000 C 
ATOM      5  C   UNL     1       4.219   4.829  18.174  0.00  0.00    +0.000 C 
ATOM      6  C   UNL     1       3.901   4.182  16.815  0.00  0.00    +0.000 C 
ATOM      7  C   UNL     1       5.730   4.814  18.421  0.00  0.00    +0.000 C 
ATOM      8  C   UNL     1       3.421   4.253  19.326  0.00  0.00    +0.000 A 
ATOM      9  C   UNL     1       3.383   2.953  19.828  0.00  0.00    +0.000 A 
ATOM     10 CL   UNL     1       4.341   1.675  19.186  0.00  0.00    +0.000 Cl
ATOM     11  C   UNL     1       2.525   2.648  20.891  0.00  0.00    +0.000 A 
ATOM     12  C   UNL     1       1.675   3.623  21.421  0.00  0.00    +0.000 A 
ATOM     13  C   UNL     1       1.697   4.921  20.913  0.00  0.00    +0.000 A 
ATOM     14  C   UNL     1       2.596   5.234  19.901  0.00  0.00    +0.000 A 
ENDROOT
BRANCH   1  15
ATOM     15  C   UNL     1       2.159   8.706  18.406  0.00  0.00    +0.000 C 
BRANCH  15  19
ATOM     16  C   UNL     1      -0.925  11.360  20.070  0.00  0.00    +0.000 C 
ATOM     17  C   UNL     1      -0.666  11.276  18.560  0.00  0.00    +0.000 C 
ATOM     18  C   UNL     1       0.075   9.968  18.188  0.00  0.00    +0.000 C 
ATOM     19  N   UNL     1       1.443   9.950  18.741  0.00  0.00    +0.000 NA
ATOM     20  C   UNL     1       2.188  11.121  18.241  0.00  0.00    +0.000 C 
ATOM     21  C   UNL     1       1.454  12.455  18.510  0.00  0.00    +0.000 C 
ATOM     22  N   UNL     1       0.052  12.467  18.052  0.00  0.00    +0.000 NA
ATOM     23  H   UNL     1       0.060  12.404  17.034  0.00  0.00    +0.000 HD
ENDBRANCH  15  19
ENDBRANCH   1  15
TORSDOF 2
ENDMDL
MODEL 2
REMARK VINA RESULT:      -7.3      1.919      3.477
REMARK  Name = 
REMARK  5 active torsions:
REMARK  status: ('A' for Active; 'I' for Inactive)
REMARK    1  A    between atoms: C_1  and  C_2
REMARK    2  A    between atoms: N_4  and  C_5
REMARK    3  A    between atoms: C_5  and  C_6
REMARK    4  A    between atoms: C_10  and  C_11
REMARK    5  A    between atoms: C_10  and  C_12
REMARK                            x       y       z     vdW  Elec       q    Type
REMARK                         _______ _______ _______ _____ _____    ______ ____
ROOT
ATOM      1  C   UNL     1       1.837   7.624  20.077  0.00  0.00    +0.000 C 
ATOM      2  O   UNL     1       2.111   8.492  19.257  0.00  0.00    +0.000 OA
ATOM      3  N   UNL     1       2.004   6.255  19.860  0.00  0.00    +0.000 N 
ATOM      4  C   UNL     1       1.502   5.197  20.738  0.00  0.00    +0.000 C 
ATOM      5  C   UNL     1       1.926   3.832  20.153  0.00  0.00    +0.000 C 
ATOM      6  C   UNL     1       2.724   3.077  21.229  0.00  0.00    +0.000 C 
ATOM      7  C   UNL     1       0.686   3.026  19.756  0.00  0.00    +0.000 C 
ATOM      8  C   UNL     1       2.762   4.264  18.965  0.00  0.00    +0.000 A 
ATOM      9  C   UNL     1       3.484   3.498  18.050  0.00  0.00    +0.000 A 
ATOM     10 CL   UNL     1       3.530   1.778  18.104  0.00  0.00    +0.000 Cl
ATOM     11  C   UNL     1       4.221   4.135  17.046  0.00  0.00    +0.000 A 
ATOM     12  C   UNL     1       4.276   5.530  16.980  0.00  0.00    +0.000 A 
ATOM     13  C   UNL     1       3.569   6.302  17.901  0.00  0.00    +0.000 A 
ATOM     14  C   UNL     1       2.788   5.665  18.856  0.00  0.00    +0.000 A 
ENDROOT
BRANCH   1  15
ATOM     15  C   UNL     1       1.314   7.973  21.499  0.00  0.00    +0.000 C 
BRANCH  15  19
ATOM     16  C   UNL     1      -0.931  11.440  19.993  0.00  0.00    +0.000 C 
ATOM     17  C   UNL     1       0.167  11.592  21.053  0.00  0.00    +0.000 C 
ATOM     18  C   UNL     1       1.120  10.371  21.056  0.00  0.00    +0.000 C 
ATOM     19  N   UNL     1       0.424   9.148  21.500  0.00  0.00    +0.000 NA
ATOM     20  C   UNL     1      -0.135   9.365  22.849  0.00  0.00    +0.000 C 
ATOM     21  C   UNL     1      -1.031  10.623  22.929  0.00  0.00    +0.000 C 
ATOM     22  N   UNL     1      -0.392  11.844  22.401  0.00  0.00    +0.000 NA
ATOM     23  H   UNL     1       0.389  12.073  23.015  0.00  0.00    +0.000 HD
ENDBRANCH  15  19
ENDBRANCH   1  15
TORSDOF 2
ENDMDL
MODEL 3
REMARK VINA RESULT:      -7.3      1.562      3.159
REMARK  Name = 
REMARK  5 active torsions:
REMARK  status: ('A' for Active; 'I' for Inactive)
REMARK    1  A    between atoms: C_1  and  C_2
REMARK    2  A    between atoms: N_4  and  C_5
REMARK    3  A    between atoms: C_5  and  C_6
REMARK    4  A    between atoms: C_10  and  C_11
REMARK    5  A    between atoms: C_10  and  C_12
REMARK                            x       y       z     vdW  Elec       q    Type
REMARK                         _______ _______ _______ _____ _____    ______ ____
ROOT
ATOM      1  C   UNL     1       2.133   7.632  19.323  0.00  0.00    +0.000 C 
ATOM      2  O   UNL     1       2.539   8.331  18.403  0.00  0.00    +0.000 OA
ATOM      3  N   UNL     1       2.215   6.238  19.350  0.00  0.00    +0.000 N 
ATOM      4  C   UNL     1       1.564   5.377  20.337  0.00  0.00    +0.000 C 
ATOM      5  C   UNL     1       1.933   3.910  20.025  0.00  0.00    +0.000 C 
ATOM      6  C   UNL     1       2.579   3.301  21.281  0.00  0.00    +0.000 C 
ATOM      7  C   UNL     1       0.675   3.122  19.649  0.00  0.00    +0.000 C 
ATOM      8  C   UNL     1       2.896   4.084  18.867  0.00  0.00    +0.000 A 
ATOM      9  C   UNL     1       3.632   3.132  18.163  0.00  0.00    +0.000 A 
ATOM     10 CL   UNL     1       3.546   1.447  18.501  0.00  0.00    +0.000 Cl
ATOM     11  C   UNL     1       4.497   3.546  17.143  0.00  0.00    +0.000 A 
ATOM     12  C   UNL     1       4.661   4.904  16.856  0.00  0.00    +0.000 A 
ATOM     13  C   UNL     1       3.939   5.861  17.567  0.00  0.00    +0.000 A 
ATOM     14  C   UNL     1       3.034   5.442  18.535  0.00  0.00    +0.000 A 
ENDROOT
BRANCH   1  15
ATOM     15  C   UNL     1       1.519   8.247  20.613  0.00  0.00    +0.000 C 
BRANCH  15  19
ATOM     16  C   UNL     1       1.238  12.634  20.576  0.00  0.00    +0.000 C 
ATOM     17  C   UNL     1       0.260  11.773  21.385  0.00  0.00    +0.000 C 
ATOM     18  C   UNL     1       0.836  10.358  21.643  0.00  0.00    +0.000 C 
ATOM     19  N   UNL     1       0.962   9.592  20.387  0.00  0.00    +0.000 NA
ATOM     20  C   UNL     1      -0.360   9.497  19.737  0.00  0.00    +0.000 C 
ATOM     21  C   UNL     1      -1.023  10.879  19.529  0.00  0.00    +0.000 C 
ATOM     22  N   UNL     1      -1.076  11.705  20.750  0.00  0.00    +0.000 NA
ATOM     23  H   UNL     1      -1.701  11.240  21.409  0.00  0.00    +0.000 HD
ENDBRANCH  15  19
ENDBRANCH   1  15
TORSDOF 2
ENDMDL
MODEL 4
REMARK VINA RESULT:      -7.2      3.395      7.147
REMARK  Name = 
REMARK  5 active torsions:
REMARK  status: ('A' for Active; 'I' for Inactive)
REMARK    1  A    between atoms: C_1  and  C_2
REMARK    2  A    between atoms: N_4  and  C_5
REMARK    3  A    between atoms: C_5  and  C_6
REMARK    4  A    between atoms: C_10  and  C_11
REMARK    5  A    between atoms: C_10  and  C_12
REMARK                            x       y       z     vdW  Elec       q    Type
REMARK                         _______ _______ _______ _____ _____    ______ ____
ROOT
ATOM      1  C   UNL     1       2.269   7.429  19.321  0.00  0.00    +0.000 C 
ATOM      2  O   UNL     1       2.346   6.580  20.200  0.00  0.00    +0.000 OA
ATOM      3  N   UNL     1       1.468   8.570  19.396  0.00  0.00    +0.000 N 
ATOM      4  C   UNL     1       1.207   9.488  18.286  0.00  0.00    +0.000 C 
ATOM      5  C   UNL     1       0.300  10.629  18.798  0.00  0.00    +0.000 C 
ATOM      6  C   UNL     1       1.011  11.965  18.526  0.00  0.00    +0.000 C 
ATOM      7  C   UNL     1      -1.046  10.593  18.069  0.00  0.00    +0.000 C 
ATOM      8  C   UNL     1       0.190  10.285  20.270  0.00  0.00    +0.000 A 
ATOM      9  C   UNL     1      -0.452  10.966  21.304  0.00  0.00    +0.000 A 
ATOM     10 CL   UNL     1      -1.329  12.426  21.058  0.00  0.00    +0.000 Cl
ATOM     11  C   UNL     1      -0.380  10.465  22.608  0.00  0.00    +0.000 A 
ATOM     12  C   UNL     1       0.365   9.316  22.890  0.00  0.00    +0.000 A 
ATOM     13  C   UNL     1       1.022   8.640  21.863  0.00  0.00    +0.000 A 
ATOM     14  C   UNL     1       0.895   9.106  20.560  0.00  0.00    +0.000 A 
ENDROOT
BRANCH   1  15
ATOM     15  C   UNL     1       3.120   7.347  18.023  0.00  0.00    +0.000 C 
BRANCH  15  19
ATOM     16  C   UNL     1       7.006   5.450  18.819  0.00  0.00    +0.000 C 
ATOM     17  C   UNL     1       6.437   5.551  17.398  0.00  0.00    +0.000 C 
ATOM     18  C   UNL     1       5.354   6.654  17.303  0.00  0.00    +0.000 C 
ATOM     19  N   UNL     1       4.158   6.302  18.093  0.00  0.00    +0.000 NA
ATOM     20  C   UNL     1       3.620   5.013  17.618  0.00  0.00    +0.000 C 
ATOM     21  C   UNL     1       4.682   3.889  17.611  0.00  0.00    +0.000 C 
ATOM     22  N   UNL     1       5.928   4.250  16.908  0.00  0.00    +0.000 NA
ATOM     23  H   UNL     1       5.701   4.366  15.921  0.00  0.00    +0.000 HD
ENDBRANCH  15  19
ENDBRANCH   1  15
TORSDOF 2
ENDMDL
MODEL 5
REMARK VINA RESULT:      -7.2      3.297      7.289
REMARK  Name = 
REMARK  5 active torsions:
REMARK  status: ('A' for Active; 'I' for Inactive)
REMARK    1  A    between atoms: C_1  and  C_2
REMARK    2  A    between atoms: N_4  and  C_5
REMARK    3  A    between atoms: C_5  and  C_6
REMARK    4  A    between atoms: C_10  and  C_11
REMARK    5  A    between atoms: C_10  and  C_12
REMARK                            x       y       z     vdW  Elec       q    Type
REMARK                         _______ _______ _______ _____ _____    ______ ____
ROOT
ATOM      1  C   UNL     1       1.860   7.138  20.226  0.00  0.00    +0.000 C 
ATOM      2  O   UNL     1       1.655   6.403  21.183  0.00  0.00    +0.000 OA
ATOM      3  N   UNL     1       1.261   8.388  20.049  0.00  0.00    +0.000 N 
ATOM      4  C   UNL     1       1.336   9.190  18.827  0.00  0.00    +0.000 C 
ATOM      5  C   UNL     1       0.565  10.509  19.061  0.00  0.00    +0.000 C 
ATOM      6  C   UNL     1       1.526  11.679  18.788  0.00  0.00    +0.000 C 
ATOM      7  C   UNL     1      -0.637  10.586  18.115  0.00  0.00    +0.000 C 
ATOM      8  C   UNL     1       0.171  10.370  20.517  0.00  0.00    +0.000 A 
ATOM      9  C   UNL     1      -0.501  11.261  21.352  0.00  0.00    +0.000 A 
ATOM     10 CL   UNL     1      -1.070  12.795  20.817  0.00  0.00    +0.000 Cl
ATOM     11  C   UNL     1      -0.720  10.920  22.692  0.00  0.00    +0.000 A 
ATOM     12  C   UNL     1      -0.232   9.717  23.209  0.00  0.00    +0.000 A 
ATOM     13  C   UNL     1       0.453   8.828  22.382  0.00  0.00    +0.000 A 
ATOM     14  C   UNL     1       0.612   9.142  21.038  0.00  0.00    +0.000 A 
ENDROOT
BRANCH   1  15
ATOM     15  C   UNL     1       2.878   6.770  19.110  0.00  0.00    +0.000 C 
BRANCH  15  19
ATOM     16  C   UNL     1       3.962   2.661  20.238  0.00  0.00    +0.000 C 
ATOM     17  C   UNL     1       4.688   3.403  19.109  0.00  0.00    +0.000 C 
ATOM     18  C   UNL     1       4.492   4.935  19.224  0.00  0.00    +0.000 C 
ATOM     19  N   UNL     1       3.085   5.315  18.993  0.00  0.00    +0.000 NA
ATOM     20  C   UNL     1       2.664   4.843  17.659  0.00  0.00    +0.000 C 
ATOM     21  C   UNL     1       2.914   3.331  17.455  0.00  0.00    +0.000 C 
ATOM     22  N   UNL     1       4.291   2.906  17.772  0.00  0.00    +0.000 NA
ATOM     23  H   UNL     1       4.912   3.342  17.090  0.00  0.00    +0.000 HD
ENDBRANCH  15  19
ENDBRANCH   1  15
TORSDOF 2
ENDMDL
MODEL 6
REMARK VINA RESULT:      -7.0      3.346      7.349
REMARK  Name = 
REMARK  5 active torsions:
REMARK  status: ('A' for Active; 'I' for Inactive)
REMARK    1  A    between atoms: C_1  and  C_2
REMARK    2  A    between atoms: N_4  and  C_5
REMARK    3  A    between atoms: C_5  and  C_6
REMARK    4  A    between atoms: C_10  and  C_11
REMARK    5  A    between atoms: C_10  and  C_12
REMARK                            x       y       z     vdW  Elec       q    Type
REMARK                         _______ _______ _______ _____ _____    ______ ____
ROOT
ATOM      1  C   UNL     1       2.316   7.953  18.274  0.00  0.00    +0.000 C 
ATOM      2  O   UNL     1       2.717   8.542  17.278  0.00  0.00    +0.000 OA
ATOM      3  N   UNL     1       1.728   8.578  19.376  0.00  0.00    +0.000 N 
ATOM      4  C   UNL     1       1.425   7.925  20.650  0.00  0.00    +0.000 C 
ATOM      5  C   UNL     1       0.757   8.958  21.583  0.00  0.00    +0.000 C 
ATOM      6  C   UNL     1      -0.605   8.394  22.025  0.00  0.00    +0.000 C 
ATOM      7  C   UNL     1       1.643   9.208  22.806  0.00  0.00    +0.000 C 
ATOM      8  C   UNL     1       0.650  10.161  20.668  0.00  0.00    +0.000 A 
ATOM      9  C   UNL     1       0.080  11.413  20.895  0.00  0.00    +0.000 A 
ATOM     10 CL   UNL     1      -0.639  11.853  22.396  0.00  0.00    +0.000 Cl
ATOM     11  C   UNL     1       0.069  12.363  19.868  0.00  0.00    +0.000 A 
ATOM     12  C   UNL     1       0.582  12.053  18.605  0.00  0.00    +0.000 A 
ATOM     13  C   UNL     1       1.140  10.798  18.367  0.00  0.00    +0.000 A 
ATOM     14  C   UNL     1       1.206   9.880  19.408  0.00  0.00    +0.000 A 
ENDROOT
BRANCH   1  15
ATOM     15  C   UNL     1       2.371   6.404  18.389  0.00  0.00    +0.000 C 
BRANCH  15  19
ATOM     16  C   UNL     1       5.824   4.948  16.091  0.00  0.00    +0.000 C 
ATOM     17  C   UNL     1       5.072   4.041  17.072  0.00  0.00    +0.000 C 
ATOM     18  C   UNL     1       3.654   4.587  17.370  0.00  0.00    +0.000 C 
ATOM     19  N   UNL     1       3.713   5.864  18.108  0.00  0.00    +0.000 NA
ATOM     20  C   UNL     1       4.461   5.668  19.365  0.00  0.00    +0.000 C 
ATOM     21  C   UNL     1       5.858   5.045  19.138  0.00  0.00    +0.000 C 
ATOM     22  N   UNL     1       5.837   3.816  18.320  0.00  0.00    +0.000 NA
ATOM     23  H   UNL     1       5.344   3.100  18.853  0.00  0.00    +0.000 HD
ENDBRANCH  15  19
ENDBRANCH   1  15
TORSDOF 2
ENDMDL
MODEL 7
REMARK VINA RESULT:      -6.9      1.064      1.298
REMARK  Name = 
REMARK  5 active torsions:
REMARK  status: ('A' for Active; 'I' for Inactive)
REMARK    1  A    between atoms: C_1  and  C_2
REMARK    2  A    between atoms: N_4  and  C_5
REMARK    3  A    between atoms: C_5  and  C_6
REMARK    4  A    between atoms: C_10  and  C_11
REMARK    5  A    between atoms: C_10  and  C_12
REMARK                            x       y       z     vdW  Elec       q    Type
REMARK                         _______ _______ _______ _____ _____    ______ ____
ROOT
ATOM      1  C   UNL     1       1.691   7.315  20.316  0.00  0.00    +0.000 C 
ATOM      2  O   UNL     1       0.888   7.205  21.234  0.00  0.00    +0.000 OA
ATOM      3  N   UNL     1       2.416   6.252  19.774  0.00  0.00    +0.000 N 
ATOM      4  C   UNL     1       3.518   6.387  18.820  0.00  0.00    +0.000 C 
ATOM      5  C   UNL     1       4.024   4.974  18.453  0.00  0.00    +0.000 C 
ATOM      6  C   UNL     1       3.940   4.817  16.925  0.00  0.00    +0.000 C 
ATOM      7  C   UNL     1       5.472   4.800  18.919  0.00  0.00    +0.000 C 
ATOM      8  C   UNL     1       3.044   4.101  19.211  0.00  0.00    +0.000 A 
ATOM      9  C   UNL     1       2.925   2.712  19.249  0.00  0.00    +0.000 A 
ATOM     10 CL   UNL     1       3.979   1.660  18.386  0.00  0.00    +0.000 Cl
ATOM     11  C   UNL     1       1.901   2.128  20.003  0.00  0.00    +0.000 A 
ATOM     12  C   UNL     1       0.972   2.924  20.679  0.00  0.00    +0.000 A 
ATOM     13  C   UNL     1       1.077   4.313  20.633  0.00  0.00    +0.000 A 
ATOM     14  C   UNL     1       2.133   4.887  19.936  0.00  0.00    +0.000 A 
ENDROOT
BRANCH   1  15
ATOM     15  C   UNL     1       1.947   8.674  19.606  0.00  0.00    +0.000 C 
BRANCH  15  19
ATOM     16  C   UNL     1      -1.966  10.240  18.357  0.00  0.00    +0.000 C 
ATOM     17  C   UNL     1      -0.693  11.090  18.261  0.00  0.00    +0.000 C 
ATOM     18  C   UNL     1       0.577  10.203  18.276  0.00  0.00    +0.000 C 
ATOM     19  N   UNL     1       0.748   9.531  19.578  0.00  0.00    +0.000 NA
ATOM     20  C   UNL     1       0.818  10.546  20.648  0.00  0.00    +0.000 C 
ATOM     21  C   UNL     1      -0.386  11.516  20.630  0.00  0.00    +0.000 C 
ATOM     22  N   UNL     1      -0.638  12.130  19.313  0.00  0.00    +0.000 NA
ATOM     23  H   UNL     1       0.155  12.735  19.099  0.00  0.00    +0.000 HD
ENDBRANCH  15  19
ENDBRANCH   1  15
TORSDOF 2
ENDMDL
MODEL 8
REMARK VINA RESULT:      -6.7      3.355      6.792
REMARK  Name = 
REMARK  5 active torsions:
REMARK  status: ('A' for Active; 'I' for Inactive)
REMARK    1  A    between atoms: C_1  and  C_2
REMARK    2  A    between atoms: N_4  and  C_5
REMARK    3  A    between atoms: C_5  and  C_6
REMARK    4  A    between atoms: C_10  and  C_11
REMARK    5  A    between atoms: C_10  and  C_12
REMARK                            x       y       z     vdW  Elec       q    Type
REMARK                         _______ _______ _______ _____ _____    ______ ____
ROOT
ATOM      1  C   UNL     1       2.568   6.561  19.201  0.00  0.00    +0.000 C 
ATOM      2  O   UNL     1       2.528   5.803  20.162  0.00  0.00    +0.000 OA
ATOM      3  N   UNL     1       1.934   7.805  19.153  0.00  0.00    +0.000 N 
ATOM      4  C   UNL     1       1.802   8.634  17.954  0.00  0.00    +0.000 C 
ATOM      5  C   UNL     1       1.065   9.936  18.339  0.00  0.00    +0.000 C 
ATOM      6  C   UNL     1       1.955  11.126  17.944  0.00  0.00    +0.000 C 
ATOM      7  C   UNL     1      -0.275  10.015  17.601  0.00  0.00    +0.000 C 
ATOM      8  C   UNL     1       0.911   9.760  19.837  0.00  0.00    +0.000 A 
ATOM      9  C   UNL     1       0.372  10.623  20.790  0.00  0.00    +0.000 A 
ATOM     10 CL   UNL     1      -0.293  12.159  20.389  0.00  0.00    +0.000 Cl
ATOM     11  C   UNL     1       0.376  10.250  22.139  0.00  0.00    +0.000 A 
ATOM     12  C   UNL     1       0.954   9.043  22.542  0.00  0.00    +0.000 A 
ATOM     13  C   UNL     1       1.508   8.183  21.595  0.00  0.00    +0.000 A 
ATOM     14  C   UNL     1       1.445   8.529  20.251  0.00  0.00    +0.000 A 
ENDROOT
BRANCH   1  15
ATOM     15  C   UNL     1       3.397   6.232  17.928  0.00  0.00    +0.000 C 
BRANCH  15  19
ATOM     16  C   UNL     1       7.479   7.834  17.612  0.00  0.00    +0.000 C 
ATOM     17  C   UNL     1       7.134   6.416  17.141  0.00  0.00    +0.000 C 
ATOM     18  C   UNL     1       5.613   6.260  16.891  0.00  0.00    +0.000 C 
ATOM     19  N   UNL     1       4.848   6.367  18.149  0.00  0.00    +0.000 NA
ATOM     20  C   UNL     1       5.320   5.338  19.097  0.00  0.00    +0.000 C 
ATOM     21  C   UNL     1       6.849   5.390  19.322  0.00  0.00    +0.000 C 
ATOM     22  N   UNL     1       7.636   5.382  18.074  0.00  0.00    +0.000 NA
ATOM     23  H   UNL     1       7.495   4.476  17.627  0.00  0.00    +0.000 HD
ENDBRANCH  15  19
ENDBRANCH   1  15
TORSDOF 2
ENDMDL
MODEL 9
REMARK VINA RESULT:      -6.6      1.371      2.857
REMARK  Name = 
REMARK  5 active torsions:
REMARK  status: ('A' for Active; 'I' for Inactive)
REMARK    1  A    between atoms: C_1  and  C_2
REMARK    2  A    between atoms: N_4  and  C_5
REMARK    3  A    between atoms: C_5  and  C_6
REMARK    4  A    between atoms: C_10  and  C_11
REMARK    5  A    between atoms: C_10  and  C_12
REMARK                            x       y       z     vdW  Elec       q    Type
REMARK                         _______ _______ _______ _____ _____    ______ ____
ROOT
ATOM      1  C   UNL     1       2.305   7.806  18.891  0.00  0.00    +0.000 C 
ATOM      2  O   UNL     1       2.767   8.432  17.945  0.00  0.00    +0.000 OA
ATOM      3  N   UNL     1       2.342   6.415  19.009  0.00  0.00    +0.000 N 
ATOM      4  C   UNL     1       1.628   5.638  20.022  0.00  0.00    +0.000 C 
ATOM      5  C   UNL     1       1.962   4.143  19.818  0.00  0.00    +0.000 C 
ATOM      6  C   UNL     1       2.542   3.598  21.135  0.00  0.00    +0.000 C 
ATOM      7  C   UNL     1       0.694   3.371  19.444  0.00  0.00    +0.000 C 
ATOM      8  C   UNL     1       2.971   4.215  18.690  0.00  0.00    +0.000 A 
ATOM      9  C   UNL     1       3.703   3.199  18.077  0.00  0.00    +0.000 A 
ATOM     10 CL   UNL     1       3.551   1.542  18.517  0.00  0.00    +0.000 Cl
ATOM     11  C   UNL     1       4.617   3.520  17.067  0.00  0.00    +0.000 A 
ATOM     12  C   UNL     1       4.835   4.851  16.701  0.00  0.00    +0.000 A 
ATOM     13  C   UNL     1       4.117   5.873  17.321  0.00  0.00    +0.000 A 
ATOM     14  C   UNL     1       3.165   5.543  18.278  0.00  0.00    +0.000 A 
ENDROOT
BRANCH   1  15
ATOM     15  C   UNL     1       1.664   8.520  20.114  0.00  0.00    +0.000 C 
BRANCH  15  19
ATOM     16  C   UNL     1      -2.027  10.094  18.319  0.00  0.00    +0.000 C 
ATOM     17  C   UNL     1      -0.643  10.577  17.865  0.00  0.00    +0.000 C 
ATOM     18  C   UNL     1       0.462   9.565  18.258  0.00  0.00    +0.000 C 
ATOM     19  N   UNL     1       0.624   9.487  19.723  0.00  0.00    +0.000 NA
ATOM     20  C   UNL     1       0.944  10.827  20.252  0.00  0.00    +0.000 C 
ATOM     21  C   UNL     1      -0.083  11.900  19.821  0.00  0.00    +0.000 C 
ATOM     22  N   UNL     1      -0.335  11.935  18.367  0.00  0.00    +0.000 NA
ATOM     23  H   UNL     1       0.526  12.238  17.913  0.00  0.00    +0.000 HD
ENDBRANCH  15  19
ENDBRANCH   1  15
TORSDOF 2
ENDMDL
