MODEL 1
REMARK VINA RESULT:      -6.8      0.000      0.000
REMARK  Name = 
REMARK  7 active torsions:
REMARK  status: ('A' for Active; 'I' for Inactive)
REMARK    1  A    between atoms: C_1  and  N_2
REMARK    2  A    between atoms: N_2  and  C_3
REMARK    3  A    between atoms: N_2  and  C_12
REMARK    4  A    between atoms: C_14  and  C_15
REMARK    5  A    between atoms: C_15  and  S_16
REMARK    6  A    between atoms: S_16  and  C_19
REMARK    7  A    between atoms: C_22  and  C_23
REMARK                            x       y       z     vdW  Elec       q    Type
REMARK                         _______ _______ _______ _____ _____    ______ ____
ROOT
ATOM      1  C   UNL     1       1.768   6.678  18.874  0.00  0.00    +0.000 C 
ATOM      2  C   UNL     1       2.600   5.704  18.018  0.00  0.00    +0.000 C 
ATOM      3  C   UNL     1       3.616   5.539  19.169  0.00  0.00    +0.000 C 
ATOM      4  C   UNL     1       2.582   6.212  20.108  0.00  0.00    +0.000 C 
ENDROOT
BRANCH   1   6
ATOM      5  C   UNL     1       2.929   8.653  17.770  0.00  0.00    +0.000 C 
ATOM      6  N   UNL     1       1.895   8.098  18.638  0.00  0.00    +0.000 N 
BRANCH   6   7
ATOM      7  C   UNL     1       1.008   9.081  19.147  0.00  0.00    +0.000 A 
ATOM      8  N   UNL     1       0.334   9.870  18.256  0.00  0.00    +0.000 NA
ATOM      9  C   UNL     1      -0.510  10.819  18.703  0.00  0.00    +0.000 A 
ATOM     10  N   UNL     1      -0.805  11.128  19.971  0.00  0.00    +0.000 NA
ATOM     11  C   UNL     1      -0.147  10.337  20.827  0.00  0.00    +0.000 A 
ATOM     12  N   UNL     1      -0.274  10.424  22.186  0.00  0.00    +0.000 N 
ATOM     13  C   UNL     1       0.478   9.450  22.784  0.00  0.00    +0.000 A 
ATOM     14  C   UNL     1       1.112   8.746  21.781  0.00  0.00    +0.000 A 
ATOM     15  C   UNL     1       0.745   9.315  20.522  0.00  0.00    +0.000 A 
ATOM     16  H   UNL     1      -0.860  11.101  22.653  0.00  0.00    +0.000 HD
ENDBRANCH   6   7
ENDBRANCH   1   6
BRANCH   3  17
ATOM     17  C   UNL     1       4.938   6.249  18.922  0.00  0.00    +0.000 C 
BRANCH  17  18
ATOM     18  S   UNL     1       6.310   5.109  18.917  0.00  0.00    +0.000 S 
ATOM     19  O   UNL     1       7.226   5.494  19.970  0.00  0.00    +0.000 OA
ATOM     20  O   UNL     1       5.759   3.768  18.864  0.00  0.00    +0.000 OA
BRANCH  18  21
ATOM     21  C   UNL     1       7.112   5.430  17.337  0.00  0.00    +0.000 C 
ATOM     22  C   UNL     1       6.345   6.457  16.509  0.00  0.00    +0.000 C 
ATOM     23  C   UNL     1       5.280   5.634  15.795  0.00  0.00    +0.000 C 
ATOM     24  C   UNL     1       5.965   4.306  15.466  0.00  0.00    +0.000 C 
ATOM     25  C   UNL     1       7.164   4.197  16.429  0.00  0.00    +0.000 C 
BRANCH  24  26
ATOM     26  C   UNL     1       6.420   4.281  14.070  0.00  0.00    +0.000 C 
ATOM     27  N   UNL     1       6.797   4.247  12.972  0.00  0.00    +0.000 NA
ENDBRANCH  24  26
ENDBRANCH  18  21
ENDBRANCH  17  18
ENDBRANCH   3  17
TORSDOF 6
ENDMDL
MODEL 2
REMARK VINA RESULT:      -6.7      3.636      8.455
REMARK  Name = 
REMARK  7 active torsions:
REMARK  status: ('A' for Active; 'I' for Inactive)
REMARK    1  A    between atoms: C_1  and  N_2
REMARK    2  A    between atoms: N_2  and  C_3
REMARK    3  A    between atoms: N_2  and  C_12
REMARK    4  A    between atoms: C_14  and  C_15
REMARK    5  A    between atoms: C_15  and  S_16
REMARK    6  A    between atoms: S_16  and  C_19
REMARK    7  A    between atoms: C_22  and  C_23
REMARK                            x       y       z     vdW  Elec       q    Type
REMARK                         _______ _______ _______ _____ _____    ______ ____
ROOT
ATOM      1  C   UNL     1       3.099   6.666  17.547  0.00  0.00    +0.000 C 
ATOM      2  C   UNL     1       1.603   6.958  17.779  0.00  0.00    +0.000 C 
ATOM      3  C   UNL     1       1.943   8.384  18.262  0.00  0.00    +0.000 C 
ATOM      4  C   UNL     1       3.365   8.187  17.678  0.00  0.00    +0.000 C 
ENDROOT
BRANCH   1   6
ATOM      5  C   UNL     1       3.168   5.331  19.710  0.00  0.00    +0.000 C 
ATOM      6  N   UNL     1       3.821   5.895  18.534  0.00  0.00    +0.000 N 
BRANCH   6   7
ATOM      7  C   UNL     1       5.192   5.547  18.435  0.00  0.00    +0.000 A 
ATOM      8  N   UNL     1       5.963   5.624  19.563  0.00  0.00    +0.000 NA
ATOM      9  C   UNL     1       7.271   5.309  19.506  0.00  0.00    +0.000 A 
ATOM     10  N   UNL     1       7.976   4.908  18.442  0.00  0.00    +0.000 NA
ATOM     11  C   UNL     1       7.202   4.826  17.352  0.00  0.00    +0.000 A 
ATOM     12  N   UNL     1       7.663   4.426  16.128  0.00  0.00    +0.000 N 
ATOM     13  C   UNL     1       6.627   4.391  15.235  0.00  0.00    +0.000 A 
ATOM     14  C   UNL     1       5.492   4.799  15.903  0.00  0.00    +0.000 A 
ATOM     15  C   UNL     1       5.845   5.108  17.254  0.00  0.00    +0.000 A 
ATOM     16  H   UNL     1       8.624   4.177  15.944  0.00  0.00    +0.000 HD
ENDBRANCH   6   7
ENDBRANCH   1   6
BRANCH   3  17
ATOM     17  C   UNL     1       1.797   8.569  19.765  0.00  0.00    +0.000 C 
BRANCH  17  18
ATOM     18  S   UNL     1       0.588   9.819  20.163  0.00  0.00    +0.000 S 
ATOM     19  O   UNL     1      -0.506   9.187  20.868  0.00  0.00    +0.000 OA
ATOM     20  O   UNL     1       1.301  10.939  20.748  0.00  0.00    +0.000 OA
BRANCH  18  21
ATOM     21  C   UNL     1      -0.017  10.342  18.550  0.00  0.00    +0.000 C 
ATOM     22  C   UNL     1      -0.189  11.857  18.472  0.00  0.00    +0.000 C 
ATOM     23  C   UNL     1      -1.571  12.103  19.063  0.00  0.00    +0.000 C 
ATOM     24  C   UNL     1      -2.414  10.915  18.596  0.00  0.00    +0.000 C 
ATOM     25  C   UNL     1      -1.413   9.802  18.228  0.00  0.00    +0.000 C 
BRANCH  24  26
ATOM     26  C   UNL     1      -3.234  11.278  17.432  0.00  0.00    +0.000 C 
ATOM     27  N   UNL     1      -3.900  11.553  16.522  0.00  0.00    +0.000 NA
ENDBRANCH  24  26
ENDBRANCH  18  21
ENDBRANCH  17  18
ENDBRANCH   3  17
TORSDOF 6
ENDMDL
MODEL 3
REMARK VINA RESULT:      -6.7      0.761      1.795
REMARK  Name = 
REMARK  7 active torsions:
REMARK  status: ('A' for Active; 'I' for Inactive)
REMARK    1  A    between atoms: C_1  and  N_2
REMARK    2  A    between atoms: N_2  and  C_3
REMARK    3  A    between atoms: N_2  and  C_12
REMARK    4  A    between atoms: C_14  and  C_15
REMARK    5  A    between atoms: C_15  and  S_16
REMARK    6  A    between atoms: S_16  and  C_19
REMARK    7  A    between atoms: C_22  and  C_23
REMARK                            x       y       z     vdW  Elec       q    Type
REMARK                         _______ _______ _______ _____ _____    ______ ____
ROOT
ATOM      1  C   UNL     1       1.625   6.679  18.982  0.00  0.00    +0.000 C 
ATOM      2  C   UNL     1       2.499   5.792  18.075  0.00  0.00    +0.000 C 
ATOM      3  C   UNL     1       3.456   5.505  19.252  0.00  0.00    +0.000 C 
ATOM      4  C   UNL     1       2.376   6.085  20.201  0.00  0.00    +0.000 C 
ENDROOT
BRANCH   1   6
ATOM      5  C   UNL     1       2.578   8.759  17.872  0.00  0.00    +0.000 C 
ATOM      6  N   UNL     1       1.766   8.115  18.898  0.00  0.00    +0.000 N 
BRANCH   6   7
ATOM      7  C   UNL     1       1.087   9.039  19.734  0.00  0.00    +0.000 A 
ATOM      8  N   UNL     1       1.496   9.157  21.035  0.00  0.00    +0.000 NA
ATOM      9  C   UNL     1       0.871  10.019  21.859  0.00  0.00    +0.000 A 
ATOM     10  N   UNL     1      -0.160  10.825  21.582  0.00  0.00    +0.000 NA
ATOM     11  C   UNL     1      -0.536  10.705  20.302  0.00  0.00    +0.000 A 
ATOM     12  N   UNL     1      -1.557  11.425  19.745  0.00  0.00    +0.000 N 
ATOM     13  C   UNL     1      -1.662  11.122  18.415  0.00  0.00    +0.000 A 
ATOM     14  C   UNL     1      -0.703  10.172  18.131  0.00  0.00    +0.000 A 
ATOM     15  C   UNL     1       0.011   9.873  19.333  0.00  0.00    +0.000 A 
ATOM     16  H   UNL     1      -2.117  12.092  20.255  0.00  0.00    +0.000 HD
ENDBRANCH   6   7
ENDBRANCH   1   6
BRANCH   3  17
ATOM     17  C   UNL     1       4.789   6.229  19.145  0.00  0.00    +0.000 C 
BRANCH  17  18
ATOM     18  S   UNL     1       6.146   5.089  18.940  0.00  0.00    +0.000 S 
ATOM     19  O   UNL     1       7.158   5.403  19.926  0.00  0.00    +0.000 OA
ATOM     20  O   UNL     1       5.581   3.756  18.853  0.00  0.00    +0.000 OA
BRANCH  18  21
ATOM     21  C   UNL     1       6.801   5.510  17.317  0.00  0.00    +0.000 C 
ATOM     22  C   UNL     1       5.770   6.239  16.460  0.00  0.00    +0.000 C 
ATOM     23  C   UNL     1       4.951   5.119  15.832  0.00  0.00    +0.000 C 
ATOM     24  C   UNL     1       5.961   4.003  15.555  0.00  0.00    +0.000 C 
ATOM     25  C   UNL     1       7.163   4.280  16.478  0.00  0.00    +0.000 C 
BRANCH  24  26
ATOM     26  C   UNL     1       6.377   4.010  14.146  0.00  0.00    +0.000 C 
ATOM     27  N   UNL     1       6.696   4.036  13.030  0.00  0.00    +0.000 NA
ENDBRANCH  24  26
ENDBRANCH  18  21
ENDBRANCH  17  18
ENDBRANCH   3  17
TORSDOF 6
ENDMDL
MODEL 4
REMARK VINA RESULT:      -6.6      2.457      3.911
REMARK  Name = 
REMARK  7 active torsions:
REMARK  status: ('A' for Active; 'I' for Inactive)
REMARK    1  A    between atoms: C_1  and  N_2
REMARK    2  A    between atoms: N_2  and  C_3
REMARK    3  A    between atoms: N_2  and  C_12
REMARK    4  A    between atoms: C_14  and  C_15
REMARK    5  A    between atoms: C_15  and  S_16
REMARK    6  A    between atoms: S_16  and  C_19
REMARK    7  A    between atoms: C_22  and  C_23
REMARK                            x       y       z     vdW  Elec       q    Type
REMARK                         _______ _______ _______ _____ _____    ______ ____
ROOT
ATOM      1  C   UNL     1       0.103   9.740  21.268  0.00  0.00    +0.000 C 
ATOM      2  C   UNL     1      -0.232   8.250  21.067  0.00  0.00    +0.000 C 
ATOM      3  C   UNL     1       1.269   7.892  21.115  0.00  0.00    +0.000 C 
ATOM      4  C   UNL     1       1.536   9.313  21.675  0.00  0.00    +0.000 C 
ENDROOT
BRANCH   1   6
ATOM      5  C   UNL     1       1.283  11.361  19.704  0.00  0.00    +0.000 C 
ATOM      6  N   UNL     1       0.098  10.618  20.120  0.00  0.00    +0.000 N 
BRANCH   6   7
ATOM      7  C   UNL     1      -1.006  10.793  19.246  0.00  0.00    +0.000 A 
ATOM      8  N   UNL     1      -0.993  10.135  18.046  0.00  0.00    +0.000 NA
ATOM      9  C   UNL     1      -2.020  10.284  17.189  0.00  0.00    +0.000 A 
ATOM     10  N   UNL     1      -3.120  11.029  17.341  0.00  0.00    +0.000 NA
ATOM     11  C   UNL     1      -3.120  11.654  18.526  0.00  0.00    +0.000 A 
ATOM     12  N   UNL     1      -4.133  12.470  18.948  0.00  0.00    +0.000 N 
ATOM     13  C   UNL     1      -3.871  12.912  20.216  0.00  0.00    +0.000 A 
ATOM     14  C   UNL     1      -2.654  12.383  20.594  0.00  0.00    +0.000 A 
ATOM     15  C   UNL     1      -2.145  11.595  19.514  0.00  0.00    +0.000 A 
ATOM     16  H   UNL     1      -4.953  12.679  18.397  0.00  0.00    +0.000 HD
ENDBRANCH   6   7
ENDBRANCH   1   6
BRANCH   3  17
ATOM     17  C   UNL     1       1.853   7.528  19.758  0.00  0.00    +0.000 C 
BRANCH  17  18
ATOM     18  S   UNL     1       2.380   5.825  19.700  0.00  0.00    +0.000 S 
ATOM     19  O   UNL     1       3.703   5.737  20.281  0.00  0.00    +0.000 OA
ATOM     20  O   UNL     1       1.289   5.016  20.211  0.00  0.00    +0.000 OA
BRANCH  18  21
ATOM     21  C   UNL     1       2.523   5.493  17.936  0.00  0.00    +0.000 C 
ATOM     22  C   UNL     1       2.362   4.008  17.623  0.00  0.00    +0.000 C 
ATOM     23  C   UNL     1       3.756   3.431  17.839  0.00  0.00    +0.000 C 
ATOM     24  C   UNL     1       4.711   4.521  17.347  0.00  0.00    +0.000 C 
ATOM     25  C   UNL     1       3.905   5.834  17.371  0.00  0.00    +0.000 C 
BRANCH  24  26
ATOM     26  C   UNL     1       5.184   4.229  15.987  0.00  0.00    +0.000 C 
ATOM     27  N   UNL     1       5.562   3.976  14.918  0.00  0.00    +0.000 NA
ENDBRANCH  24  26
ENDBRANCH  18  21
ENDBRANCH  17  18
ENDBRANCH   3  17
TORSDOF 6
ENDMDL
MODEL 5
REMARK VINA RESULT:      -6.5      4.386      9.324
REMARK  Name = 
REMARK  7 active torsions:
REMARK  status: ('A' for Active; 'I' for Inactive)
REMARK    1  A    between atoms: C_1  and  N_2
REMARK    2  A    between atoms: N_2  and  C_3
REMARK    3  A    between atoms: N_2  and  C_12
REMARK    4  A    between atoms: C_14  and  C_15
REMARK    5  A    between atoms: C_15  and  S_16
REMARK    6  A    between atoms: S_16  and  C_19
REMARK    7  A    between atoms: C_22  and  C_23
REMARK                            x       y       z     vdW  Elec       q    Type
REMARK                         _______ _______ _______ _____ _____    ______ ____
ROOT
ATOM      1  C   UNL     1       1.550   8.924  17.697  0.00  0.00    +0.000 C 
ATOM      2  C   UNL     1       0.201   9.545  18.107  0.00  0.00    +0.000 C 
ATOM      3  C   UNL     1       0.925  10.801  18.639  0.00  0.00    +0.000 C 
ATOM      4  C   UNL     1       2.196  10.319  17.894  0.00  0.00    +0.000 C 
ENDROOT
BRANCH   1   6
ATOM      5  C   UNL     1       1.849   7.837  19.977  0.00  0.00    +0.000 C 
ATOM      6  N   UNL     1       2.144   7.920  18.551  0.00  0.00    +0.000 N 
BRANCH   6   7
ATOM      7  C   UNL     1       2.999   6.882  18.097  0.00  0.00    +0.000 A 
ATOM      8  N   UNL     1       4.229   7.226  17.606  0.00  0.00    +0.000 NA
ATOM      9  C   UNL     1       5.064   6.268  17.158  0.00  0.00    +0.000 A 
ATOM     10  N   UNL     1       4.857   4.947  17.116  0.00  0.00    +0.000 NA
ATOM     11  C   UNL     1       3.654   4.631  17.613  0.00  0.00    +0.000 A 
ATOM     12  N   UNL     1       3.189   3.348  17.705  0.00  0.00    +0.000 N 
ATOM     13  C   UNL     1       1.959   3.345  18.304  0.00  0.00    +0.000 A 
ATOM     14  C   UNL     1       1.629   4.656  18.575  0.00  0.00    +0.000 A 
ATOM     15  C   UNL     1       2.691   5.497  18.117  0.00  0.00    +0.000 A 
ATOM     16  H   UNL     1       3.706   2.540  17.391  0.00  0.00    +0.000 HD
ENDBRANCH   6   7
ENDBRANCH   1   6
BRANCH   3  17
ATOM     17  C   UNL     1       0.965  10.884  20.157  0.00  0.00    +0.000 C 
BRANCH  17  18
ATOM     18  S   UNL     1       0.092  12.316  20.764  0.00  0.00    +0.000 S 
ATOM     19  O   UNL     1       0.782  12.808  21.937  0.00  0.00    +0.000 OA
ATOM     20  O   UNL     1      -0.157  13.185  19.629  0.00  0.00    +0.000 OA
BRANCH  18  21
ATOM     21  C   UNL     1      -1.494  11.645  21.292  0.00  0.00    +0.000 C 
ATOM     22  C   UNL     1      -2.654  12.556  20.902  0.00  0.00    +0.000 C 
ATOM     23  C   UNL     1      -2.718  13.577  22.030  0.00  0.00    +0.000 C 
ATOM     24  C   UNL     1      -2.369  12.788  23.294  0.00  0.00    +0.000 C 
ATOM     25  C   UNL     1      -1.620  11.529  22.814  0.00  0.00    +0.000 C 
BRANCH  24  26
ATOM     26  C   UNL     1      -3.582  12.418  24.034  0.00  0.00    +0.000 C 
ATOM     27  N   UNL     1      -4.554  12.130  24.600  0.00  0.00    +0.000 NA
ENDBRANCH  24  26
ENDBRANCH  18  21
ENDBRANCH  17  18
ENDBRANCH   3  17
TORSDOF 6
ENDMDL
MODEL 6
REMARK VINA RESULT:      -6.5      3.141      8.054
REMARK  Name = 
REMARK  7 active torsions:
REMARK  status: ('A' for Active; 'I' for Inactive)
REMARK    1  A    between atoms: C_1  and  N_2
REMARK    2  A    between atoms: N_2  and  C_3
REMARK    3  A    between atoms: N_2  and  C_12
REMARK    4  A    between atoms: C_14  and  C_15
REMARK    5  A    between atoms: C_15  and  S_16
REMARK    6  A    between atoms: S_16  and  C_19
REMARK    7  A    between atoms: C_22  and  C_23
REMARK                            x       y       z     vdW  Elec       q    Type
REMARK                         _______ _______ _______ _____ _____    ______ ____
ROOT
ATOM      1  C   UNL     1       2.762   4.938  18.092  0.00  0.00    +0.000 C 
ATOM      2  C   UNL     1       1.494   5.045  18.961  0.00  0.00    +0.000 C 
ATOM      3  C   UNL     1       1.687   6.572  19.081  0.00  0.00    +0.000 C 
ATOM      4  C   UNL     1       2.717   6.479  17.926  0.00  0.00    +0.000 C 
ENDROOT
BRANCH   1   6
ATOM      5  C   UNL     1       4.015   3.462  19.741  0.00  0.00    +0.000 C 
ATOM      6  N   UNL     1       3.992   4.488  18.705  0.00  0.00    +0.000 N 
BRANCH   6   7
ATOM      7  C   UNL     1       5.286   4.927  18.324  0.00  0.00    +0.000 A 
ATOM      8  N   UNL     1       6.130   5.380  19.301  0.00  0.00    +0.000 NA
ATOM      9  C   UNL     1       7.363   5.812  18.976  0.00  0.00    +0.000 A 
ATOM     10  N   UNL     1       7.922   5.871  17.762  0.00  0.00    +0.000 NA
ATOM     11  C   UNL     1       7.087   5.411  16.822  0.00  0.00    +0.000 A 
ATOM     12  N   UNL     1       7.409   5.343  15.494  0.00  0.00    +0.000 N 
ATOM     13  C   UNL     1       6.375   4.779  14.798  0.00  0.00    +0.000 A 
ATOM     14  C   UNL     1       5.369   4.506  15.701  0.00  0.00    +0.000 A 
ATOM     15  C   UNL     1       5.796   4.927  16.999  0.00  0.00    +0.000 A 
ATOM     16  H   UNL     1       8.293   5.649  15.115  0.00  0.00    +0.000 HD
ENDBRANCH   6   7
ENDBRANCH   1   6
BRANCH   3  17
ATOM     17  C   UNL     1       2.173   7.019  20.451  0.00  0.00    +0.000 C 
BRANCH  17  18
ATOM     18  S   UNL     1       1.143   8.306  21.131  0.00  0.00    +0.000 S 
ATOM     19  O   UNL     1      -0.203   7.790  21.264  0.00  0.00    +0.000 OA
ATOM     20  O   UNL     1       1.842   8.862  22.273  0.00  0.00    +0.000 OA
BRANCH  18  21
ATOM     21  C   UNL     1       1.132   9.559  19.837  0.00  0.00    +0.000 C 
ATOM     22  C   UNL     1       1.071  10.970  20.415  0.00  0.00    +0.000 C 
ATOM     23  C   UNL     1      -0.415  11.210  20.650  0.00  0.00    +0.000 C 
ATOM     24  C   UNL     1      -1.114  10.511  19.482  0.00  0.00    +0.000 C 
ATOM     25  C   UNL     1      -0.104   9.482  18.937  0.00  0.00    +0.000 C 
BRANCH  24  26
ATOM     26  C   UNL     1      -1.484  11.476  18.438  0.00  0.00    +0.000 C 
ATOM     27  N   UNL     1      -1.755  12.237  17.604  0.00  0.00    +0.000 NA
ENDBRANCH  24  26
ENDBRANCH  18  21
ENDBRANCH  17  18
ENDBRANCH   3  17
TORSDOF 6
ENDMDL
MODEL 7
REMARK VINA RESULT:      -6.5      5.316     10.173
REMARK  Name = 
REMARK  7 active torsions:
REMARK  status: ('A' for Active; 'I' for Inactive)
REMARK    1  A    between atoms: C_1  and  N_2
REMARK    2  A    between atoms: N_2  and  C_3
REMARK    3  A    between atoms: N_2  and  C_12
REMARK    4  A    between atoms: C_14  and  C_15
REMARK    5  A    between atoms: C_15  and  S_16
REMARK    6  A    between atoms: S_16  and  C_19
REMARK    7  A    between atoms: C_22  and  C_23
REMARK                            x       y       z     vdW  Elec       q    Type
REMARK                         _______ _______ _______ _____ _____    ______ ____
ROOT
ATOM      1  C   UNL     1      -0.515  11.940  18.518  0.00  0.00    +0.000 C 
ATOM      2  C   UNL     1      -1.362  11.740  19.789  0.00  0.00    +0.000 C 
ATOM      3  C   UNL     1      -1.212  13.236  20.141  0.00  0.00    +0.000 C 
ATOM      4  C   UNL     1      -0.693  13.469  18.699  0.00  0.00    +0.000 C 
ENDROOT
BRANCH   1   6
ATOM      5  C   UNL     1       1.962  12.515  18.458  0.00  0.00    +0.000 C 
ATOM      6  N   UNL     1       0.876  11.544  18.536  0.00  0.00    +0.000 N 
BRANCH   6   7
ATOM      7  C   UNL     1       1.330  10.211  18.705  0.00  0.00    +0.000 A 
ATOM      8  N   UNL     1       1.883   9.574  17.628  0.00  0.00    +0.000 NA
ATOM      9  C   UNL     1       2.318   8.305  17.749  0.00  0.00    +0.000 A 
ATOM     10  N   UNL     1       2.284   7.522  18.833  0.00  0.00    +0.000 NA
ATOM     11  C   UNL     1       1.752   8.167  19.879  0.00  0.00    +0.000 A 
ATOM     12  N   UNL     1       1.610   7.607  21.118  0.00  0.00    +0.000 N 
ATOM     13  C   UNL     1       1.089   8.529  21.984  0.00  0.00    +0.000 A 
ATOM     14  C   UNL     1       0.875   9.690  21.271  0.00  0.00    +0.000 A 
ATOM     15  C   UNL     1       1.269   9.470  19.914  0.00  0.00    +0.000 A 
ATOM     16  H   UNL     1       1.879   6.659  21.340  0.00  0.00    +0.000 HD
ENDBRANCH   6   7
ENDBRANCH   1   6
BRANCH   3  17
ATOM     17  C   UNL     1      -0.264  13.497  21.302  0.00  0.00    +0.000 C 
BRANCH  17  18
ATOM     18  S   UNL     1      -1.097  13.380  22.875  0.00  0.00    +0.000 S 
ATOM     19  O   UNL     1      -1.020  12.008  23.330  0.00  0.00    +0.000 OA
ATOM     20  O   UNL     1      -0.612  14.467  23.703  0.00  0.00    +0.000 OA
BRANCH  18  21
ATOM     21  C   UNL     1      -2.814  13.733  22.464  0.00  0.00    +0.000 C 
ATOM     22  C   UNL     1      -3.381  14.863  23.320  0.00  0.00    +0.000 C 
ATOM     23  C   UNL     1      -3.836  14.167  24.597  0.00  0.00    +0.000 C 
ATOM     24  C   UNL     1      -4.378  12.813  24.133  0.00  0.00    +0.000 C 
ATOM     25  C   UNL     1      -3.754  12.558  22.747  0.00  0.00    +0.000 C 
BRANCH  24  26
ATOM     26  C   UNL     1      -5.845  12.838  24.043  0.00  0.00    +0.000 C 
ATOM     27  N   UNL     1      -7.005  12.841  23.989  0.00  0.00    +0.000 NA
ENDBRANCH  24  26
ENDBRANCH  18  21
ENDBRANCH  17  18
ENDBRANCH   3  17
TORSDOF 6
ENDMDL
MODEL 8
REMARK VINA RESULT:      -6.5      4.718      8.302
REMARK  Name = 
REMARK  7 active torsions:
REMARK  status: ('A' for Active; 'I' for Inactive)
REMARK    1  A    between atoms: C_1  and  N_2
REMARK    2  A    between atoms: N_2  and  C_3
REMARK    3  A    between atoms: N_2  and  C_12
REMARK    4  A    between atoms: C_14  and  C_15
REMARK    5  A    between atoms: C_15  and  S_16
REMARK    6  A    between atoms: S_16  and  C_19
REMARK    7  A    between atoms: C_22  and  C_23
REMARK                            x       y       z     vdW  Elec       q    Type
REMARK                         _______ _______ _______ _____ _____    ______ ____
ROOT
ATOM      1  C   UNL     1       1.384   8.977  20.723  0.00  0.00    +0.000 C 
ATOM      2  C   UNL     1       1.093  10.463  20.439  0.00  0.00    +0.000 C 
ATOM      3  C   UNL     1      -0.423  10.173  20.401  0.00  0.00    +0.000 C 
ATOM      4  C   UNL     1      -0.122   8.793  21.041  0.00  0.00    +0.000 C 
ENDROOT
BRANCH   1   6
ATOM      5  C   UNL     1       1.941   8.623  18.267  0.00  0.00    +0.000 C 
ATOM      6  N   UNL     1       1.822   8.131  19.635  0.00  0.00    +0.000 N 
BRANCH   6   7
ATOM      7  C   UNL     1       2.245   6.786  19.783  0.00  0.00    +0.000 A 
ATOM      8  N   UNL     1       1.621   6.009  20.721  0.00  0.00    +0.000 NA
ATOM      9  C   UNL     1       2.002   4.730  20.895  0.00  0.00    +0.000 A 
ATOM     10  N   UNL     1       2.965   4.061  20.250  0.00  0.00    +0.000 NA
ATOM     11  C   UNL     1       3.554   4.833  19.328  0.00  0.00    +0.000 A 
ATOM     12  N   UNL     1       4.562   4.398  18.512  0.00  0.00    +0.000 N 
ATOM     13  C   UNL     1       4.915   5.395  17.644  0.00  0.00    +0.000 A 
ATOM     14  C   UNL     1       4.130   6.491  17.933  0.00  0.00    +0.000 A 
ATOM     15  C   UNL     1       3.270   6.160  19.026  0.00  0.00    +0.000 A 
ATOM     16  H   UNL     1       4.953   3.468  18.550  0.00  0.00    +0.000 HD
ENDBRANCH   6   7
ENDBRANCH   1   6
BRANCH   3  17
ATOM     17  C   UNL     1      -1.016  10.207  19.001  0.00  0.00    +0.000 C 
BRANCH  17  18
ATOM     18  S   UNL     1      -2.029  11.652  18.747  0.00  0.00    +0.000 S 
ATOM     19  O   UNL     1      -2.551  12.075  20.029  0.00  0.00    +0.000 OA
ATOM     20  O   UNL     1      -1.276  12.568  17.912  0.00  0.00    +0.000 OA
BRANCH  18  21
ATOM     21  C   UNL     1      -3.405  11.029  17.765  0.00  0.00    +0.000 C 
ATOM     22  C   UNL     1      -3.301   9.523  17.537  0.00  0.00    +0.000 C 
ATOM     23  C   UNL     1      -2.387   9.395  16.325  0.00  0.00    +0.000 C 
ATOM     24  C   UNL     1      -2.754  10.581  15.430  0.00  0.00    +0.000 C 
ATOM     25  C   UNL     1      -3.443  11.609  16.348  0.00  0.00    +0.000 C 
BRANCH  24  26
ATOM     26  C   UNL     1      -3.658  10.164  14.350  0.00  0.00    +0.000 C 
ATOM     27  N   UNL     1      -4.359   9.846  13.480  0.00  0.00    +0.000 NA
ENDBRANCH  24  26
ENDBRANCH  18  21
ENDBRANCH  17  18
ENDBRANCH   3  17
TORSDOF 6
ENDMDL
MODEL 9
REMARK VINA RESULT:      -6.4      2.027      3.544
REMARK  Name = 
REMARK  7 active torsions:
REMARK  status: ('A' for Active; 'I' for Inactive)
REMARK    1  A    between atoms: C_1  and  N_2
REMARK    2  A    between atoms: N_2  and  C_3
REMARK    3  A    between atoms: N_2  and  C_12
REMARK    4  A    between atoms: C_14  and  C_15
REMARK    5  A    between atoms: C_15  and  S_16
REMARK    6  A    between atoms: S_16  and  C_19
REMARK    7  A    between atoms: C_22  and  C_23
REMARK                            x       y       z     vdW  Elec       q    Type
REMARK                         _______ _______ _______ _____ _____    ______ ____
ROOT
ATOM      1  C   UNL     1       1.118   9.575  18.122  0.00  0.00    +0.000 C 
ATOM      2  C   UNL     1       2.630   9.310  18.254  0.00  0.00    +0.000 C 
ATOM      3  C   UNL     1       2.387   7.789  18.148  0.00  0.00    +0.000 C 
ATOM      4  C   UNL     1       0.951   8.106  17.656  0.00  0.00    +0.000 C 
ENDROOT
BRANCH   1   6
ATOM      5  C   UNL     1       0.704   9.306  20.617  0.00  0.00    +0.000 C 
ATOM      6  N   UNL     1       0.353   9.862  19.315  0.00  0.00    +0.000 N 
BRANCH   6   7
ATOM      7  C   UNL     1      -0.751  10.752  19.367  0.00  0.00    +0.000 A 
ATOM      8  N   UNL     1      -0.836  11.616  20.425  0.00  0.00    +0.000 NA
ATOM      9  C   UNL     1      -1.874  12.470  20.512  0.00  0.00    +0.000 A 
ATOM     10  N   UNL     1      -2.901  12.607  19.667  0.00  0.00    +0.000 NA
ATOM     11  C   UNL     1      -2.793  11.764  18.633  0.00  0.00    +0.000 A 
ATOM     12  N   UNL     1      -3.699  11.702  17.610  0.00  0.00    +0.000 N 
ATOM     13  C   UNL     1      -3.285  10.787  16.681  0.00  0.00    +0.000 A 
ATOM     14  C   UNL     1      -2.103  10.242  17.138  0.00  0.00    +0.000 A 
ATOM     15  C   UNL     1      -1.785  10.835  18.399  0.00  0.00    +0.000 A 
ATOM     16  H   UNL     1      -4.529  12.275  17.562  0.00  0.00    +0.000 HD
ENDBRANCH   6   7
ENDBRANCH   1   6
BRANCH   3  17
ATOM     17  C   UNL     1       2.553   7.052  19.468  0.00  0.00    +0.000 C 
BRANCH  17  18
ATOM     18  S   UNL     1       3.376   5.485  19.252  0.00  0.00    +0.000 S 
ATOM     19  O   UNL     1       4.732   5.611  19.741  0.00  0.00    +0.000 OA
ATOM     20  O   UNL     1       2.492   4.456  19.767  0.00  0.00    +0.000 OA
BRANCH  18  21
ATOM     21  C   UNL     1       3.446   5.295  17.462  0.00  0.00    +0.000 C 
ATOM     22  C   UNL     1       3.135   3.864  17.031  0.00  0.00    +0.000 C 
ATOM     23  C   UNL     1       4.471   3.142  17.153  0.00  0.00    +0.000 C 
ATOM     24  C   UNL     1       5.515   4.176  16.725  0.00  0.00    +0.000 C 
ATOM     25  C   UNL     1       4.841   5.552  16.885  0.00  0.00    +0.000 C 
BRANCH  24  26
ATOM     26  C   UNL     1       5.927   3.960  15.331  0.00  0.00    +0.000 C 
ATOM     27  N   UNL     1       6.259   3.812  14.228  0.00  0.00    +0.000 NA
ENDBRANCH  24  26
ENDBRANCH  18  21
ENDBRANCH  17  18
ENDBRANCH   3  17
TORSDOF 6
ENDMDL
