MODEL 1
REMARK VINA RESULT:      -7.9      0.000      0.000
REMARK  Name = 
REMARK  4 active torsions:
REMARK  status: ('A' for Active; 'I' for Inactive)
REMARK    1  A    between atoms: C_1  and  C_2
REMARK    2  A    between atoms: C_6  and  C_7
REMARK    3  A    between atoms: C_7  and  N_8
REMARK    4  A    between atoms: C_9  and  C_11
REMARK                            x       y       z     vdW  Elec       q    Type
REMARK                         _______ _______ _______ _____ _____    ______ ____
ROOT
ATOM      1  N   UNL     1       2.656   6.683  20.072  0.00  0.00    +0.000 N 
ATOM      2  C   UNL     1       2.698   5.489  19.399  0.00  0.00    +0.000 C 
ATOM      3  O   UNL     1       1.696   4.845  19.110  0.00  0.00    +0.000 OA
ATOM      4  H   UNL     1       3.518   7.053  20.453  0.00  0.00    +0.000 HD
ENDROOT
BRANCH   2   5
ATOM      5  C   UNL     1       4.028   5.073  18.979  0.00  0.00    +0.000 A 
ATOM      6  C   UNL     1       4.720   4.040  19.582  0.00  0.00    +0.000 A 
ATOM      7  O   UNL     1       5.901   3.815  18.960  0.00  0.00    +0.000 OA
ATOM      8  C   UNL     1       6.002   4.724  17.951  0.00  0.00    +0.000 A 
ATOM      9  C   UNL     1       4.881   5.534  17.920  0.00  0.00    +0.000 A 
ATOM     10  C   UNL     1       4.659   6.632  17.001  0.00  0.00    +0.000 C 
ATOM     11  O   UNL     1       3.984   7.612  17.299  0.00  0.00    +0.000 OA
ATOM     12  N   UNL     1       5.169   6.520  15.738  0.00  0.00    +0.000 N 
ATOM     13  C   UNL     1       5.749   5.328  15.159  0.00  0.00    +0.000 C 
ATOM     14  C   UNL     1       7.150   5.067  15.690  0.00  0.00    +0.000 C 
ATOM     15  C   UNL     1       7.266   4.680  17.169  0.00  0.00    +0.000 C 
ATOM     16  H   UNL     1       4.902   7.284  15.128  0.00  0.00    +0.000 HD
ENDBRANCH   2   5
BRANCH   1  17
ATOM     17  C   UNL     1       1.450   7.229  20.639  0.00  0.00    +0.000 C 
BRANCH  17  23
ATOM     18  C   UNL     1       0.699  12.887  19.399  0.00  0.00    +0.000 C 
ATOM     19  C   UNL     1       0.902  11.434  19.711  0.00  0.00    +0.000 A 
ATOM     20  C   UNL     1       0.930  10.976  21.030  0.00  0.00    +0.000 A 
ATOM     21  C   UNL     1       1.106   9.618  21.300  0.00  0.00    +0.000 A 
ATOM     22  F   UNL     1       1.139   9.224  22.582  0.00  0.00    +0.000 F 
ATOM     23  C   UNL     1       1.248   8.676  20.281  0.00  0.00    +0.000 A 
ATOM     24  C   UNL     1       1.249   9.154  18.968  0.00  0.00    +0.000 A 
ATOM     25  F   UNL     1       1.414   8.310  17.938  0.00  0.00    +0.000 F 
ATOM     26  C   UNL     1       1.072  10.508  18.677  0.00  0.00    +0.000 A 
ENDBRANCH  17  23
ENDBRANCH   1  17
TORSDOF 3
ENDMDL
MODEL 2
REMARK VINA RESULT:      -7.8      0.045      1.682
REMARK  Name = 
REMARK  4 active torsions:
REMARK  status: ('A' for Active; 'I' for Inactive)
REMARK    1  A    between atoms: C_1  and  C_2
REMARK    2  A    between atoms: C_6  and  C_7
REMARK    3  A    between atoms: C_7  and  N_8
REMARK    4  A    between atoms: C_9  and  C_11
REMARK                            x       y       z     vdW  Elec       q    Type
REMARK                         _______ _______ _______ _____ _____    ______ ____
ROOT
ATOM      1  N   UNL     1       2.636   6.684  20.055  0.00  0.00    +0.000 N 
ATOM      2  C   UNL     1       2.683   5.491  19.381  0.00  0.00    +0.000 C 
ATOM      3  O   UNL     1       1.682   4.847  19.084  0.00  0.00    +0.000 OA
ATOM      4  H   UNL     1       3.495   7.053  20.443  0.00  0.00    +0.000 HD
ENDROOT
BRANCH   2   5
ATOM      5  C   UNL     1       4.016   5.075  18.970  0.00  0.00    +0.000 A 
ATOM      6  C   UNL     1       4.704   4.042  19.578  0.00  0.00    +0.000 A 
ATOM      7  O   UNL     1       5.889   3.817  18.963  0.00  0.00    +0.000 OA
ATOM      8  C   UNL     1       5.997   4.727  17.956  0.00  0.00    +0.000 A 
ATOM      9  C   UNL     1       4.876   5.537  17.918  0.00  0.00    +0.000 A 
ATOM     10  C   UNL     1       4.661   6.636  16.998  0.00  0.00    +0.000 C 
ATOM     11  O   UNL     1       3.983   7.615  17.292  0.00  0.00    +0.000 OA
ATOM     12  N   UNL     1       5.179   6.524  15.738  0.00  0.00    +0.000 N 
ATOM     13  C   UNL     1       5.763   5.333  15.163  0.00  0.00    +0.000 C 
ATOM     14  C   UNL     1       7.161   5.072  15.704  0.00  0.00    +0.000 C 
ATOM     15  C   UNL     1       7.266   4.684  17.183  0.00  0.00    +0.000 C 
ATOM     16  H   UNL     1       4.916   7.289  15.127  0.00  0.00    +0.000 HD
ENDBRANCH   2   5
BRANCH   1  17
ATOM     17  C   UNL     1       1.425   7.229  20.613  0.00  0.00    +0.000 C 
BRANCH  17  23
ATOM     18  C   UNL     1       0.789  12.899  19.366  0.00  0.00    +0.000 C 
ATOM     19  C   UNL     1       0.942  11.444  19.693  0.00  0.00    +0.000 A 
ATOM     20  C   UNL     1       1.090  10.489  18.684  0.00  0.00    +0.000 A 
ATOM     21  C   UNL     1       1.245   9.140  19.008  0.00  0.00    +0.000 A 
ATOM     22  F   UNL     1       1.372   8.256  18.007  0.00  0.00    +0.000 F 
ATOM     23  C   UNL     1       1.270   8.698  20.331  0.00  0.00    +0.000 A 
ATOM     24  C   UNL     1       1.089   9.661  21.327  0.00  0.00    +0.000 A 
ATOM     25  F   UNL     1       1.068   9.304  22.621  0.00  0.00    +0.000 F 
ATOM     26  C   UNL     1       0.935  11.015  21.023  0.00  0.00    +0.000 A 
ENDBRANCH  17  23
ENDBRANCH   1  17
TORSDOF 3
ENDMDL
MODEL 3
REMARK VINA RESULT:      -7.6      3.156      7.778
REMARK  Name = 
REMARK  4 active torsions:
REMARK  status: ('A' for Active; 'I' for Inactive)
REMARK    1  A    between atoms: C_1  and  C_2
REMARK    2  A    between atoms: C_6  and  C_7
REMARK    3  A    between atoms: C_7  and  N_8
REMARK    4  A    between atoms: C_9  and  C_11
REMARK                            x       y       z     vdW  Elec       q    Type
REMARK                         _______ _______ _______ _____ _____    ______ ____
ROOT
ATOM      1  N   UNL     1       2.132   7.481  19.257  0.00  0.00    +0.000 N 
ATOM      2  C   UNL     1       1.667   8.770  19.303  0.00  0.00    +0.000 C 
ATOM      3  O   UNL     1       1.727   9.541  18.352  0.00  0.00    +0.000 OA
ATOM      4  H   UNL     1       2.237   6.975  20.127  0.00  0.00    +0.000 HD
ENDROOT
BRANCH   2   5
ATOM      5  C   UNL     1       1.017   9.139  20.553  0.00  0.00    +0.000 A 
ATOM      6  C   UNL     1       1.438   8.678  21.785  0.00  0.00    +0.000 A 
ATOM      7  O   UNL     1       0.707   9.223  22.786  0.00  0.00    +0.000 OA
ATOM      8  C   UNL     1      -0.223  10.032  22.208  0.00  0.00    +0.000 A 
ATOM      9  C   UNL     1      -0.087  10.013  20.831  0.00  0.00    +0.000 A 
ATOM     10  C   UNL     1      -0.926  10.729  19.891  0.00  0.00    +0.000 C 
ATOM     11  O   UNL     1      -1.140  10.316  18.755  0.00  0.00    +0.000 OA
ATOM     12  N   UNL     1      -1.428  11.940  20.277  0.00  0.00    +0.000 N 
ATOM     13  C   UNL     1      -1.052  12.675  21.465  0.00  0.00    +0.000 C 
ATOM     14  C   UNL     1      -1.673  12.078  22.718  0.00  0.00    +0.000 C 
ATOM     15  C   UNL     1      -1.173  10.693  23.142  0.00  0.00    +0.000 C 
ATOM     16  H   UNL     1      -1.932  12.419  19.540  0.00  0.00    +0.000 HD
ENDBRANCH   2   5
BRANCH   1  17
ATOM     17  C   UNL     1       2.873   6.948  18.143  0.00  0.00    +0.000 C 
BRANCH  17  23
ATOM     18  C   UNL     1       3.700   1.184  18.597  0.00  0.00    +0.000 C 
ATOM     19  C   UNL     1       3.477   2.663  18.486  0.00  0.00    +0.000 A 
ATOM     20  C   UNL     1       4.423   3.574  18.963  0.00  0.00    +0.000 A 
ATOM     21  C   UNL     1       4.205   4.947  18.838  0.00  0.00    +0.000 A 
ATOM     22  F   UNL     1       5.134   5.785  19.321  0.00  0.00    +0.000 F 
ATOM     23  C   UNL     1       3.057   5.458  18.233  0.00  0.00    +0.000 A 
ATOM     24  C   UNL     1       2.105   4.535  17.790  0.00  0.00    +0.000 A 
ATOM     25  F   UNL     1       0.962   4.955  17.227  0.00  0.00    +0.000 F 
ATOM     26  C   UNL     1       2.307   3.158  17.903  0.00  0.00    +0.000 A 
ENDBRANCH  17  23
ENDBRANCH   1  17
TORSDOF 3
ENDMDL
MODEL 4
REMARK VINA RESULT:      -7.5      3.176      7.873
REMARK  Name = 
REMARK  4 active torsions:
REMARK  status: ('A' for Active; 'I' for Inactive)
REMARK    1  A    between atoms: C_1  and  C_2
REMARK    2  A    between atoms: C_6  and  C_7
REMARK    3  A    between atoms: C_7  and  N_8
REMARK    4  A    between atoms: C_9  and  C_11
REMARK                            x       y       z     vdW  Elec       q    Type
REMARK                         _______ _______ _______ _____ _____    ______ ____
ROOT
ATOM      1  N   UNL     1       2.147   7.568  19.317  0.00  0.00    +0.000 N 
ATOM      2  C   UNL     1       1.645   8.844  19.324  0.00  0.00    +0.000 C 
ATOM      3  O   UNL     1       1.661   9.578  18.342  0.00  0.00    +0.000 OA
ATOM      4  H   UNL     1       2.287   7.099  20.203  0.00  0.00    +0.000 HD
ENDROOT
BRANCH   2   5
ATOM      5  C   UNL     1       1.013   9.243  20.574  0.00  0.00    +0.000 A 
ATOM      6  C   UNL     1       1.499   8.876  21.814  0.00  0.00    +0.000 A 
ATOM      7  O   UNL     1       0.767   9.432  22.808  0.00  0.00    +0.000 OA
ATOM      8  C   UNL     1      -0.227  10.152  22.220  0.00  0.00    +0.000 A 
ATOM      9  C   UNL     1      -0.132  10.065  20.842  0.00  0.00    +0.000 A 
ATOM     10  C   UNL     1      -1.041  10.678  19.894  0.00  0.00    +0.000 C 
ATOM     11  O   UNL     1      -1.265  10.191  18.790  0.00  0.00    +0.000 OA
ATOM     12  N   UNL     1      -1.603  11.877  20.232  0.00  0.00    +0.000 N 
ATOM     13  C   UNL     1      -1.235  12.698  21.365  0.00  0.00    +0.000 C 
ATOM     14  C   UNL     1      -1.780  12.135  22.669  0.00  0.00    +0.000 C 
ATOM     15  C   UNL     1      -1.185  10.807  23.149  0.00  0.00    +0.000 C 
ATOM     16  H   UNL     1      -2.157  12.285  19.488  0.00  0.00    +0.000 HD
ENDBRANCH   2   5
BRANCH   1  17
ATOM     17  C   UNL     1       2.878   7.012  18.206  0.00  0.00    +0.000 C 
BRANCH  17  23
ATOM     18  C   UNL     1       3.637   1.238  18.647  0.00  0.00    +0.000 C 
ATOM     19  C   UNL     1       3.453   2.721  18.528  0.00  0.00    +0.000 A 
ATOM     20  C   UNL     1       2.309   3.262  17.935  0.00  0.00    +0.000 A 
ATOM     21  C   UNL     1       2.148   4.646  17.846  0.00  0.00    +0.000 A 
ATOM     22  F   UNL     1       1.040   5.121  17.257  0.00  0.00    +0.000 F 
ATOM     23  C   UNL     1       3.102   5.532  18.347  0.00  0.00    +0.000 A 
ATOM     24  C   UNL     1       4.255   4.976  18.908  0.00  0.00    +0.000 A 
ATOM     25  F   UNL     1       5.230   5.768  19.380  0.00  0.00    +0.000 F 
ATOM     26  C   UNL     1       4.433   3.595  19.008  0.00  0.00    +0.000 A 
ENDBRANCH  17  23
ENDBRANCH   1  17
TORSDOF 3
ENDMDL
MODEL 5
REMARK VINA RESULT:      -7.4      3.883      7.683
REMARK  Name = 
REMARK  4 active torsions:
REMARK  status: ('A' for Active; 'I' for Inactive)
REMARK    1  A    between atoms: C_1  and  C_2
REMARK    2  A    between atoms: C_6  and  C_7
REMARK    3  A    between atoms: C_7  and  N_8
REMARK    4  A    between atoms: C_9  and  C_11
REMARK                            x       y       z     vdW  Elec       q    Type
REMARK                         _______ _______ _______ _____ _____    ______ ____
ROOT
ATOM      1  N   UNL     1       5.822   5.744  16.822  0.00  0.00    +0.000 N 
ATOM      2  C   UNL     1       5.810   5.241  18.097  0.00  0.00    +0.000 C 
ATOM      3  O   UNL     1       6.797   4.756  18.638  0.00  0.00    +0.000 OA
ATOM      4  H   UNL     1       4.937   5.937  16.371  0.00  0.00    +0.000 HD
ENDROOT
BRANCH   2   5
ATOM      5  C   UNL     1       4.545   5.395  18.801  0.00  0.00    +0.000 A 
ATOM      6  C   UNL     1       3.886   6.605  18.911  0.00  0.00    +0.000 A 
ATOM      7  O   UNL     1       2.704   6.461  19.555  0.00  0.00    +0.000 OA
ATOM      8  C   UNL     1       2.592   5.147  19.897  0.00  0.00    +0.000 A 
ATOM      9  C   UNL     1       3.702   4.442  19.467  0.00  0.00    +0.000 A 
ATOM     10  C   UNL     1       3.940   3.030  19.685  0.00  0.00    +0.000 C 
ATOM     11  O   UNL     1       5.070   2.561  19.784  0.00  0.00    +0.000 OA
ATOM     12  N   UNL     1       2.857   2.196  19.705  0.00  0.00    +0.000 N 
ATOM     13  C   UNL     1       1.504   2.553  19.341  0.00  0.00    +0.000 C 
ATOM     14  C   UNL     1       0.825   3.374  20.427  0.00  0.00    +0.000 C 
ATOM     15  C   UNL     1       1.374   4.785  20.668  0.00  0.00    +0.000 C 
ATOM     16  H   UNL     1       3.106   1.216  19.776  0.00  0.00    +0.000 HD
ENDBRANCH   2   5
BRANCH   1  17
ATOM     17  C   UNL     1       6.950   5.621  15.934  0.00  0.00    +0.000 C 
BRANCH  17  23
ATOM     18  C   UNL     1       5.534   2.566  11.163  0.00  0.00    +0.000 C 
ATOM     19  C   UNL     1       5.897   3.360  12.381  0.00  0.00    +0.000 A 
ATOM     20  C   UNL     1       5.109   3.317  13.533  0.00  0.00    +0.000 A 
ATOM     21  C   UNL     1       5.471   4.053  14.663  0.00  0.00    +0.000 A 
ATOM     22  F   UNL     1       4.678   3.992  15.743  0.00  0.00    +0.000 F 
ATOM     23  C   UNL     1       6.623   4.840  14.692  0.00  0.00    +0.000 A 
ATOM     24  C   UNL     1       7.384   4.898  13.521  0.00  0.00    +0.000 A 
ATOM     25  F   UNL     1       8.487   5.660  13.465  0.00  0.00    +0.000 F 
ATOM     26  C   UNL     1       7.039   4.167  12.382  0.00  0.00    +0.000 A 
ENDBRANCH  17  23
ENDBRANCH   1  17
TORSDOF 3
ENDMDL
MODEL 6
REMARK VINA RESULT:      -7.4      1.731      2.562
REMARK  Name = 
REMARK  4 active torsions:
REMARK  status: ('A' for Active; 'I' for Inactive)
REMARK    1  A    between atoms: C_1  and  C_2
REMARK    2  A    between atoms: C_6  and  C_7
REMARK    3  A    between atoms: C_7  and  N_8
REMARK    4  A    between atoms: C_9  and  C_11
REMARK                            x       y       z     vdW  Elec       q    Type
REMARK                         _______ _______ _______ _____ _____    ______ ____
ROOT
ATOM      1  N   UNL     1       2.021   7.735  20.323  0.00  0.00    +0.000 N 
ATOM      2  C   UNL     1       2.285   6.493  19.807  0.00  0.00    +0.000 C 
ATOM      3  O   UNL     1       1.760   5.466  20.223  0.00  0.00    +0.000 OA
ATOM      4  H   UNL     1       2.634   8.501  20.075  0.00  0.00    +0.000 HD
ENDROOT
BRANCH   2   5
ATOM      5  C   UNL     1       3.186   6.488  18.663  0.00  0.00    +0.000 A 
ATOM      6  C   UNL     1       3.168   7.465  17.686  0.00  0.00    +0.000 A 
ATOM      7  O   UNL     1       4.147   7.260  16.773  0.00  0.00    +0.000 OA
ATOM      8  C   UNL     1       4.802   6.123  17.136  0.00  0.00    +0.000 A 
ATOM      9  C   UNL     1       4.247   5.596  18.289  0.00  0.00    +0.000 A 
ATOM     10  C   UNL     1       4.667   4.374  18.945  0.00  0.00    +0.000 C 
ATOM     11  O   UNL     1       3.892   3.674  19.589  0.00  0.00    +0.000 OA
ATOM     12  N   UNL     1       5.992   4.044  18.892  0.00  0.00    +0.000 N 
ATOM     13  C   UNL     1       7.060   4.892  18.407  0.00  0.00    +0.000 C 
ATOM     14  C   UNL     1       7.072   4.970  16.888  0.00  0.00    +0.000 C 
ATOM     15  C   UNL     1       5.893   5.689  16.224  0.00  0.00    +0.000 C 
ATOM     16  H   UNL     1       6.225   3.226  19.443  0.00  0.00    +0.000 HD
ENDBRANCH   2   5
BRANCH   1  17
ATOM     17  C   UNL     1       1.219   7.947  21.502  0.00  0.00    +0.000 C 
BRANCH  17  23
ATOM     18  C   UNL     1      -1.934  12.860  21.351  0.00  0.00    +0.000 C 
ATOM     19  C   UNL     1      -1.116  11.604  21.384  0.00  0.00    +0.000 A 
ATOM     20  C   UNL     1      -0.800  10.978  22.592  0.00  0.00    +0.000 A 
ATOM     21  C   UNL     1      -0.050   9.802  22.602  0.00  0.00    +0.000 A 
ATOM     22  F   UNL     1       0.240   9.242  23.786  0.00  0.00    +0.000 F 
ATOM     23  C   UNL     1       0.401   9.206  21.424  0.00  0.00    +0.000 A 
ATOM     24  C   UNL     1       0.105   9.861  20.225  0.00  0.00    +0.000 A 
ATOM     25  F   UNL     1       0.535   9.363  19.055  0.00  0.00    +0.000 F 
ATOM     26  C   UNL     1      -0.647  11.037  20.195  0.00  0.00    +0.000 A 
ENDBRANCH  17  23
ENDBRANCH   1  17
TORSDOF 3
ENDMDL
MODEL 7
REMARK VINA RESULT:      -7.3      3.881      7.781
REMARK  Name = 
REMARK  4 active torsions:
REMARK  status: ('A' for Active; 'I' for Inactive)
REMARK    1  A    between atoms: C_1  and  C_2
REMARK    2  A    between atoms: C_6  and  C_7
REMARK    3  A    between atoms: C_7  and  N_8
REMARK    4  A    between atoms: C_9  and  C_11
REMARK                            x       y       z     vdW  Elec       q    Type
REMARK                         _______ _______ _______ _____ _____    ______ ____
ROOT
ATOM      1  N   UNL     1       5.766   5.798  16.788  0.00  0.00    +0.000 N 
ATOM      2  C   UNL     1       5.787   5.311  18.069  0.00  0.00    +0.000 C 
ATOM      3  O   UNL     1       6.795   4.855  18.599  0.00  0.00    +0.000 OA
ATOM      4  H   UNL     1       4.869   5.966  16.350  0.00  0.00    +0.000 HD
ENDROOT
BRANCH   2   5
ATOM      5  C   UNL     1       4.532   5.448  18.794  0.00  0.00    +0.000 A 
ATOM      6  C   UNL     1       3.855   6.647  18.907  0.00  0.00    +0.000 A 
ATOM      7  O   UNL     1       2.686   6.487  19.573  0.00  0.00    +0.000 OA
ATOM      8  C   UNL     1       2.603   5.174  19.925  0.00  0.00    +0.000 A 
ATOM      9  C   UNL     1       3.718   4.485  19.480  0.00  0.00    +0.000 A 
ATOM     10  C   UNL     1       3.984   3.079  19.703  0.00  0.00    +0.000 C 
ATOM     11  O   UNL     1       5.123   2.630  19.786  0.00  0.00    +0.000 OA
ATOM     12  N   UNL     1       2.916   2.226  19.748  0.00  0.00    +0.000 N 
ATOM     13  C   UNL     1       1.551   2.557  19.405  0.00  0.00    +0.000 C 
ATOM     14  C   UNL     1       0.877   3.374  20.497  0.00  0.00    +0.000 C 
ATOM     15  C   UNL     1       1.405   4.795  20.720  0.00  0.00    +0.000 C 
ATOM     16  H   UNL     1       3.184   1.251  19.820  0.00  0.00    +0.000 HD
ENDBRANCH   2   5
BRANCH   1  17
ATOM     17  C   UNL     1       6.880   5.686  15.881  0.00  0.00    +0.000 C 
BRANCH  17  23
ATOM     18  C   UNL     1       5.741   2.564  11.079  0.00  0.00    +0.000 C 
ATOM     19  C   UNL     1       6.033   3.355  12.319  0.00  0.00    +0.000 A 
ATOM     20  C   UNL     1       7.160   4.176  12.403  0.00  0.00    +0.000 A 
ATOM     21  C   UNL     1       7.408   4.916  13.560  0.00  0.00    +0.000 A 
ATOM     22  F   UNL     1       8.509   5.682  13.601  0.00  0.00    +0.000 F 
ATOM     23  C   UNL     1       6.549   4.877  14.658  0.00  0.00    +0.000 A 
ATOM     24  C   UNL     1       5.443   4.027  14.571  0.00  0.00    +0.000 A 
ATOM     25  F   UNL     1       4.592   3.913  15.602  0.00  0.00    +0.000 F 
ATOM     26  C   UNL     1       5.177   3.281  13.422  0.00  0.00    +0.000 A 
ENDBRANCH  17  23
ENDBRANCH   1  17
TORSDOF 3
ENDMDL
MODEL 8
REMARK VINA RESULT:      -7.3      1.584      1.845
REMARK  Name = 
REMARK  4 active torsions:
REMARK  status: ('A' for Active; 'I' for Inactive)
REMARK    1  A    between atoms: C_1  and  C_2
REMARK    2  A    between atoms: C_6  and  C_7
REMARK    3  A    between atoms: C_7  and  N_8
REMARK    4  A    between atoms: C_9  and  C_11
REMARK                            x       y       z     vdW  Elec       q    Type
REMARK                         _______ _______ _______ _____ _____    ______ ____
ROOT
ATOM      1  N   UNL     1       2.433   6.702  19.514  0.00  0.00    +0.000 N 
ATOM      2  C   UNL     1       2.876   5.418  19.700  0.00  0.00    +0.000 C 
ATOM      3  O   UNL     1       2.746   4.808  20.756  0.00  0.00    +0.000 OA
ATOM      4  H   UNL     1       2.751   7.209  18.698  0.00  0.00    +0.000 HD
ENDROOT
BRANCH   2   5
ATOM      5  C   UNL     1       3.448   4.793  18.516  0.00  0.00    +0.000 A 
ATOM      6  C   UNL     1       2.692   4.099  17.591  0.00  0.00    +0.000 A 
ATOM      7  O   UNL     1       3.456   3.677  16.556  0.00  0.00    +0.000 OA
ATOM      8  C   UNL     1       4.733   4.075  16.811  0.00  0.00    +0.000 A 
ATOM      9  C   UNL     1       4.791   4.760  18.012  0.00  0.00    +0.000 A 
ATOM     10  C   UNL     1       5.992   5.300  18.616  0.00  0.00    +0.000 C 
ATOM     11  O   UNL     1       6.124   5.410  19.831  0.00  0.00    +0.000 OA
ATOM     12  N   UNL     1       6.972   5.765  17.784  0.00  0.00    +0.000 N 
ATOM     13  C   UNL     1       6.855   5.949  16.354  0.00  0.00    +0.000 C 
ATOM     14  C   UNL     1       6.922   4.625  15.608  0.00  0.00    +0.000 C 
ATOM     15  C   UNL     1       5.749   3.660  15.808  0.00  0.00    +0.000 C 
ATOM     16  H   UNL     1       7.742   6.205  18.276  0.00  0.00    +0.000 HD
ENDBRANCH   2   5
BRANCH   1  17
ATOM     17  C   UNL     1       1.908   7.519  20.579  0.00  0.00    +0.000 C 
BRANCH  17  23
ATOM     18  C   UNL     1      -1.069  12.196  18.742  0.00  0.00    +0.000 C 
ATOM     19  C   UNL     1      -0.294  11.001  19.213  0.00  0.00    +0.000 A 
ATOM     20  C   UNL     1      -0.582  10.390  20.435  0.00  0.00    +0.000 A 
ATOM     21  C   UNL     1       0.141   9.270  20.850  0.00  0.00    +0.000 A 
ATOM     22  F   UNL     1      -0.161   8.722  22.037  0.00  0.00    +0.000 F 
ATOM     23  C   UNL     1       1.156   8.717  20.069  0.00  0.00    +0.000 A 
ATOM     24  C   UNL     1       1.453   9.359  18.863  0.00  0.00    +0.000 A 
ATOM     25  F   UNL     1       2.439   8.903  18.076  0.00  0.00    +0.000 F 
ATOM     26  C   UNL     1       0.740  10.479  18.430  0.00  0.00    +0.000 A 
ENDBRANCH  17  23
ENDBRANCH   1  17
TORSDOF 3
ENDMDL
MODEL 9
REMARK VINA RESULT:      -7.2      1.734      3.066
REMARK  Name = 
REMARK  4 active torsions:
REMARK  status: ('A' for Active; 'I' for Inactive)
REMARK    1  A    between atoms: C_1  and  C_2
REMARK    2  A    between atoms: C_6  and  C_7
REMARK    3  A    between atoms: C_7  and  N_8
REMARK    4  A    between atoms: C_9  and  C_11
REMARK                            x       y       z     vdW  Elec       q    Type
REMARK                         _______ _______ _______ _____ _____    ______ ____
ROOT
ATOM      1  N   UNL     1       1.943   7.740  20.359  0.00  0.00    +0.000 N 
ATOM      2  C   UNL     1       2.275   6.505  19.863  0.00  0.00    +0.000 C 
ATOM      3  O   UNL     1       1.821   5.457  20.310  0.00  0.00    +0.000 OA
ATOM      4  H   UNL     1       2.504   8.537  20.084  0.00  0.00    +0.000 HD
ENDROOT
BRANCH   2   5
ATOM      5  C   UNL     1       3.155   6.530  18.704  0.00  0.00    +0.000 A 
ATOM      6  C   UNL     1       3.124   7.535  17.756  0.00  0.00    +0.000 A 
ATOM      7  O   UNL     1       4.086   7.355  16.821  0.00  0.00    +0.000 OA
ATOM      8  C   UNL     1       4.743   6.205  17.139  0.00  0.00    +0.000 A 
ATOM      9  C   UNL     1       4.207   5.647  18.286  0.00  0.00    +0.000 A 
ATOM     10  C   UNL     1       4.634   4.405  18.898  0.00  0.00    +0.000 C 
ATOM     11  O   UNL     1       3.868   3.689  19.536  0.00  0.00    +0.000 OA
ATOM     12  N   UNL     1       5.957   4.073  18.813  0.00  0.00    +0.000 N 
ATOM     13  C   UNL     1       7.018   4.931  18.334  0.00  0.00    +0.000 C 
ATOM     14  C   UNL     1       7.005   5.053  16.817  0.00  0.00    +0.000 C 
ATOM     15  C   UNL     1       5.816   5.794  16.196  0.00  0.00    +0.000 C 
ATOM     16  H   UNL     1       6.196   3.238  19.335  0.00  0.00    +0.000 HD
ENDBRANCH   2   5
BRANCH   1  17
ATOM     17  C   UNL     1       1.150   7.927  21.546  0.00  0.00    +0.000 C 
BRANCH  17  23
ATOM     18  C   UNL     1      -1.811  12.957  21.351  0.00  0.00    +0.000 C 
ATOM     19  C   UNL     1      -1.060  11.661  21.407  0.00  0.00    +0.000 A 
ATOM     20  C   UNL     1      -0.608  11.037  20.242  0.00  0.00    +0.000 A 
ATOM     21  C   UNL     1       0.102   9.837  20.315  0.00  0.00    +0.000 A 
ATOM     22  F   UNL     1       0.506   9.267  19.171  0.00  0.00    +0.000 F 
ATOM     23  C   UNL     1       0.394   9.227  21.535  0.00  0.00    +0.000 A 
ATOM     24  C   UNL     1      -0.092   9.847  22.690  0.00  0.00    +0.000 A 
ATOM     25  F   UNL     1       0.122   9.300  23.896  0.00  0.00    +0.000 F 
ATOM     26  C   UNL     1      -0.802  11.048  22.637  0.00  0.00    +0.000 A 
ENDBRANCH  17  23
ENDBRANCH   1  17
TORSDOF 3
ENDMDL
