MODEL 1
REMARK VINA RESULT:      -8.4      0.000      0.000
REMARK  Name = 
REMARK  3 active torsions:
REMARK  status: ('A' for Active; 'I' for Inactive)
REMARK    1  A    between atoms: C_1  and  C_2
REMARK    2  A    between atoms: C_4  and  N_5
REMARK    3  A    between atoms: N_5  and  C_6
REMARK                            x       y       z     vdW  Elec       q    Type
REMARK                         _______ _______ _______ _____ _____    ______ ____
ROOT
ATOM      1  N   UNL     1       3.549   4.618  18.213  0.00  0.00    +0.000 N 
ATOM      2  H   UNL     1       3.276   3.672  18.547  0.00  0.00    +0.000 HD
ENDROOT
BRANCH   1   6
ATOM      3  C   UNL     1       6.271   3.924  14.186  0.00  0.00    +0.000 C 
ATOM      4  C   UNL     1       6.222   4.330  15.640  0.00  0.00    +0.000 A 
ATOM      5  C   UNL     1       4.868   4.429  16.234  0.00  0.00    +0.000 A 
ATOM      6  C   UNL     1       4.769   4.662  17.556  0.00  0.00    +0.000 A 
ATOM      7  N   UNL     1       5.974   4.948  18.257  0.00  0.00    +0.000 N 
ATOM      8  N   UNL     1       6.146   5.325  19.565  0.00  0.00    +0.000 NA
ATOM      9  C   UNL     1       7.472   5.429  19.711  0.00  0.00    +0.000 A 
ATOM     10  C   UNL     1       8.183   5.136  18.533  0.00  0.00    +0.000 A 
ATOM     11  C   UNL     1       7.218   4.856  17.603  0.00  0.00    +0.000 A 
ATOM     12  N   UNL     1       7.334   4.524  16.281  0.00  0.00    +0.000 NA
ENDBRANCH   1   6
BRANCH   1  13
ATOM     13  C   UNL     1       2.854   5.723  18.736  0.00  0.00    +0.000 A 
ATOM     14  C   UNL     1       2.323   5.664  20.033  0.00  0.00    +0.000 A 
ATOM     15  C   UNL     1       1.858   6.827  20.609  0.00  0.00    +0.000 A 
ATOM     16  C   UNL     1       1.673   8.014  19.870  0.00  0.00    +0.000 A 
ATOM     17  C   UNL     1       0.939   9.032  20.453  0.00  0.00    +0.000 A 
ATOM     18  C   UNL     1       0.483  10.093  19.687  0.00  0.00    +0.000 A 
ATOM     19  C   UNL     1       1.251  10.514  18.631  0.00  0.00    +0.000 A 
ATOM     20  C   UNL     1       1.931   9.489  17.948  0.00  0.00    +0.000 A 
ATOM     21  C   UNL     1       2.126   8.153  18.555  0.00  0.00    +0.000 A 
ATOM     22  C   UNL     1       2.759   6.989  18.037  0.00  0.00    +0.000 A 
ENDBRANCH   1  13
TORSDOF 2
ENDMDL
MODEL 2
REMARK VINA RESULT:      -8.0      1.966      6.770
REMARK  Name = 
REMARK  3 active torsions:
REMARK  status: ('A' for Active; 'I' for Inactive)
REMARK    1  A    between atoms: C_1  and  C_2
REMARK    2  A    between atoms: C_4  and  N_5
REMARK    3  A    between atoms: N_5  and  C_6
REMARK                            x       y       z     vdW  Elec       q    Type
REMARK                         _______ _______ _______ _____ _____    ______ ____
ROOT
ATOM      1  N   UNL     1       4.769   3.596  17.774  0.00  0.00    +0.000 N 
ATOM      2  H   UNL     1       4.706   2.569  17.924  0.00  0.00    +0.000 HD
ENDROOT
BRANCH   1   6
ATOM      3  C   UNL     1       2.323   7.778  18.568  0.00  0.00    +0.000 C 
ATOM      4  C   UNL     1       2.595   6.356  18.998  0.00  0.00    +0.000 A 
ATOM      5  C   UNL     1       3.461   5.566  18.094  0.00  0.00    +0.000 A 
ATOM      6  C   UNL     1       3.840   4.336  18.489  0.00  0.00    +0.000 A 
ATOM      7  N   UNL     1       3.254   3.828  19.682  0.00  0.00    +0.000 N 
ATOM      8  N   UNL     1       3.375   2.583  20.244  0.00  0.00    +0.000 NA
ATOM      9  C   UNL     1       2.651   2.651  21.367  0.00  0.00    +0.000 A 
ATOM     10  C   UNL     1       2.049   3.908  21.561  0.00  0.00    +0.000 A 
ATOM     11  C   UNL     1       2.417   4.644  20.468  0.00  0.00    +0.000 A 
ATOM     12  N   UNL     1       2.104   5.930  20.122  0.00  0.00    +0.000 NA
ENDBRANCH   1   6
BRANCH   1  13
ATOM     13  C   UNL     1       5.518   4.053  16.675  0.00  0.00    +0.000 A 
ATOM     14  C   UNL     1       6.565   4.964  16.875  0.00  0.00    +0.000 A 
ATOM     15  C   UNL     1       7.430   5.213  15.830  0.00  0.00    +0.000 A 
ATOM     16  C   UNL     1       7.169   4.781  14.513  0.00  0.00    +0.000 A 
ATOM     17  C   UNL     1       7.932   5.318  13.492  0.00  0.00    +0.000 A 
ATOM     18  C   UNL     1       7.545   5.159  12.171  0.00  0.00    +0.000 A 
ATOM     19  C   UNL     1       6.898   4.004  11.814  0.00  0.00    +0.000 A 
ATOM     20  C   UNL     1       6.030   3.485  12.792  0.00  0.00    +0.000 A 
ATOM     21  C   UNL     1       6.119   3.911  14.208  0.00  0.00    +0.000 A 
ATOM     22  C   UNL     1       5.340   3.529  15.336  0.00  0.00    +0.000 A 
ENDBRANCH   1  13
TORSDOF 2
ENDMDL
MODEL 3
REMARK VINA RESULT:      -8.0      0.984      2.461
REMARK  Name = 
REMARK  3 active torsions:
REMARK  status: ('A' for Active; 'I' for Inactive)
REMARK    1  A    between atoms: C_1  and  C_2
REMARK    2  A    between atoms: C_4  and  N_5
REMARK    3  A    between atoms: N_5  and  C_6
REMARK                            x       y       z     vdW  Elec       q    Type
REMARK                         _______ _______ _______ _____ _____    ______ ____
ROOT
ATOM      1  N   UNL     1       3.578   4.892  18.253  0.00  0.00    +0.000 N 
ATOM      2  H   UNL     1       3.151   3.945  18.294  0.00  0.00    +0.000 HD
ENDROOT
BRANCH   1   6
ATOM      3  C   UNL     1       8.201   5.717  19.686  0.00  0.00    +0.000 C 
ATOM      4  C   UNL     1       7.262   5.296  18.580  0.00  0.00    +0.000 A 
ATOM      5  C   UNL     1       5.841   5.145  18.967  0.00  0.00    +0.000 A 
ATOM      6  C   UNL     1       4.940   4.895  17.999  0.00  0.00    +0.000 A 
ATOM      7  N   UNL     1       5.446   4.644  16.691  0.00  0.00    +0.000 N 
ATOM      8  N   UNL     1       4.770   4.260  15.561  0.00  0.00    +0.000 NA
ATOM      9  C   UNL     1       5.712   4.201  14.613  0.00  0.00    +0.000 A 
ATOM     10  C   UNL     1       6.995   4.529  15.087  0.00  0.00    +0.000 A 
ATOM     11  C   UNL     1       6.821   4.785  16.420  0.00  0.00    +0.000 A 
ATOM     12  N   UNL     1       7.730   5.134  17.380  0.00  0.00    +0.000 NA
ENDBRANCH   1   6
BRANCH   1  13
ATOM     13  C   UNL     1       2.832   5.968  18.767  0.00  0.00    +0.000 A 
ATOM     14  C   UNL     1       2.253   5.871  20.040  0.00  0.00    +0.000 A 
ATOM     15  C   UNL     1       1.734   7.011  20.617  0.00  0.00    +0.000 A 
ATOM     16  C   UNL     1       1.545   8.205  19.892  0.00  0.00    +0.000 A 
ATOM     17  C   UNL     1       0.761   9.192  20.462  0.00  0.00    +0.000 A 
ATOM     18  C   UNL     1       0.306  10.254  19.697  0.00  0.00    +0.000 A 
ATOM     19  C   UNL     1       1.101  10.715  18.679  0.00  0.00    +0.000 A 
ATOM     20  C   UNL     1       1.836   9.721  18.007  0.00  0.00    +0.000 A 
ATOM     21  C   UNL     1       2.044   8.380  18.598  0.00  0.00    +0.000 A 
ATOM     22  C   UNL     1       2.730   7.243  18.087  0.00  0.00    +0.000 A 
ENDBRANCH   1  13
TORSDOF 2
ENDMDL
MODEL 4
REMARK VINA RESULT:      -8.0      0.680      1.660
REMARK  Name = 
REMARK  3 active torsions:
REMARK  status: ('A' for Active; 'I' for Inactive)
REMARK    1  A    between atoms: C_1  and  C_2
REMARK    2  A    between atoms: C_4  and  N_5
REMARK    3  A    between atoms: N_5  and  C_6
REMARK                            x       y       z     vdW  Elec       q    Type
REMARK                         _______ _______ _______ _____ _____    ______ ____
ROOT
ATOM      1  N   UNL     1       3.564   5.257  18.158  0.00  0.00    +0.000 N 
ATOM      2  H   UNL     1       3.206   4.403  18.630  0.00  0.00    +0.000 HD
ENDROOT
BRANCH   1   6
ATOM      3  C   UNL     1       6.175   3.967  14.205  0.00  0.00    +0.000 C 
ATOM      4  C   UNL     1       6.179   4.448  15.637  0.00  0.00    +0.000 A 
ATOM      5  C   UNL     1       4.852   4.775  16.207  0.00  0.00    +0.000 A 
ATOM      6  C   UNL     1       4.780   5.087  17.515  0.00  0.00    +0.000 A 
ATOM      7  N   UNL     1       6.011   5.225  18.217  0.00  0.00    +0.000 N 
ATOM      8  N   UNL     1       6.229   5.638  19.507  0.00  0.00    +0.000 NA
ATOM      9  C   UNL     1       7.554   5.551  19.666  0.00  0.00    +0.000 A 
ATOM     10  C   UNL     1       8.221   5.097  18.512  0.00  0.00    +0.000 A 
ATOM     11  C   UNL     1       7.231   4.918  17.585  0.00  0.00    +0.000 A 
ATOM     12  N   UNL     1       7.303   4.506  16.282  0.00  0.00    +0.000 NA
ENDBRANCH   1   6
BRANCH   1  13
ATOM     13  C   UNL     1       2.974   6.489  18.495  0.00  0.00    +0.000 A 
ATOM     14  C   UNL     1       2.900   7.511  17.538  0.00  0.00    +0.000 A 
ATOM     15  C   UNL     1       2.116   8.612  17.810  0.00  0.00    +0.000 A 
ATOM     16  C   UNL     1       1.585   8.863  19.092  0.00  0.00    +0.000 A 
ATOM     17  C   UNL     1       1.063  10.120  19.342  0.00  0.00    +0.000 A 
ATOM     18  C   UNL     1       0.792  10.519  20.640  0.00  0.00    +0.000 A 
ATOM     19  C   UNL     1       0.380   9.572  21.543  0.00  0.00    +0.000 A 
ATOM     20  C   UNL     1       0.971   8.306  21.383  0.00  0.00    +0.000 A 
ATOM     21  C   UNL     1       1.651   7.924  20.125  0.00  0.00    +0.000 A 
ATOM     22  C   UNL     1       2.319   6.720  19.766  0.00  0.00    +0.000 A 
ENDBRANCH   1  13
TORSDOF 2
ENDMDL
MODEL 5
REMARK VINA RESULT:      -8.0      1.851      2.987
REMARK  Name = 
REMARK  3 active torsions:
REMARK  status: ('A' for Active; 'I' for Inactive)
REMARK    1  A    between atoms: C_1  and  C_2
REMARK    2  A    between atoms: C_4  and  N_5
REMARK    3  A    between atoms: N_5  and  C_6
REMARK                            x       y       z     vdW  Elec       q    Type
REMARK                         _______ _______ _______ _____ _____    ______ ____
ROOT
ATOM      1  N   UNL     1       3.181   6.855  17.508  0.00  0.00    +0.000 N 
ATOM      2  H   UNL     1       2.857   6.667  16.538  0.00  0.00    +0.000 HD
ENDROOT
BRANCH   1   6
ATOM      3  C   UNL     1       4.094   2.667  19.902  0.00  0.00    +0.000 C 
ATOM      4  C   UNL     1       4.649   3.882  19.198  0.00  0.00    +0.000 A 
ATOM      5  C   UNL     1       3.649   4.754  18.539  0.00  0.00    +0.000 A 
ATOM      6  C   UNL     1       4.071   5.916  18.005  0.00  0.00    +0.000 A 
ATOM      7  N   UNL     1       5.475   6.148  17.982  0.00  0.00    +0.000 N 
ATOM      8  N   UNL     1       6.173   7.179  17.407  0.00  0.00    +0.000 NA
ATOM      9  C   UNL     1       7.451   6.928  17.711  0.00  0.00    +0.000 A 
ATOM     10  C   UNL     1       7.619   5.753  18.467  0.00  0.00    +0.000 A 
ATOM     11  C   UNL     1       6.357   5.247  18.612  0.00  0.00    +0.000 A 
ATOM     12  N   UNL     1       5.925   4.112  19.242  0.00  0.00    +0.000 NA
ENDBRANCH   1   6
BRANCH   1  13
ATOM     13  C   UNL     1       2.459   7.792  18.269  0.00  0.00    +0.000 A 
ATOM     14  C   UNL     1       1.915   8.925  17.648  0.00  0.00    +0.000 A 
ATOM     15  C   UNL     1       1.021   9.700  18.355  0.00  0.00    +0.000 A 
ATOM     16  C   UNL     1       0.817   9.542  19.742  0.00  0.00    +0.000 A 
ATOM     17  C   UNL     1       0.131  10.537  20.414  0.00  0.00    +0.000 A 
ATOM     18  C   UNL     1       0.145  10.586  21.798  0.00  0.00    +0.000 A 
ATOM     19  C   UNL     1       0.203   9.404  22.493  0.00  0.00    +0.000 A 
ATOM     20  C   UNL     1       0.980   8.400  21.889  0.00  0.00    +0.000 A 
ATOM     21  C   UNL     1       1.358   8.470  20.459  0.00  0.00    +0.000 A 
ATOM     22  C   UNL     1       2.140   7.584  19.667  0.00  0.00    +0.000 A 
ENDBRANCH   1  13
TORSDOF 2
ENDMDL
MODEL 6
REMARK VINA RESULT:      -7.9      1.841      3.369
REMARK  Name = 
REMARK  3 active torsions:
REMARK  status: ('A' for Active; 'I' for Inactive)
REMARK    1  A    between atoms: C_1  and  C_2
REMARK    2  A    between atoms: C_4  and  N_5
REMARK    3  A    between atoms: N_5  and  C_6
REMARK                            x       y       z     vdW  Elec       q    Type
REMARK                         _______ _______ _______ _____ _____    ______ ____
ROOT
ATOM      1  N   UNL     1       2.903   6.682  17.811  0.00  0.00    +0.000 N 
ATOM      2  H   UNL     1       2.451   6.296  16.958  0.00  0.00    +0.000 HD
ENDROOT
BRANCH   1   6
ATOM      3  C   UNL     1       7.675   5.797  18.551  0.00  0.00    +0.000 C 
ATOM      4  C   UNL     1       6.248   5.334  18.726  0.00  0.00    +0.000 A 
ATOM      5  C   UNL     1       5.205   6.300  18.311  0.00  0.00    +0.000 A 
ATOM      6  C   UNL     1       3.921   5.895  18.325  0.00  0.00    +0.000 A 
ATOM      7  N   UNL     1       3.651   4.613  18.883  0.00  0.00    +0.000 N 
ATOM      8  N   UNL     1       2.442   4.010  19.120  0.00  0.00    +0.000 NA
ATOM      9  C   UNL     1       2.759   2.809  19.617  0.00  0.00    +0.000 A 
ATOM     10  C   UNL     1       4.147   2.604  19.722  0.00  0.00    +0.000 A 
ATOM     11  C   UNL     1       4.708   3.769  19.277  0.00  0.00    +0.000 A 
ATOM     12  N   UNL     1       6.022   4.138  19.175  0.00  0.00    +0.000 NA
ENDBRANCH   1   6
BRANCH   1  13
ATOM     13  C   UNL     1       2.241   7.722  18.490  0.00  0.00    +0.000 A 
ATOM     14  C   UNL     1       1.769   8.832  17.775  0.00  0.00    +0.000 A 
ATOM     15  C   UNL     1       0.924   9.715  18.413  0.00  0.00    +0.000 A 
ATOM     16  C   UNL     1       0.710   9.684  19.806  0.00  0.00    +0.000 A 
ATOM     17  C   UNL     1       0.087  10.772  20.391  0.00  0.00    +0.000 A 
ATOM     18  C   UNL     1       0.104  10.932  21.767  0.00  0.00    +0.000 A 
ATOM     19  C   UNL     1       0.088   9.810  22.556  0.00  0.00    +0.000 A 
ATOM     20  C   UNL     1       0.802   8.713  22.040  0.00  0.00    +0.000 A 
ATOM     21  C   UNL     1       1.183   8.643  20.611  0.00  0.00    +0.000 A 
ATOM     22  C   UNL     1       1.909   7.648  19.898  0.00  0.00    +0.000 A 
ENDBRANCH   1  13
TORSDOF 2
ENDMDL
MODEL 7
REMARK VINA RESULT:      -7.9      1.858      3.736
REMARK  Name = 
REMARK  3 active torsions:
REMARK  status: ('A' for Active; 'I' for Inactive)
REMARK    1  A    between atoms: C_1  and  C_2
REMARK    2  A    between atoms: C_4  and  N_5
REMARK    3  A    between atoms: N_5  and  C_6
REMARK                            x       y       z     vdW  Elec       q    Type
REMARK                         _______ _______ _______ _____ _____    ______ ____
ROOT
ATOM      1  N   UNL     1       2.841   6.553  19.772  0.00  0.00    +0.000 N 
ATOM      2  H   UNL     1       3.676   6.576  20.391  0.00  0.00    +0.000 HD
ENDROOT
BRANCH   1   6
ATOM      3  C   UNL     1       0.779   2.217  18.744  0.00  0.00    +0.000 C 
ATOM      4  C   UNL     1       1.826   3.249  18.395  0.00  0.00    +0.000 A 
ATOM      5  C   UNL     1       1.763   4.513  19.163  0.00  0.00    +0.000 A 
ATOM      6  C   UNL     1       2.745   5.416  18.985  0.00  0.00    +0.000 A 
ATOM      7  N   UNL     1       3.692   5.151  17.955  0.00  0.00    +0.000 N 
ATOM      8  N   UNL     1       4.712   5.942  17.493  0.00  0.00    +0.000 NA
ATOM      9  C   UNL     1       5.309   5.202  16.552  0.00  0.00    +0.000 A 
ATOM     10  C   UNL     1       4.707   3.943  16.375  0.00  0.00    +0.000 A 
ATOM     11  C   UNL     1       3.660   3.929  17.255  0.00  0.00    +0.000 A 
ATOM     12  N   UNL     1       2.721   2.964  17.499  0.00  0.00    +0.000 NA
ENDBRANCH   1   6
BRANCH   1  13
ATOM     13  C   UNL     1       2.138   7.755  19.575  0.00  0.00    +0.000 A 
ATOM     14  C   UNL     1       2.111   8.346  18.304  0.00  0.00    +0.000 A 
ATOM     15  C   UNL     1       1.231   9.383  18.079  0.00  0.00    +0.000 A 
ATOM     16  C   UNL     1       0.538  10.027  19.125  0.00  0.00    +0.000 A 
ATOM     17  C   UNL     1      -0.090  11.228  18.844  0.00  0.00    +0.000 A 
ATOM     18  C   UNL     1      -0.536  12.041  19.873  0.00  0.00    +0.000 A 
ATOM     19  C   UNL     1      -0.989  11.450  21.025  0.00  0.00    +0.000 A 
ATOM     20  C   UNL     1      -0.302  10.280  21.398  0.00  0.00    +0.000 A 
ATOM     21  C   UNL     1       0.543   9.540  20.435  0.00  0.00    +0.000 A 
ATOM     22  C   UNL     1       1.325   8.363  20.608  0.00  0.00    +0.000 A 
ENDBRANCH   1  13
TORSDOF 2
ENDMDL
MODEL 8
REMARK VINA RESULT:      -7.8      1.229      3.018
REMARK  Name = 
REMARK  3 active torsions:
REMARK  status: ('A' for Active; 'I' for Inactive)
REMARK    1  A    between atoms: C_1  and  C_2
REMARK    2  A    between atoms: C_4  and  N_5
REMARK    3  A    between atoms: N_5  and  C_6
REMARK                            x       y       z     vdW  Elec       q    Type
REMARK                         _______ _______ _______ _____ _____    ______ ____
ROOT
ATOM      1  N   UNL     1       3.500   5.565  17.917  0.00  0.00    +0.000 N 
ATOM      2  H   UNL     1       2.923   4.701  17.924  0.00  0.00    +0.000 HD
ENDROOT
BRANCH   1   6
ATOM      3  C   UNL     1       8.095   5.745  19.637  0.00  0.00    +0.000 C 
ATOM      4  C   UNL     1       7.174   5.412  18.487  0.00  0.00    +0.000 A 
ATOM      5  C   UNL     1       5.725   5.505  18.779  0.00  0.00    +0.000 A 
ATOM      6  C   UNL     1       4.859   5.344  17.760  0.00  0.00    +0.000 A 
ATOM      7  N   UNL     1       5.400   4.945  16.505  0.00  0.00    +0.000 N 
ATOM      8  N   UNL     1       4.746   4.608  15.348  0.00  0.00    +0.000 NA
ATOM      9  C   UNL     1       5.724   4.351  14.474  0.00  0.00    +0.000 A 
ATOM     10  C   UNL     1       7.011   4.503  15.022  0.00  0.00    +0.000 A 
ATOM     11  C   UNL     1       6.795   4.856  16.326  0.00  0.00    +0.000 A 
ATOM     12  N   UNL     1       7.685   5.113  17.333  0.00  0.00    +0.000 NA
ENDBRANCH   1   6
BRANCH   1  13
ATOM     13  C   UNL     1       2.906   6.753  18.380  0.00  0.00    +0.000 A 
ATOM     14  C   UNL     1       2.771   7.849  17.515  0.00  0.00    +0.000 A 
ATOM     15  C   UNL     1       1.982   8.907  17.910  0.00  0.00    +0.000 A 
ATOM     16  C   UNL     1       1.505   9.043  19.231  0.00  0.00    +0.000 A 
ATOM     17  C   UNL     1       0.974  10.264  19.606  0.00  0.00    +0.000 A 
ATOM     18  C   UNL     1       0.756  10.550  20.944  0.00  0.00    +0.000 A 
ATOM     19  C   UNL     1       0.402   9.525  21.783  0.00  0.00    +0.000 A 
ATOM     20  C   UNL     1       1.006   8.288  21.493  0.00  0.00    +0.000 A 
ATOM     21  C   UNL     1       1.634   8.024  20.179  0.00  0.00    +0.000 A 
ATOM     22  C   UNL     1       2.305   6.867  19.694  0.00  0.00    +0.000 A 
ENDBRANCH   1  13
TORSDOF 2
ENDMDL
MODEL 9
REMARK VINA RESULT:      -7.8      1.822      3.703
REMARK  Name = 
REMARK  3 active torsions:
REMARK  status: ('A' for Active; 'I' for Inactive)
REMARK    1  A    between atoms: C_1  and  C_2
REMARK    2  A    between atoms: C_4  and  N_5
REMARK    3  A    between atoms: N_5  and  C_6
REMARK                            x       y       z     vdW  Elec       q    Type
REMARK                         _______ _______ _______ _____ _____    ______ ____
ROOT
ATOM      1  N   UNL     1       2.682   6.139  20.464  0.00  0.00    +0.000 N 
ATOM      2  H   UNL     1       2.852   6.005  21.480  0.00  0.00    +0.000 HD
ENDROOT
BRANCH   1   6
ATOM      3  C   UNL     1       6.618   4.699  17.906  0.00  0.00    +0.000 C 
ATOM      4  C   UNL     1       5.194   4.418  18.326  0.00  0.00    +0.000 A 
ATOM      5  C   UNL     1       4.627   5.345  19.332  0.00  0.00    +0.000 A 
ATOM      6  C   UNL     1       3.325   5.221  19.649  0.00  0.00    +0.000 A 
ATOM      7  N   UNL     1       2.626   4.107  19.102  0.00  0.00    +0.000 N 
ATOM      8  N   UNL     1       1.344   3.685  19.345  0.00  0.00    +0.000 NA
ATOM      9  C   UNL     1       1.187   2.620  18.550  0.00  0.00    +0.000 A 
ATOM     10  C   UNL     1       2.334   2.322  17.791  0.00  0.00    +0.000 A 
ATOM     11  C   UNL     1       3.256   3.259  18.169  0.00  0.00    +0.000 A 
ATOM     12  N   UNL     1       4.552   3.437  17.769  0.00  0.00    +0.000 NA
ENDBRANCH   1   6
BRANCH   1  13
ATOM     13  C   UNL     1       2.131   7.366  20.049  0.00  0.00    +0.000 A 
ATOM     14  C   UNL     1       2.302   7.795  18.725  0.00  0.00    +0.000 A 
ATOM     15  C   UNL     1       1.563   8.870  18.280  0.00  0.00    +0.000 A 
ATOM     16  C   UNL     1       0.829   9.697  19.156  0.00  0.00    +0.000 A 
ATOM     17  C   UNL     1       0.362  10.904  18.668  0.00  0.00    +0.000 A 
ATOM     18  C   UNL     1      -0.109  11.875  19.537  0.00  0.00    +0.000 A 
ATOM     19  C   UNL     1      -0.742  11.473  20.686  0.00  0.00    +0.000 A 
ATOM     20  C   UNL     1      -0.223  10.303  21.269  0.00  0.00    +0.000 A 
ATOM     21  C   UNL     1       0.642   9.377  20.504  0.00  0.00    +0.000 A 
ATOM     22  C   UNL     1       1.276   8.166  20.902  0.00  0.00    +0.000 A 
ENDBRANCH   1  13
TORSDOF 2
ENDMDL
