MODEL 1
REMARK VINA RESULT:      -7.6      0.000      0.000
REMARK  Name = 
REMARK  3 active torsions:
REMARK  status: ('A' for Active; 'I' for Inactive)
REMARK    1  A    between atoms: C_4  and  C_5
REMARK    2  A    between atoms: C_5  and  C_6
REMARK    3  A    between atoms: N_8  and  C_9
REMARK                            x       y       z     vdW  Elec       q    Type
REMARK                         _______ _______ _______ _____ _____    ______ ____
ROOT
ATOM      1  C   UNL     1       2.447   6.573  19.374  0.00  0.00    +0.000 C 
ENDROOT
BRANCH   1   5
ATOM      2  O   UNL     1       1.916   2.051  17.585  0.00  0.00    +0.000 OA
ATOM      3  C   UNL     1       1.906   2.826  18.538  0.00  0.00    +0.000 C 
ATOM      4  C   UNL     1       1.832   4.321  18.365  0.00  0.00    +0.000 C 
ATOM      5  C   UNL     1       2.503   5.040  19.537  0.00  0.00    +0.000 C 
ATOM      6  C   UNL     1       1.810   4.607  20.832  0.00  0.00    +0.000 C 
ATOM      7  C   UNL     1       1.738   3.102  20.974  0.00  0.00    +0.000 C 
ATOM      8  O   UNL     1       1.510   2.558  22.052  0.00  0.00    +0.000 OA
ATOM      9  N   UNL     1       1.861   2.361  19.827  0.00  0.00    +0.000 N 
ATOM     10  H   UNL     1       1.820   1.358  19.938  0.00  0.00    +0.000 HD
ENDBRANCH   1   5
BRANCH   1  11
ATOM     11  C   UNL     1       3.330   7.053  18.237  0.00  0.00    +0.000 C 
ATOM     12  O   UNL     1       3.015   8.014  17.542  0.00  0.00    +0.000 OA
ATOM     13  N   UNL     1       4.517   6.362  18.095  0.00  0.00    +0.000 N 
ATOM     14  H   UNL     1       4.664   5.509  18.617  0.00  0.00    +0.000 HD
BRANCH  13  15
ATOM     15  C   UNL     1       5.494   6.740  17.076  0.00  0.00    +0.000 C 
ATOM     16  C   UNL     1       6.929   6.462  17.546  0.00  0.00    +0.000 C 
ATOM     17  C   UNL     1       7.326   4.989  17.451  0.00  0.00    +0.000 C 
ATOM     18  C   UNL     1       7.082   4.437  16.053  0.00  0.00    +0.000 C 
ATOM     19  C   UNL     1       5.629   4.623  15.634  0.00  0.00    +0.000 C 
ATOM     20  C   UNL     1       5.198   6.087  15.718  0.00  0.00    +0.000 C 
ENDBRANCH  13  15
ENDBRANCH   1  11
TORSDOF 3
ENDMDL
MODEL 2
REMARK VINA RESULT:      -7.5      2.781      6.246
REMARK  Name = 
REMARK  3 active torsions:
REMARK  status: ('A' for Active; 'I' for Inactive)
REMARK    1  A    between atoms: C_4  and  C_5
REMARK    2  A    between atoms: C_5  and  C_6
REMARK    3  A    between atoms: N_8  and  C_9
REMARK                            x       y       z     vdW  Elec       q    Type
REMARK                         _______ _______ _______ _____ _____    ______ ____
ROOT
ATOM      1  C   UNL     1       4.650   5.585  16.829  0.00  0.00    +0.000 C 
ENDROOT
BRANCH   1   5
ATOM      2  O   UNL     1       7.974   5.183  20.395  0.00  0.00    +0.000 OA
ATOM      3  C   UNL     1       7.508   5.799  19.440  0.00  0.00    +0.000 C 
ATOM      4  C   UNL     1       6.128   5.527  18.897  0.00  0.00    +0.000 C 
ATOM      5  C   UNL     1       6.051   5.866  17.407  0.00  0.00    +0.000 C 
ATOM      6  C   UNL     1       6.427   7.340  17.226  0.00  0.00    +0.000 C 
ATOM      7  C   UNL     1       7.746   7.686  17.884  0.00  0.00    +0.000 C 
ATOM      8  O   UNL     1       8.368   8.707  17.601  0.00  0.00    +0.000 OA
ATOM      9  N   UNL     1       8.187   6.847  18.875  0.00  0.00    +0.000 N 
ATOM     10  H   UNL     1       9.072   7.085  19.299  0.00  0.00    +0.000 HD
ENDBRANCH   1   5
BRANCH   1  11
ATOM     11  C   UNL     1       4.195   4.165  17.113  0.00  0.00    +0.000 C 
ATOM     12  O   UNL     1       4.793   3.196  16.656  0.00  0.00    +0.000 OA
ATOM     13  N   UNL     1       3.107   4.065  17.956  0.00  0.00    +0.000 N 
ATOM     14  H   UNL     1       2.585   4.896  18.201  0.00  0.00    +0.000 HD
BRANCH  13  15
ATOM     15  C   UNL     1       2.582   2.762  18.362  0.00  0.00    +0.000 C 
ATOM     16  C   UNL     1       3.361   2.192  19.556  0.00  0.00    +0.000 C 
ATOM     17  C   UNL     1       2.972   2.821  20.893  0.00  0.00    +0.000 C 
ATOM     18  C   UNL     1       1.468   2.748  21.125  0.00  0.00    +0.000 C 
ATOM     19  C   UNL     1       0.704   3.410  19.985  0.00  0.00    +0.000 C 
ATOM     20  C   UNL     1       1.070   2.804  18.630  0.00  0.00    +0.000 C 
ENDBRANCH  13  15
ENDBRANCH   1  11
TORSDOF 3
ENDMDL
MODEL 3
REMARK VINA RESULT:      -7.5      2.426      5.744
REMARK  Name = 
REMARK  3 active torsions:
REMARK  status: ('A' for Active; 'I' for Inactive)
REMARK    1  A    between atoms: C_4  and  C_5
REMARK    2  A    between atoms: C_5  and  C_6
REMARK    3  A    between atoms: N_8  and  C_9
REMARK                            x       y       z     vdW  Elec       q    Type
REMARK                         _______ _______ _______ _____ _____    ______ ____
ROOT
ATOM      1  C   UNL     1       4.328   7.030  17.495  0.00  0.00    +0.000 C 
ENDROOT
BRANCH   1   5
ATOM      2  O   UNL     1       8.294   4.273  18.274  0.00  0.00    +0.000 OA
ATOM      3  C   UNL     1       7.403   4.669  17.525  0.00  0.00    +0.000 C 
ATOM      4  C   UNL     1       6.580   5.896  17.825  0.00  0.00    +0.000 C 
ATOM      5  C   UNL     1       5.191   5.789  17.192  0.00  0.00    +0.000 C 
ATOM      6  C   UNL     1       5.361   5.602  15.681  0.00  0.00    +0.000 C 
ATOM      7  C   UNL     1       6.298   4.463  15.340  0.00  0.00    +0.000 C 
ATOM      8  O   UNL     1       6.328   3.956  14.222  0.00  0.00    +0.000 OA
ATOM      9  N   UNL     1       7.176   4.066  16.316  0.00  0.00    +0.000 N 
ATOM     10  H   UNL     1       7.789   3.300  16.077  0.00  0.00    +0.000 HD
ENDBRANCH   1   5
BRANCH   1  11
ATOM     11  C   UNL     1       2.954   6.650  18.015  0.00  0.00    +0.000 C 
ATOM     12  O   UNL     1       2.010   7.432  17.964  0.00  0.00    +0.000 OA
ATOM     13  N   UNL     1       2.852   5.358  18.489  0.00  0.00    +0.000 N 
ATOM     14  H   UNL     1       3.688   4.804  18.616  0.00  0.00    +0.000 HD
BRANCH  13  15
ATOM     15  C   UNL     1       1.579   4.829  18.976  0.00  0.00    +0.000 C 
ATOM     16  C   UNL     1       1.362   3.381  18.518  0.00  0.00    +0.000 C 
ATOM     17  C   UNL     1       2.154   2.359  19.332  0.00  0.00    +0.000 C 
ATOM     18  C   UNL     1       1.893   2.515  20.825  0.00  0.00    +0.000 C 
ATOM     19  C   UNL     1       2.212   3.929  21.294  0.00  0.00    +0.000 C 
ATOM     20  C   UNL     1       1.435   4.978  20.499  0.00  0.00    +0.000 C 
ENDBRANCH  13  15
ENDBRANCH   1  11
TORSDOF 3
ENDMDL
MODEL 4
REMARK VINA RESULT:      -7.4      2.498      6.181
REMARK  Name = 
REMARK  3 active torsions:
REMARK  status: ('A' for Active; 'I' for Inactive)
REMARK    1  A    between atoms: C_4  and  C_5
REMARK    2  A    between atoms: C_5  and  C_6
REMARK    3  A    between atoms: N_8  and  C_9
REMARK                            x       y       z     vdW  Elec       q    Type
REMARK                         _______ _______ _______ _____ _____    ______ ____
ROOT
ATOM      1  C   UNL     1       4.913   4.564  16.793  0.00  0.00    +0.000 C 
ENDROOT
BRANCH   1   5
ATOM      2  O   UNL     1       7.956   5.256  20.560  0.00  0.00    +0.000 OA
ATOM      3  C   UNL     1       7.479   5.637  19.494  0.00  0.00    +0.000 C 
ATOM      4  C   UNL     1       6.208   5.060  18.924  0.00  0.00    +0.000 C 
ATOM      5  C   UNL     1       6.201   5.158  17.397  0.00  0.00    +0.000 C 
ATOM      6  C   UNL     1       6.354   6.631  17.006  0.00  0.00    +0.000 C 
ATOM      7  C   UNL     1       7.543   7.287  17.674  0.00  0.00    +0.000 C 
ATOM      8  O   UNL     1       8.018   8.345  17.268  0.00  0.00    +0.000 OA
ATOM      9  N   UNL     1       8.028   6.689  18.809  0.00  0.00    +0.000 N 
ATOM     10  H   UNL     1       8.827   7.133  19.239  0.00  0.00    +0.000 HD
ENDBRANCH   1   5
BRANCH   1  11
ATOM     11  C   UNL     1       3.671   5.052  17.515  0.00  0.00    +0.000 C 
ATOM     12  O   UNL     1       3.277   6.208  17.404  0.00  0.00    +0.000 OA
ATOM     13  N   UNL     1       3.011   4.086  18.247  0.00  0.00    +0.000 N 
ATOM     14  H   UNL     1       3.448   3.187  18.399  0.00  0.00    +0.000 HD
BRANCH  13  15
ATOM     15  C   UNL     1       1.771   4.392  18.958  0.00  0.00    +0.000 C 
ATOM     16  C   UNL     1       0.882   3.148  19.095  0.00  0.00    +0.000 C 
ATOM     17  C   UNL     1       1.336   2.193  20.198  0.00  0.00    +0.000 C 
ATOM     18  C   UNL     1       1.489   2.915  21.530  0.00  0.00    +0.000 C 
ATOM     19  C   UNL     1       2.456   4.088  21.411  0.00  0.00    +0.000 C 
ATOM     20  C   UNL     1       2.030   5.064  20.315  0.00  0.00    +0.000 C 
ENDBRANCH  13  15
ENDBRANCH   1  11
TORSDOF 3
ENDMDL
MODEL 5
REMARK VINA RESULT:      -7.4      2.547      6.156
REMARK  Name = 
REMARK  3 active torsions:
REMARK  status: ('A' for Active; 'I' for Inactive)
REMARK    1  A    between atoms: C_4  and  C_5
REMARK    2  A    between atoms: C_5  and  C_6
REMARK    3  A    between atoms: N_8  and  C_9
REMARK                            x       y       z     vdW  Elec       q    Type
REMARK                         _______ _______ _______ _____ _____    ______ ____
ROOT
ATOM      1  C   UNL     1       4.675   5.570  17.096  0.00  0.00    +0.000 C 
ENDROOT
BRANCH   1   5
ATOM      2  O   UNL     1       8.244   8.872  17.636  0.00  0.00    +0.000 OA
ATOM      3  C   UNL     1       7.763   7.772  17.899  0.00  0.00    +0.000 C 
ATOM      4  C   UNL     1       6.669   7.149  17.072  0.00  0.00    +0.000 C 
ATOM      5  C   UNL     1       5.809   6.212  17.922  0.00  0.00    +0.000 C 
ATOM      6  C   UNL     1       6.716   5.135  18.525  0.00  0.00    +0.000 C 
ATOM      7  C   UNL     1       7.910   5.723  19.247  0.00  0.00    +0.000 C 
ATOM      8  O   UNL     1       8.575   5.069  20.047  0.00  0.00    +0.000 OA
ATOM      9  N   UNL     1       8.272   7.002  18.913  0.00  0.00    +0.000 N 
ATOM     10  H   UNL     1       9.064   7.384  19.408  0.00  0.00    +0.000 HD
ENDBRANCH   1   5
BRANCH   1  11
ATOM     11  C   UNL     1       3.334   5.677  17.798  0.00  0.00    +0.000 C 
ATOM     12  O   UNL     1       2.714   6.734  17.841  0.00  0.00    +0.000 OA
ATOM     13  N   UNL     1       2.861   4.491  18.324  0.00  0.00    +0.000 N 
ATOM     14  H   UNL     1       3.469   3.684  18.364  0.00  0.00    +0.000 HD
BRANCH  13  15
ATOM     15  C   UNL     1       1.560   4.423  18.986  0.00  0.00    +0.000 C 
ATOM     16  C   UNL     1       0.976   3.005  18.932  0.00  0.00    +0.000 C 
ATOM     17  C   UNL     1       1.599   2.051  19.949  0.00  0.00    +0.000 C 
ATOM     18  C   UNL     1       1.536   2.623  21.360  0.00  0.00    +0.000 C 
ATOM     19  C   UNL     1       2.210   3.988  21.429  0.00  0.00    +0.000 C 
ATOM     20  C   UNL     1       1.610   4.968  20.422  0.00  0.00    +0.000 C 
ENDBRANCH  13  15
ENDBRANCH   1  11
TORSDOF 3
ENDMDL
MODEL 6
REMARK VINA RESULT:      -7.3      1.895      3.418
REMARK  Name = 
REMARK  3 active torsions:
REMARK  status: ('A' for Active; 'I' for Inactive)
REMARK    1  A    between atoms: C_4  and  C_5
REMARK    2  A    between atoms: C_5  and  C_6
REMARK    3  A    between atoms: N_8  and  C_9
REMARK                            x       y       z     vdW  Elec       q    Type
REMARK                         _______ _______ _______ _____ _____    ______ ____
ROOT
ATOM      1  C   UNL     1       3.388   3.456  17.373  0.00  0.00    +0.000 C 
ENDROOT
BRANCH   1   5
ATOM      2  O   UNL     1       2.135   3.259  22.098  0.00  0.00    +0.000 OA
ATOM      3  C   UNL     1       2.275   3.902  21.060  0.00  0.00    +0.000 C 
ATOM      4  C   UNL     1       2.413   3.242  19.712  0.00  0.00    +0.000 C 
ATOM      5  C   UNL     1       3.226   4.118  18.757  0.00  0.00    +0.000 C 
ATOM      6  C   UNL     1       2.527   5.475  18.631  0.00  0.00    +0.000 C 
ATOM      7  C   UNL     1       2.242   6.107  19.976  0.00  0.00    +0.000 C 
ATOM      8  O   UNL     1       1.979   7.301  20.094  0.00  0.00    +0.000 OA
ATOM      9  N   UNL     1       2.212   5.271  21.063  0.00  0.00    +0.000 N 
ATOM     10  H   UNL     1       2.030   5.707  21.955  0.00  0.00    +0.000 HD
ENDBRANCH   1   5
BRANCH   1  11
ATOM     11  C   UNL     1       4.697   3.845  16.710  0.00  0.00    +0.000 C 
ATOM     12  O   UNL     1       4.798   3.929  15.491  0.00  0.00    +0.000 OA
ATOM     13  N   UNL     1       5.723   4.140  17.585  0.00  0.00    +0.000 N 
ATOM     14  H   UNL     1       5.615   3.937  18.570  0.00  0.00    +0.000 HD
BRANCH  13  15
ATOM     15  C   UNL     1       7.029   4.579  17.099  0.00  0.00    +0.000 C 
ATOM     16  C   UNL     1       6.929   5.913  16.347  0.00  0.00    +0.000 C 
ATOM     17  C   UNL     1       6.812   7.125  17.271  0.00  0.00    +0.000 C 
ATOM     18  C   UNL     1       7.935   7.150  18.300  0.00  0.00    +0.000 C 
ATOM     19  C   UNL     1       7.963   5.862  19.114  0.00  0.00    +0.000 C 
ATOM     20  C   UNL     1       8.079   4.629  18.219  0.00  0.00    +0.000 C 
ENDBRANCH  13  15
ENDBRANCH   1  11
TORSDOF 3
ENDMDL
MODEL 7
REMARK VINA RESULT:      -7.1      1.438      1.592
REMARK  Name = 
REMARK  3 active torsions:
REMARK  status: ('A' for Active; 'I' for Inactive)
REMARK    1  A    between atoms: C_4  and  C_5
REMARK    2  A    between atoms: C_5  and  C_6
REMARK    3  A    between atoms: N_8  and  C_9
REMARK                            x       y       z     vdW  Elec       q    Type
REMARK                         _______ _______ _______ _____ _____    ______ ____
ROOT
ATOM      1  C   UNL     1       1.968   5.203  18.559  0.00  0.00    +0.000 C 
ENDROOT
BRANCH   1   5
ATOM      2  O   UNL     1       5.007   1.853  20.423  0.00  0.00    +0.000 OA
ATOM      3  C   UNL     1       3.926   2.436  20.442  0.00  0.00    +0.000 C 
ATOM      4  C   UNL     1       3.420   3.241  19.271  0.00  0.00    +0.000 C 
ATOM      5  C   UNL     1       2.489   4.360  19.741  0.00  0.00    +0.000 C 
ATOM      6  C   UNL     1       1.325   3.731  20.513  0.00  0.00    +0.000 C 
ATOM      7  C   UNL     1       1.795   2.800  21.610  0.00  0.00    +0.000 C 
ATOM      8  O   UNL     1       1.056   2.445  22.525  0.00  0.00    +0.000 OA
ATOM      9  N   UNL     1       3.067   2.301  21.502  0.00  0.00    +0.000 N 
ATOM     10  H   UNL     1       3.370   1.689  22.245  0.00  0.00    +0.000 HD
ENDBRANCH   1   5
BRANCH   1  11
ATOM     11  C   UNL     1       3.020   6.170  18.047  0.00  0.00    +0.000 C 
ATOM     12  O   UNL     1       2.969   7.368  18.303  0.00  0.00    +0.000 OA
ATOM     13  N   UNL     1       4.043   5.584  17.329  0.00  0.00    +0.000 N 
ATOM     14  H   UNL     1       3.966   4.615  17.048  0.00  0.00    +0.000 HD
BRANCH  13  15
ATOM     15  C   UNL     1       5.156   6.378  16.812  0.00  0.00    +0.000 C 
ATOM     16  C   UNL     1       6.474   6.015  17.508  0.00  0.00    +0.000 C 
ATOM     17  C   UNL     1       7.097   4.718  16.994  0.00  0.00    +0.000 C 
ATOM     18  C   UNL     1       7.256   4.741  15.479  0.00  0.00    +0.000 C 
ATOM     19  C   UNL     1       5.922   4.999  14.790  0.00  0.00    +0.000 C 
ATOM     20  C   UNL     1       5.271   6.290  15.283  0.00  0.00    +0.000 C 
ENDBRANCH  13  15
ENDBRANCH   1  11
TORSDOF 3
ENDMDL
MODEL 8
REMARK VINA RESULT:      -7.0      0.550      1.978
REMARK  Name = 
REMARK  3 active torsions:
REMARK  status: ('A' for Active; 'I' for Inactive)
REMARK    1  A    between atoms: C_4  and  C_5
REMARK    2  A    between atoms: C_5  and  C_6
REMARK    3  A    between atoms: N_8  and  C_9
REMARK                            x       y       z     vdW  Elec       q    Type
REMARK                         _______ _______ _______ _____ _____    ______ ____
ROOT
ATOM      1  C   UNL     1       2.411   6.628  19.805  0.00  0.00    +0.000 C 
ENDROOT
BRANCH   1   5
ATOM      2  O   UNL     1       1.498   2.476  22.226  0.00  0.00    +0.000 OA
ATOM      3  C   UNL     1       1.698   3.069  21.169  0.00  0.00    +0.000 C 
ATOM      4  C   UNL     1       2.294   4.453  21.118  0.00  0.00    +0.000 C 
ATOM      5  C   UNL     1       1.821   5.204  19.872  0.00  0.00    +0.000 C 
ATOM      6  C   UNL     1       2.221   4.393  18.636  0.00  0.00    +0.000 C 
ATOM      7  C   UNL     1       1.761   2.953  18.715  0.00  0.00    +0.000 C 
ATOM      8  O   UNL     1       1.705   2.230  17.723  0.00  0.00    +0.000 OA
ATOM      9  N   UNL     1       1.481   2.456  19.962  0.00  0.00    +0.000 N 
ATOM     10  H   UNL     1       1.168   1.497  19.999  0.00  0.00    +0.000 HD
ENDBRANCH   1   5
BRANCH   1  11
ATOM     11  C   UNL     1       3.070   6.905  18.466  0.00  0.00    +0.000 C 
ATOM     12  O   UNL     1       2.523   7.596  17.613  0.00  0.00    +0.000 OA
ATOM     13  N   UNL     1       4.333   6.367  18.321  0.00  0.00    +0.000 N 
ATOM     14  H   UNL     1       4.678   5.710  19.008  0.00  0.00    +0.000 HD
BRANCH  13  15
ATOM     15  C   UNL     1       5.115   6.590  17.107  0.00  0.00    +0.000 C 
ATOM     16  C   UNL     1       6.585   6.889  17.434  0.00  0.00    +0.000 C 
ATOM     17  C   UNL     1       7.395   5.642  17.786  0.00  0.00    +0.000 C 
ATOM     18  C   UNL     1       7.272   4.575  16.706  0.00  0.00    +0.000 C 
ATOM     19  C   UNL     1       5.813   4.208  16.460  0.00  0.00    +0.000 C 
ATOM     20  C   UNL     1       4.973   5.434  16.105  0.00  0.00    +0.000 C 
ENDBRANCH  13  15
ENDBRANCH   1  11
TORSDOF 3
ENDMDL
MODEL 9
REMARK VINA RESULT:      -7.0      1.552      2.280
REMARK  Name = 
REMARK  3 active torsions:
REMARK  status: ('A' for Active; 'I' for Inactive)
REMARK    1  A    between atoms: C_4  and  C_5
REMARK    2  A    between atoms: C_5  and  C_6
REMARK    3  A    between atoms: N_8  and  C_9
REMARK                            x       y       z     vdW  Elec       q    Type
REMARK                         _______ _______ _______ _____ _____    ______ ____
ROOT
ATOM      1  C   UNL     1       1.557   4.581  18.188  0.00  0.00    +0.000 C 
ENDROOT
BRANCH   1   5
ATOM      2  O   UNL     1       1.100   2.525  22.604  0.00  0.00    +0.000 OA
ATOM      3  C   UNL     1       1.782   2.779  21.613  0.00  0.00    +0.000 C 
ATOM      4  C   UNL     1       1.396   3.841  20.616  0.00  0.00    +0.000 C 
ATOM      5  C   UNL     1       1.950   3.512  19.228  0.00  0.00    +0.000 C 
ATOM      6  C   UNL     1       3.473   3.389  19.331  0.00  0.00    +0.000 C 
ATOM      7  C   UNL     1       3.904   2.434  20.423  0.00  0.00    +0.000 C 
ATOM      8  O   UNL     1       5.038   1.964  20.469  0.00  0.00    +0.000 OA
ATOM      9  N   UNL     1       2.995   2.172  21.416  0.00  0.00    +0.000 N 
ATOM     10  H   UNL     1       3.293   1.527  22.133  0.00  0.00    +0.000 HD
ENDBRANCH   1   5
BRANCH   1  11
ATOM     11  C   UNL     1       2.648   5.621  18.007  0.00  0.00    +0.000 C 
ATOM     12  O   UNL     1       2.611   6.699  18.592  0.00  0.00    +0.000 OA
ATOM     13  N   UNL     1       3.686   5.232  17.185  0.00  0.00    +0.000 N 
ATOM     14  H   UNL     1       3.602   4.385  16.639  0.00  0.00    +0.000 HD
BRANCH  13  15
ATOM     15  C   UNL     1       4.835   6.105  16.953  0.00  0.00    +0.000 C 
ATOM     16  C   UNL     1       5.880   5.966  18.067  0.00  0.00    +0.000 C 
ATOM     17  C   UNL     1       6.745   4.713  17.938  0.00  0.00    +0.000 C 
ATOM     18  C   UNL     1       7.387   4.621  16.559  0.00  0.00    +0.000 C 
ATOM     19  C   UNL     1       6.333   4.655  15.459  0.00  0.00    +0.000 C 
ATOM     20  C   UNL     1       5.449   5.897  15.560  0.00  0.00    +0.000 C 
ENDBRANCH  13  15
ENDBRANCH   1  11
TORSDOF 3
ENDMDL
