MODEL 1
REMARK VINA RESULT:      -8.2      0.000      0.000
REMARK  Name = 
REMARK  7 active torsions:
REMARK  status: ('A' for Active; 'I' for Inactive)
REMARK    1  A    between atoms: C_1  and  O_2
REMARK    2  A    between atoms: O_2  and  C_3
REMARK    3  A    between atoms: C_6  and  C_7
REMARK    4  A    between atoms: C_7  and  N_8
REMARK    5  A    between atoms: C_9  and  C_11
REMARK    6  A    between atoms: C_11  and  N_12
REMARK    7  A    between atoms: C_18  and  N_19
REMARK                            x       y       z     vdW  Elec       q    Type
REMARK                         _______ _______ _______ _____ _____    ______ ____
ROOT
ATOM      1  C   UNL     1       6.507   6.919  16.430  0.00  0.00    +0.000 C 
ENDROOT
BRANCH   1   2
ATOM      2  N   UNL     1       5.450   6.010  16.866  0.00  0.00    +0.000 N 
ATOM      3  C   UNL     1       5.617   4.664  16.754  0.00  0.00    +0.000 C 
ATOM      4  O   UNL     1       6.504   4.058  16.182  0.00  0.00    +0.000 OA
ATOM      5  C   UNL     1       4.498   4.027  17.423  0.00  0.00    +0.000 A 
ATOM      6  C   UNL     1       4.296   2.676  17.654  0.00  0.00    +0.000 A 
ATOM      7  C   UNL     1       3.104   2.305  18.263  0.00  0.00    +0.000 A 
ATOM      8  C   UNL     1       2.137   3.287  18.590  0.00  0.00    +0.000 A 
ATOM      9  C   UNL     1       2.375   4.664  18.356  0.00  0.00    +0.000 A 
ATOM     10  C   UNL     1       3.599   5.010  17.789  0.00  0.00    +0.000 A 
ATOM     11  C   UNL     1       4.245   6.304  17.454  0.00  0.00    +0.000 C 
ATOM     12  O   UNL     1       3.754   7.395  17.723  0.00  0.00    +0.000 OA
BRANCH   8  13
ATOM     13  N   UNL     1       0.868   2.836  19.184  0.00  0.00    +0.000 N 
ATOM     14  O   UNL     1       0.636   3.156  20.360  0.00  0.00    +0.000 OA
ATOM     15  O   UNL     1       0.110   2.162  18.474  0.00  0.00    +0.000 OA
ENDBRANCH   8  13
ENDBRANCH   1   2
BRANCH   1  17
ATOM     16  N   UNL     1       7.842   8.742  17.491  0.00  0.00    +0.000 N 
ATOM     17  C   UNL     1       7.440   7.419  17.543  0.00  0.00    +0.000 C 
ATOM     18  O   UNL     1       7.809   6.657  18.436  0.00  0.00    +0.000 OA
ATOM     19  H   UNL     1       7.396   9.376  16.838  0.00  0.00    +0.000 HD
BRANCH  16  20
ATOM     20  C   UNL     1       8.674   9.308  18.550  0.00  0.00    +0.000 C 
BRANCH  20  24
ATOM     21  C   UNL     1      10.164  13.305  17.712  0.00  0.00    +0.000 A 
ATOM     22  C   UNL     1      11.015  12.305  18.179  0.00  0.00    +0.000 A 
ATOM     23  C   UNL     1      10.527  11.019  18.444  0.00  0.00    +0.000 A 
ATOM     24  C   UNL     1       9.169  10.711  18.272  0.00  0.00    +0.000 A 
ATOM     25  C   UNL     1       8.321  11.721  17.791  0.00  0.00    +0.000 A 
ATOM     26  C   UNL     1       8.815  13.007  17.518  0.00  0.00    +0.000 A 
BRANCH  21  28
ATOM     27  C   UNL     1      10.082  15.627  18.132  0.00  0.00    +0.000 C 
ATOM     28  O   UNL     1      10.742  14.528  17.509  0.00  0.00    +0.000 OA
ENDBRANCH  21  28
ENDBRANCH  20  24
ENDBRANCH  16  20
ENDBRANCH   1  17
TORSDOF 6
ENDMDL
MODEL 2
REMARK VINA RESULT:      -8.2      0.452      1.163
REMARK  Name = 
REMARK  7 active torsions:
REMARK  status: ('A' for Active; 'I' for Inactive)
REMARK    1  A    between atoms: C_1  and  O_2
REMARK    2  A    between atoms: O_2  and  C_3
REMARK    3  A    between atoms: C_6  and  C_7
REMARK    4  A    between atoms: C_7  and  N_8
REMARK    5  A    between atoms: C_9  and  C_11
REMARK    6  A    between atoms: C_11  and  N_12
REMARK    7  A    between atoms: C_18  and  N_19
REMARK                            x       y       z     vdW  Elec       q    Type
REMARK                         _______ _______ _______ _____ _____    ______ ____
ROOT
ATOM      1  C   UNL     1       6.561   7.009  16.578  0.00  0.00    +0.000 C 
ENDROOT
BRANCH   1   2
ATOM      2  N   UNL     1       5.502   6.087  16.979  0.00  0.00    +0.000 N 
ATOM      3  C   UNL     1       5.675   4.745  16.838  0.00  0.00    +0.000 C 
ATOM      4  O   UNL     1       6.571   4.154  16.263  0.00  0.00    +0.000 OA
ATOM      5  C   UNL     1       4.549   4.088  17.477  0.00  0.00    +0.000 A 
ATOM      6  C   UNL     1       4.350   2.731  17.674  0.00  0.00    +0.000 A 
ATOM      7  C   UNL     1       3.152   2.341  18.258  0.00  0.00    +0.000 A 
ATOM      8  C   UNL     1       2.177   3.313  18.596  0.00  0.00    +0.000 A 
ATOM      9  C   UNL     1       2.413   4.695  18.397  0.00  0.00    +0.000 A 
ATOM     10  C   UNL     1       3.642   5.059  17.854  0.00  0.00    +0.000 A 
ATOM     11  C   UNL     1       4.288   6.363  17.557  0.00  0.00    +0.000 C 
ATOM     12  O   UNL     1       3.790   7.445  17.845  0.00  0.00    +0.000 OA
BRANCH   8  13
ATOM     13  N   UNL     1       0.902   2.843  19.163  0.00  0.00    +0.000 N 
ATOM     14  O   UNL     1       0.146   2.196  18.423  0.00  0.00    +0.000 OA
ATOM     15  O   UNL     1       0.660   3.126  20.343  0.00  0.00    +0.000 OA
ENDBRANCH   8  13
ENDBRANCH   1   2
BRANCH   1  17
ATOM     16  N   UNL     1       7.955   8.746  17.704  0.00  0.00    +0.000 N 
ATOM     17  C   UNL     1       7.518   7.433  17.702  0.00  0.00    +0.000 C 
ATOM     18  O   UNL     1       7.875   6.623  18.555  0.00  0.00    +0.000 OA
ATOM     19  H   UNL     1       7.521   9.421  17.084  0.00  0.00    +0.000 HD
BRANCH  16  20
ATOM     20  C   UNL     1       8.814   9.242  18.777  0.00  0.00    +0.000 C 
BRANCH  20  24
ATOM     21  C   UNL     1      10.058  13.376  18.272  0.00  0.00    +0.000 A 
ATOM     22  C   UNL     1       8.925  12.883  17.627  0.00  0.00    +0.000 A 
ATOM     23  C   UNL     1       8.531  11.551  17.797  0.00  0.00    +0.000 A 
ATOM     24  C   UNL     1       9.275  10.672  18.597  0.00  0.00    +0.000 A 
ATOM     25  C   UNL     1      10.408  11.179  19.252  0.00  0.00    +0.000 A 
ATOM     26  C   UNL     1      10.797  12.519  19.087  0.00  0.00    +0.000 A 
BRANCH  21  28
ATOM     27  C   UNL     1      11.515  15.186  18.690  0.00  0.00    +0.000 C 
ATOM     28  O   UNL     1      10.364  14.685  18.017  0.00  0.00    +0.000 OA
ENDBRANCH  21  28
ENDBRANCH  20  24
ENDBRANCH  16  20
ENDBRANCH   1  17
TORSDOF 6
ENDMDL
MODEL 3
REMARK VINA RESULT:      -8.0      1.034      1.430
REMARK  Name = 
REMARK  7 active torsions:
REMARK  status: ('A' for Active; 'I' for Inactive)
REMARK    1  A    between atoms: C_1  and  O_2
REMARK    2  A    between atoms: O_2  and  C_3
REMARK    3  A    between atoms: C_6  and  C_7
REMARK    4  A    between atoms: C_7  and  N_8
REMARK    5  A    between atoms: C_9  and  C_11
REMARK    6  A    between atoms: C_11  and  N_12
REMARK    7  A    between atoms: C_18  and  N_19
REMARK                            x       y       z     vdW  Elec       q    Type
REMARK                         _______ _______ _______ _____ _____    ______ ____
ROOT
ATOM      1  C   UNL     1       7.266   7.025  16.938  0.00  0.00    +0.000 C 
ENDROOT
BRANCH   1   2
ATOM      2  N   UNL     1       6.157   6.195  17.402  0.00  0.00    +0.000 N 
ATOM      3  C   UNL     1       6.403   4.981  17.967  0.00  0.00    +0.000 C 
ATOM      4  O   UNL     1       7.456   4.374  18.025  0.00  0.00    +0.000 OA
ATOM      5  C   UNL     1       5.144   4.476  18.484  0.00  0.00    +0.000 A 
ATOM      6  C   UNL     1       4.925   3.330  19.230  0.00  0.00    +0.000 A 
ATOM      7  C   UNL     1       3.609   3.023  19.555  0.00  0.00    +0.000 A 
ATOM      8  C   UNL     1       2.553   3.849  19.097  0.00  0.00    +0.000 A 
ATOM      9  C   UNL     1       2.807   5.024  18.348  0.00  0.00    +0.000 A 
ATOM     10  C   UNL     1       4.138   5.331  18.079  0.00  0.00    +0.000 A 
ATOM     11  C   UNL     1       4.813   6.469  17.403  0.00  0.00    +0.000 C 
ATOM     12  O   UNL     1       4.218   7.458  16.989  0.00  0.00    +0.000 OA
BRANCH   8  13
ATOM     13  N   UNL     1       1.174   3.451  19.423  0.00  0.00    +0.000 N 
ATOM     14  O   UNL     1       0.660   2.547  18.747  0.00  0.00    +0.000 OA
ATOM     15  O   UNL     1       0.610   4.044  20.352  0.00  0.00    +0.000 OA
ENDBRANCH   8  13
ENDBRANCH   1   2
BRANCH   1  17
ATOM     16  N   UNL     1       8.223   9.134  17.868  0.00  0.00    +0.000 N 
ATOM     17  C   UNL     1       8.026   7.775  18.042  0.00  0.00    +0.000 C 
ATOM     18  O   UNL     1       8.440   7.174  19.032  0.00  0.00    +0.000 OA
ATOM     19  H   UNL     1       7.736   9.621  17.125  0.00  0.00    +0.000 HD
BRANCH  16  20
ATOM     20  C   UNL     1       8.879   9.928  18.904  0.00  0.00    +0.000 C 
BRANCH  20  24
ATOM     21  C   UNL     1      10.531  13.722  17.574  0.00  0.00    +0.000 A 
ATOM     22  C   UNL     1       9.326  13.669  18.270  0.00  0.00    +0.000 A 
ATOM     23  C   UNL     1       8.802  12.442  18.697  0.00  0.00    +0.000 A 
ATOM     24  C   UNL     1       9.460  11.237  18.415  0.00  0.00    +0.000 A 
ATOM     25  C   UNL     1      10.680  11.300  17.722  0.00  0.00    +0.000 A 
ATOM     26  C   UNL     1      11.208  12.533  17.303  0.00  0.00    +0.000 A 
BRANCH  21  28
ATOM     27  C   UNL     1       9.990  16.013  17.393  0.00  0.00    +0.000 C 
ATOM     28  O   UNL     1      10.938  14.969  17.185  0.00  0.00    +0.000 OA
ENDBRANCH  21  28
ENDBRANCH  20  24
ENDBRANCH  16  20
ENDBRANCH   1  17
TORSDOF 6
ENDMDL
MODEL 4
REMARK VINA RESULT:      -8.0      1.685      2.289
REMARK  Name = 
REMARK  7 active torsions:
REMARK  status: ('A' for Active; 'I' for Inactive)
REMARK    1  A    between atoms: C_1  and  O_2
REMARK    2  A    between atoms: O_2  and  C_3
REMARK    3  A    between atoms: C_6  and  C_7
REMARK    4  A    between atoms: C_7  and  N_8
REMARK    5  A    between atoms: C_9  and  C_11
REMARK    6  A    between atoms: C_11  and  N_12
REMARK    7  A    between atoms: C_18  and  N_19
REMARK                            x       y       z     vdW  Elec       q    Type
REMARK                         _______ _______ _______ _____ _____    ______ ____
ROOT
ATOM      1  C   UNL     1       8.093   7.303  17.501  0.00  0.00    +0.000 C 
ENDROOT
BRANCH   1   2
ATOM      2  N   UNL     1       6.960   6.457  17.866  0.00  0.00    +0.000 N 
ATOM      3  C   UNL     1       5.911   6.315  17.011  0.00  0.00    +0.000 C 
ATOM      4  O   UNL     1       5.683   6.929  15.985  0.00  0.00    +0.000 OA
ATOM      5  C   UNL     1       5.037   5.292  17.556  0.00  0.00    +0.000 A 
ATOM      6  C   UNL     1       3.905   4.739  16.980  0.00  0.00    +0.000 A 
ATOM      7  C   UNL     1       3.194   3.813  17.733  0.00  0.00    +0.000 A 
ATOM      8  C   UNL     1       3.615   3.494  19.048  0.00  0.00    +0.000 A 
ATOM      9  C   UNL     1       4.786   4.063  19.607  0.00  0.00    +0.000 A 
ATOM     10  C   UNL     1       5.504   4.951  18.810  0.00  0.00    +0.000 A 
ATOM     11  C   UNL     1       6.779   5.691  18.990  0.00  0.00    +0.000 C 
ATOM     12  O   UNL     1       7.506   5.557  19.967  0.00  0.00    +0.000 OA
BRANCH   8  13
ATOM     13  N   UNL     1       2.797   2.547  19.825  0.00  0.00    +0.000 N 
ATOM     14  O   UNL     1       2.910   2.567  21.059  0.00  0.00    +0.000 OA
ATOM     15  O   UNL     1       2.048   1.788  19.197  0.00  0.00    +0.000 OA
ENDBRANCH   8  13
ENDBRANCH   1   2
BRANCH   1  17
ATOM     16  N   UNL     1       8.985   8.952  19.150  0.00  0.00    +0.000 N 
ATOM     17  C   UNL     1       8.087   8.707  18.126  0.00  0.00    +0.000 C 
ATOM     18  O   UNL     1       7.305   9.566  17.721  0.00  0.00    +0.000 OA
ATOM     19  H   UNL     1       9.716   8.278  19.349  0.00  0.00    +0.000 HD
BRANCH  16  20
ATOM     20  C   UNL     1       9.085  10.280  19.749  0.00  0.00    +0.000 C 
BRANCH  20  24
ATOM     21  C   UNL     1      11.157  13.255  17.349  0.00  0.00    +0.000 A 
ATOM     22  C   UNL     1       9.777  13.316  17.535  0.00  0.00    +0.000 A 
ATOM     23  C   UNL     1       9.119  12.355  18.311  0.00  0.00    +0.000 A 
ATOM     24  C   UNL     1       9.822  11.294  18.900  0.00  0.00    +0.000 A 
ATOM     25  C   UNL     1      11.213  11.246  18.717  0.00  0.00    +0.000 A 
ATOM     26  C   UNL     1      11.873  12.217  17.945  0.00  0.00    +0.000 A 
BRANCH  21  28
ATOM     27  C   UNL     1      11.272  15.560  16.851  0.00  0.00    +0.000 C 
ATOM     28  O   UNL     1      11.693  14.231  16.554  0.00  0.00    +0.000 OA
ENDBRANCH  21  28
ENDBRANCH  20  24
ENDBRANCH  16  20
ENDBRANCH   1  17
TORSDOF 6
ENDMDL
MODEL 5
REMARK VINA RESULT:      -8.0      4.913      6.910
REMARK  Name = 
REMARK  7 active torsions:
REMARK  status: ('A' for Active; 'I' for Inactive)
REMARK    1  A    between atoms: C_1  and  O_2
REMARK    2  A    between atoms: O_2  and  C_3
REMARK    3  A    between atoms: C_6  and  C_7
REMARK    4  A    between atoms: C_7  and  N_8
REMARK    5  A    between atoms: C_9  and  C_11
REMARK    6  A    between atoms: C_11  and  N_12
REMARK    7  A    between atoms: C_18  and  N_19
REMARK                            x       y       z     vdW  Elec       q    Type
REMARK                         _______ _______ _______ _____ _____    ______ ____
ROOT
ATOM      1  C   UNL     1       3.186   3.353  19.872  0.00  0.00    +0.000 C 
ENDROOT
BRANCH   1   2
ATOM      2  N   UNL     1       3.991   3.722  18.711  0.00  0.00    +0.000 N 
ATOM      3  C   UNL     1       5.212   4.298  18.880  0.00  0.00    +0.000 C 
ATOM      4  O   UNL     1       5.717   4.712  19.908  0.00  0.00    +0.000 OA
ATOM      5  C   UNL     1       5.841   4.384  17.575  0.00  0.00    +0.000 A 
ATOM      6  C   UNL     1       7.126   4.802  17.271  0.00  0.00    +0.000 A 
ATOM      7  C   UNL     1       7.478   4.858  15.928  0.00  0.00    +0.000 A 
ATOM      8  C   UNL     1       6.527   4.529  14.931  0.00  0.00    +0.000 A 
ATOM      9  C   UNL     1       5.223   4.090  15.270  0.00  0.00    +0.000 A 
ATOM     10  C   UNL     1       4.916   3.999  16.625  0.00  0.00    +0.000 A 
ATOM     11  C   UNL     1       3.723   3.534  17.378  0.00  0.00    +0.000 C 
ATOM     12  O   UNL     1       2.735   3.043  16.843  0.00  0.00    +0.000 OA
BRANCH   8  13
ATOM     13  N   UNL     1       6.932   4.657  13.521  0.00  0.00    +0.000 N 
ATOM     14  O   UNL     1       6.398   3.899  12.698  0.00  0.00    +0.000 OA
ATOM     15  O   UNL     1       7.784   5.511  13.245  0.00  0.00    +0.000 OA
ENDBRANCH   8  13
ENDBRANCH   1   2
BRANCH   1  17
ATOM     16  N   UNL     1       2.412   5.629  20.544  0.00  0.00    +0.000 N 
ATOM     17  C   UNL     1       2.055   4.332  20.220  0.00  0.00    +0.000 C 
ATOM     18  O   UNL     1       0.883   3.959  20.212  0.00  0.00    +0.000 OA
ATOM     19  H   UNL     1       3.364   5.941  20.388  0.00  0.00    +0.000 HD
BRANCH  16  20
ATOM     20  C   UNL     1       1.390   6.634  20.822  0.00  0.00    +0.000 C 
BRANCH  20  24
ATOM     21  C   UNL     1       1.863  10.316  18.560  0.00  0.00    +0.000 A 
ATOM     22  C   UNL     1       2.324   9.101  18.058  0.00  0.00    +0.000 A 
ATOM     23  C   UNL     1       2.165   7.920  18.792  0.00  0.00    +0.000 A 
ATOM     24  C   UNL     1       1.563   7.930  20.059  0.00  0.00    +0.000 A 
ATOM     25  C   UNL     1       1.092   9.157  20.553  0.00  0.00    +0.000 A 
ATOM     26  C   UNL     1       1.244  10.340  19.810  0.00  0.00    +0.000 A 
BRANCH  21  28
ATOM     27  C   UNL     1       1.711  12.662  18.334  0.00  0.00    +0.000 C 
ATOM     28  O   UNL     1       2.091  11.410  17.769  0.00  0.00    +0.000 OA
ENDBRANCH  21  28
ENDBRANCH  20  24
ENDBRANCH  16  20
ENDBRANCH   1  17
TORSDOF 6
ENDMDL
MODEL 6
REMARK VINA RESULT:      -7.9      1.043      1.215
REMARK  Name = 
REMARK  7 active torsions:
REMARK  status: ('A' for Active; 'I' for Inactive)
REMARK    1  A    between atoms: C_1  and  O_2
REMARK    2  A    between atoms: O_2  and  C_3
REMARK    3  A    between atoms: C_6  and  C_7
REMARK    4  A    between atoms: C_7  and  N_8
REMARK    5  A    between atoms: C_9  and  C_11
REMARK    6  A    between atoms: C_11  and  N_12
REMARK    7  A    between atoms: C_18  and  N_19
REMARK                            x       y       z     vdW  Elec       q    Type
REMARK                         _______ _______ _______ _____ _____    ______ ____
ROOT
ATOM      1  C   UNL     1       6.319   7.130  16.536  0.00  0.00    +0.000 C 
ENDROOT
BRANCH   1   2
ATOM      2  N   UNL     1       5.290   6.164  16.909  0.00  0.00    +0.000 N 
ATOM      3  C   UNL     1       5.459   4.843  16.628  0.00  0.00    +0.000 C 
ATOM      4  O   UNL     1       6.320   4.320  15.946  0.00  0.00    +0.000 OA
ATOM      5  C   UNL     1       4.376   4.118  17.267  0.00  0.00    +0.000 A 
ATOM      6  C   UNL     1       4.194   2.747  17.343  0.00  0.00    +0.000 A 
ATOM      7  C   UNL     1       3.034   2.291  17.958  0.00  0.00    +0.000 A 
ATOM      8  C   UNL     1       2.078   3.216  18.446  0.00  0.00    +0.000 A 
ATOM      9  C   UNL     1       2.297   4.613  18.368  0.00  0.00    +0.000 A 
ATOM     10  C   UNL     1       3.490   5.039  17.790  0.00  0.00    +0.000 A 
ATOM     11  C   UNL     1       4.112   6.372  17.583  0.00  0.00    +0.000 C 
ATOM     12  O   UNL     1       3.629   7.416  18.005  0.00  0.00    +0.000 OA
BRANCH   8  13
ATOM     13  N   UNL     1       0.841   2.682  19.040  0.00  0.00    +0.000 N 
ATOM     14  O   UNL     1       0.135   1.947  18.335  0.00  0.00    +0.000 OA
ATOM     15  O   UNL     1       0.582   3.002  20.207  0.00  0.00    +0.000 OA
ENDBRANCH   8  13
ENDBRANCH   1   2
BRANCH   1  17
ATOM     16  N   UNL     1       7.897   8.646  17.738  0.00  0.00    +0.000 N 
ATOM     17  C   UNL     1       7.414   7.358  17.590  0.00  0.00    +0.000 C 
ATOM     18  O   UNL     1       7.835   6.419  18.264  0.00  0.00    +0.000 OA
ATOM     19  H   UNL     1       7.421   9.417  17.282  0.00  0.00    +0.000 HD
BRANCH  16  20
ATOM     20  C   UNL     1       8.890   8.954  18.764  0.00  0.00    +0.000 C 
BRANCH  20  24
ATOM     21  C   UNL     1       9.699  13.181  19.374  0.00  0.00    +0.000 A 
ATOM     22  C   UNL     1       9.791  12.274  20.427  0.00  0.00    +0.000 A 
ATOM     23  C   UNL     1       9.531  10.914  20.221  0.00  0.00    +0.000 A 
ATOM     24  C   UNL     1       9.147  10.433  18.961  0.00  0.00    +0.000 A 
ATOM     25  C   UNL     1       9.068  11.352  17.903  0.00  0.00    +0.000 A 
ATOM     26  C   UNL     1       9.338  12.715  18.110  0.00  0.00    +0.000 A 
BRANCH  21  28
ATOM     27  C   UNL     1       9.088  15.055  20.673  0.00  0.00    +0.000 C 
ATOM     28  O   UNL     1       9.952  14.488  19.693  0.00  0.00    +0.000 OA
ENDBRANCH  21  28
ENDBRANCH  20  24
ENDBRANCH  16  20
ENDBRANCH   1  17
TORSDOF 6
ENDMDL
MODEL 7
REMARK VINA RESULT:      -7.8      4.946      6.994
REMARK  Name = 
REMARK  7 active torsions:
REMARK  status: ('A' for Active; 'I' for Inactive)
REMARK    1  A    between atoms: C_1  and  O_2
REMARK    2  A    between atoms: O_2  and  C_3
REMARK    3  A    between atoms: C_6  and  C_7
REMARK    4  A    between atoms: C_7  and  N_8
REMARK    5  A    between atoms: C_9  and  C_11
REMARK    6  A    between atoms: C_11  and  N_12
REMARK    7  A    between atoms: C_18  and  N_19
REMARK                            x       y       z     vdW  Elec       q    Type
REMARK                         _______ _______ _______ _____ _____    ______ ____
ROOT
ATOM      1  C   UNL     1       2.673   3.389  19.538  0.00  0.00    +0.000 C 
ENDROOT
BRANCH   1   2
ATOM      2  N   UNL     1       3.625   3.769  18.498  0.00  0.00    +0.000 N 
ATOM      3  C   UNL     1       4.869   4.204  18.836  0.00  0.00    +0.000 C 
ATOM      4  O   UNL     1       5.299   4.479  19.941  0.00  0.00    +0.000 OA
ATOM      5  C   UNL     1       5.636   4.332  17.611  0.00  0.00    +0.000 A 
ATOM      6  C   UNL     1       6.979   4.642  17.471  0.00  0.00    +0.000 A 
ATOM      7  C   UNL     1       7.472   4.771  16.179  0.00  0.00    +0.000 A 
ATOM      8  C   UNL     1       6.604   4.622  15.069  0.00  0.00    +0.000 A 
ATOM      9  C   UNL     1       5.238   4.290  15.240  0.00  0.00    +0.000 A 
ATOM     10  C   UNL     1       4.784   4.120  16.545  0.00  0.00    +0.000 A 
ATOM     11  C   UNL     1       3.481   3.718  17.134  0.00  0.00    +0.000 C 
ATOM     12  O   UNL     1       2.514   3.374  16.464  0.00  0.00    +0.000 OA
BRANCH   8  13
ATOM     13  N   UNL     1       7.165   4.822  13.722  0.00  0.00    +0.000 N 
ATOM     14  O   UNL     1       6.684   4.157  12.793  0.00  0.00    +0.000 OA
ATOM     15  O   UNL     1       8.084   5.642  13.600  0.00  0.00    +0.000 OA
ENDBRANCH   8  13
ENDBRANCH   1   2
BRANCH   1  17
ATOM     16  N   UNL     1       2.099   5.773  20.010  0.00  0.00    +0.000 N 
ATOM     17  C   UNL     1       2.307   4.506  20.528  0.00  0.00    +0.000 C 
ATOM     18  O   UNL     1       2.210   4.267  21.730  0.00  0.00    +0.000 OA
ATOM     19  H   UNL     1       2.032   5.900  19.006  0.00  0.00    +0.000 HD
BRANCH  16  20
ATOM     20  C   UNL     1       1.684   6.871  20.878  0.00  0.00    +0.000 C 
BRANCH  20  24
ATOM     21  C   UNL     1       1.189  10.712  18.904  0.00  0.00    +0.000 A 
ATOM     22  C   UNL     1       0.782  10.526  20.224  0.00  0.00    +0.000 A 
ATOM     23  C   UNL     1       0.947   9.286  20.852  0.00  0.00    +0.000 A 
ATOM     24  C   UNL     1       1.501   8.195  20.166  0.00  0.00    +0.000 A 
ATOM     25  C   UNL     1       1.918   8.394  18.841  0.00  0.00    +0.000 A 
ATOM     26  C   UNL     1       1.759   9.642  18.215  0.00  0.00    +0.000 A 
BRANCH  21  28
ATOM     27  C   UNL     1       2.086  12.827  18.359  0.00  0.00    +0.000 C 
ATOM     28  O   UNL     1       0.958  11.957  18.383  0.00  0.00    +0.000 OA
ENDBRANCH  21  28
ENDBRANCH  20  24
ENDBRANCH  16  20
ENDBRANCH   1  17
TORSDOF 6
ENDMDL
MODEL 8
REMARK VINA RESULT:      -7.8      0.924      2.090
REMARK  Name = 
REMARK  7 active torsions:
REMARK  status: ('A' for Active; 'I' for Inactive)
REMARK    1  A    between atoms: C_1  and  O_2
REMARK    2  A    between atoms: O_2  and  C_3
REMARK    3  A    between atoms: C_6  and  C_7
REMARK    4  A    between atoms: C_7  and  N_8
REMARK    5  A    between atoms: C_9  and  C_11
REMARK    6  A    between atoms: C_11  and  N_12
REMARK    7  A    between atoms: C_18  and  N_19
REMARK                            x       y       z     vdW  Elec       q    Type
REMARK                         _______ _______ _______ _____ _____    ______ ____
ROOT
ATOM      1  C   UNL     1       6.791   7.038  16.845  0.00  0.00    +0.000 C 
ENDROOT
BRANCH   1   2
ATOM      2  N   UNL     1       5.680   6.214  17.312  0.00  0.00    +0.000 N 
ATOM      3  C   UNL     1       4.443   6.759  17.466  0.00  0.00    +0.000 C 
ATOM      4  O   UNL     1       4.121   7.932  17.411  0.00  0.00    +0.000 OA
ATOM      5  C   UNL     1       3.521   5.677  17.762  0.00  0.00    +0.000 A 
ATOM      6  C   UNL     1       2.144   5.739  17.894  0.00  0.00    +0.000 A 
ATOM      7  C   UNL     1       1.483   4.569  18.246  0.00  0.00    +0.000 A 
ATOM      8  C   UNL     1       2.220   3.383  18.489  0.00  0.00    +0.000 A 
ATOM      9  C   UNL     1       3.627   3.344  18.332  0.00  0.00    +0.000 A 
ATOM     10  C   UNL     1       4.256   4.520  17.932  0.00  0.00    +0.000 A 
ATOM     11  C   UNL     1       5.660   4.872  17.601  0.00  0.00    +0.000 C 
ATOM     12  O   UNL     1       6.572   4.054  17.569  0.00  0.00    +0.000 OA
BRANCH   8  13
ATOM     13  N   UNL     1       1.478   2.184  18.912  0.00  0.00    +0.000 N 
ATOM     14  O   UNL     1       2.017   1.437  19.742  0.00  0.00    +0.000 OA
ATOM     15  O   UNL     1       0.362   1.994  18.412  0.00  0.00    +0.000 OA
ENDBRANCH   8  13
ENDBRANCH   1   2
BRANCH   1  17
ATOM     16  N   UNL     1       8.148   8.834  17.924  0.00  0.00    +0.000 N 
ATOM     17  C   UNL     1       7.762   7.505  17.940  0.00  0.00    +0.000 C 
ATOM     18  O   UNL     1       8.173   6.714  18.788  0.00  0.00    +0.000 OA
ATOM     19  H   UNL     1       7.672   9.488  17.313  0.00  0.00    +0.000 HD
BRANCH  16  20
ATOM     20  C   UNL     1       9.016   9.368  18.970  0.00  0.00    +0.000 C 
BRANCH  20  24
ATOM     21  C   UNL     1      10.233  13.490  18.321  0.00  0.00    +0.000 A 
ATOM     22  C   UNL     1       9.077  12.982  17.732  0.00  0.00    +0.000 A 
ATOM     23  C   UNL     1       8.692  11.653  17.949  0.00  0.00    +0.000 A 
ATOM     24  C   UNL     1       9.468  10.794  18.740  0.00  0.00    +0.000 A 
ATOM     25  C   UNL     1      10.625  11.317  19.338  0.00  0.00    +0.000 A 
ATOM     26  C   UNL     1      11.005  12.654  19.127  0.00  0.00    +0.000 A 
BRANCH  21  28
ATOM     27  C   UNL     1      11.613  14.984  17.122  0.00  0.00    +0.000 C 
ATOM     28  O   UNL     1      10.527  14.793  18.024  0.00  0.00    +0.000 OA
ENDBRANCH  21  28
ENDBRANCH  20  24
ENDBRANCH  16  20
ENDBRANCH   1  17
TORSDOF 6
ENDMDL
MODEL 9
REMARK VINA RESULT:      -7.8      1.057      2.021
REMARK  Name = 
REMARK  7 active torsions:
REMARK  status: ('A' for Active; 'I' for Inactive)
REMARK    1  A    between atoms: C_1  and  O_2
REMARK    2  A    between atoms: O_2  and  C_3
REMARK    3  A    between atoms: C_6  and  C_7
REMARK    4  A    between atoms: C_7  and  N_8
REMARK    5  A    between atoms: C_9  and  C_11
REMARK    6  A    between atoms: C_11  and  N_12
REMARK    7  A    between atoms: C_18  and  N_19
REMARK                            x       y       z     vdW  Elec       q    Type
REMARK                         _______ _______ _______ _____ _____    ______ ____
ROOT
ATOM      1  C   UNL     1       7.013   7.413  16.739  0.00  0.00    +0.000 C 
ENDROOT
BRANCH   1   2
ATOM      2  N   UNL     1       5.976   6.485  17.181  0.00  0.00    +0.000 N 
ATOM      3  C   UNL     1       4.730   6.944  17.478  0.00  0.00    +0.000 C 
ATOM      4  O   UNL     1       4.353   8.098  17.578  0.00  0.00    +0.000 OA
ATOM      5  C   UNL     1       3.881   5.790  17.709  0.00  0.00    +0.000 A 
ATOM      6  C   UNL     1       2.515   5.766  17.937  0.00  0.00    +0.000 A 
ATOM      7  C   UNL     1       1.934   4.530  18.196  0.00  0.00    +0.000 A 
ATOM      8  C   UNL     1       2.738   3.365  18.253  0.00  0.00    +0.000 A 
ATOM      9  C   UNL     1       4.131   3.417  18.001  0.00  0.00    +0.000 A 
ATOM     10  C   UNL     1       4.676   4.661  17.697  0.00  0.00    +0.000 A 
ATOM     11  C   UNL     1       6.036   5.120  17.316  0.00  0.00    +0.000 C 
ATOM     12  O   UNL     1       6.979   4.360  17.131  0.00  0.00    +0.000 OA
BRANCH   8  13
ATOM     13  N   UNL     1       2.082   2.089  18.585  0.00  0.00    +0.000 N 
ATOM     14  O   UNL     1       2.807   1.102  18.775  0.00  0.00    +0.000 OA
ATOM     15  O   UNL     1       0.846   2.080  18.653  0.00  0.00    +0.000 OA
ENDBRANCH   8  13
ENDBRANCH   1   2
BRANCH   1  17
ATOM     16  N   UNL     1       8.142   9.358  17.823  0.00  0.00    +0.000 N 
ATOM     17  C   UNL     1       7.886   7.998  17.860  0.00  0.00    +0.000 C 
ATOM     18  O   UNL     1       8.334   7.271  18.745  0.00  0.00    +0.000 OA
ATOM     19  H   UNL     1       7.631   9.947  17.175  0.00  0.00    +0.000 HD
BRANCH  16  20
ATOM     20  C   UNL     1       8.907   9.999  18.889  0.00  0.00    +0.000 C 
BRANCH  20  24
ATOM     21  C   UNL     1      11.006  13.588  17.620  0.00  0.00    +0.000 A 
ATOM     22  C   UNL     1      11.673  12.370  17.738  0.00  0.00    +0.000 A 
ATOM     23  C   UNL     1      10.988  11.219  18.145  0.00  0.00    +0.000 A 
ATOM     24  C   UNL     1       9.624  11.264  18.469  0.00  0.00    +0.000 A 
ATOM     25  C   UNL     1       8.958  12.492  18.336  0.00  0.00    +0.000 A 
ATOM     26  C   UNL     1       9.645  13.644  17.919  0.00  0.00    +0.000 A 
BRANCH  21  28
ATOM     27  C   UNL     1      11.058  15.795  16.783  0.00  0.00    +0.000 C 
ATOM     28  O   UNL     1      11.777  14.652  17.237  0.00  0.00    +0.000 OA
ENDBRANCH  21  28
ENDBRANCH  20  24
ENDBRANCH  16  20
ENDBRANCH   1  17
TORSDOF 6
ENDMDL
