MODEL 1
REMARK VINA RESULT:      -8.7      0.000      0.000
REMARK  Name = 
REMARK  6 active torsions:
REMARK  status: ('A' for Active; 'I' for Inactive)
REMARK    1  A    between atoms: C_1  and  C_2
REMARK    2  A    between atoms: C_6  and  C_7
REMARK    3  A    between atoms: N_9  and  C_10
REMARK    4  A    between atoms: C_10  and  C_11
REMARK    5  A    between atoms: C_13  and  C_14
REMARK    6  A    between atoms: N_20  and  C_21
REMARK                            x       y       z     vdW  Elec       q    Type
REMARK                         _______ _______ _______ _____ _____    ______ ____
ROOT
ATOM      1  C   UNL     1       2.471   8.086  17.913  0.00  0.00    +0.000 A 
ATOM      2  C   UNL     1       3.775   7.841  17.451  0.00  0.00    +0.000 A 
ATOM      3  C   UNL     1       4.044   6.505  17.705  0.00  0.00    +0.000 A 
ATOM      4  N   UNL     1       2.903   6.041  18.350  0.00  0.00    +0.000 N 
ATOM      5  N   UNL     1       1.941   6.992  18.470  0.00  0.00    +0.000 NA
ENDROOT
BRANCH   3   6
ATOM      6  C   UNL     1       5.285   5.770  17.414  0.00  0.00    +0.000 A 
ATOM      7  C   UNL     1       5.487   5.244  16.133  0.00  0.00    +0.000 A 
ATOM      8  C   UNL     1       6.665   4.570  15.855  0.00  0.00    +0.000 A 
ATOM      9  N   UNL     1       7.658   4.398  16.750  0.00  0.00    +0.000 NA
ATOM     10  C   UNL     1       7.441   4.887  17.986  0.00  0.00    +0.000 A 
ATOM     11  C   UNL     1       6.280   5.542  18.366  0.00  0.00    +0.000 A 
ENDBRANCH   3   6
BRANCH   4  12
ATOM     12  C   UNL     1       2.622   4.697  18.831  0.00  0.00    +0.000 C 
ATOM     13  C   UNL     1       1.703   4.632  20.052  0.00  0.00    +0.000 C 
ATOM     14  C   UNL     1       1.348   3.155  20.160  0.00  0.00    +0.000 C 
ATOM     15  C   UNL     1       1.357   2.622  18.731  0.00  0.00    +0.000 C 
ATOM     16  C   UNL     1       1.904   3.750  17.856  0.00  0.00    +0.000 C 
ENDBRANCH   4  12
BRANCH   1  17
ATOM     17  C   UNL     1       1.701   9.365  17.810  0.00  0.00    +0.000 C 
BRANCH  17  20
ATOM     18  C   UNL     1       0.058  10.312  19.418  0.00  0.00    +0.000 C 
ATOM     19  O   UNL     1      -0.819  10.364  18.557  0.00  0.00    +0.000 OA
ATOM     20  N   UNL     1       1.316   9.823  19.129  0.00  0.00    +0.000 N 
ATOM     21  H   UNL     1       2.057   9.919  19.808  0.00  0.00    +0.000 HD
BRANCH  18  27
ATOM     22  C   UNL     1      -0.337   8.525  22.087  0.00  0.00    +0.000 C 
ATOM     23  C   UNL     1      -0.325  10.003  21.944  0.00  0.00    +0.000 A 
ATOM     24  N   UNL     1      -0.498  10.764  23.100  0.00  0.00    +0.000 NA
ATOM     25  N   UNL     1      -0.462  12.060  22.850  0.00  0.00    +0.000 NA
ATOM     26  S   UNL     1      -0.231  12.400  21.237  0.00  0.00    +0.000 S 
ATOM     27  C   UNL     1      -0.159  10.749  20.780  0.00  0.00    +0.000 A 
ENDBRANCH  18  27
ENDBRANCH  17  20
ENDBRANCH   1  17
TORSDOF 5
ENDMDL
MODEL 2
REMARK VINA RESULT:      -8.7      0.847      1.240
REMARK  Name = 
REMARK  6 active torsions:
REMARK  status: ('A' for Active; 'I' for Inactive)
REMARK    1  A    between atoms: C_1  and  C_2
REMARK    2  A    between atoms: C_6  and  C_7
REMARK    3  A    between atoms: N_9  and  C_10
REMARK    4  A    between atoms: C_10  and  C_11
REMARK    5  A    between atoms: C_13  and  C_14
REMARK    6  A    between atoms: N_20  and  C_21
REMARK                            x       y       z     vdW  Elec       q    Type
REMARK                         _______ _______ _______ _____ _____    ______ ____
ROOT
ATOM      1  C   UNL     1       2.494   7.975  17.936  0.00  0.00    +0.000 A 
ATOM      2  C   UNL     1       3.793   7.765  17.444  0.00  0.00    +0.000 A 
ATOM      3  C   UNL     1       4.080   6.422  17.633  0.00  0.00    +0.000 A 
ATOM      4  N   UNL     1       2.955   5.918  18.274  0.00  0.00    +0.000 N 
ATOM      5  N   UNL     1       1.985   6.851  18.452  0.00  0.00    +0.000 NA
ENDROOT
BRANCH   3   6
ATOM      6  C   UNL     1       5.324   5.714  17.290  0.00  0.00    +0.000 A 
ATOM      7  C   UNL     1       5.541   5.312  15.967  0.00  0.00    +0.000 A 
ATOM      8  C   UNL     1       6.722   4.664  15.643  0.00  0.00    +0.000 A 
ATOM      9  N   UNL     1       7.703   4.405  16.531  0.00  0.00    +0.000 NA
ATOM     10  C   UNL     1       7.471   4.776  17.804  0.00  0.00    +0.000 A 
ATOM     11  C   UNL     1       6.306   5.395  18.229  0.00  0.00    +0.000 A 
ENDBRANCH   3   6
BRANCH   4  12
ATOM     12  C   UNL     1       2.695   4.550  18.698  0.00  0.00    +0.000 C 
ATOM     13  C   UNL     1       1.974   4.422  20.042  0.00  0.00    +0.000 C 
ATOM     14  C   UNL     1       1.578   2.952  20.101  0.00  0.00    +0.000 C 
ATOM     15  C   UNL     1       1.343   2.529  18.655  0.00  0.00    +0.000 C 
ATOM     16  C   UNL     1       1.795   3.702  17.785  0.00  0.00    +0.000 C 
ENDBRANCH   4  12
BRANCH   1  17
ATOM     17  C   UNL     1       1.709   9.249  17.903  0.00  0.00    +0.000 C 
BRANCH  17  20
ATOM     18  C   UNL     1       0.060  10.055  19.579  0.00  0.00    +0.000 C 
ATOM     19  O   UNL     1      -0.837  10.097  18.739  0.00  0.00    +0.000 OA
ATOM     20  N   UNL     1       1.333   9.638  19.246  0.00  0.00    +0.000 N 
ATOM     21  H   UNL     1       2.084   9.744  19.913  0.00  0.00    +0.000 HD
BRANCH  18  27
ATOM     22  C   UNL     1      -0.480  12.989  20.834  0.00  0.00    +0.000 C 
ATOM     23  C   UNL     1      -0.387  11.678  21.525  0.00  0.00    +0.000 A 
ATOM     24  N   UNL     1      -0.559  11.667  22.910  0.00  0.00    +0.000 NA
ATOM     25  N   UNL     1      -0.463  10.449  23.410  0.00  0.00    +0.000 NA
ATOM     26  S   UNL     1      -0.157   9.295  22.249  0.00  0.00    +0.000 S 
ATOM     27  C   UNL     1      -0.147  10.429  20.962  0.00  0.00    +0.000 A 
ENDBRANCH  18  27
ENDBRANCH  17  20
ENDBRANCH   1  17
TORSDOF 5
ENDMDL
MODEL 3
REMARK VINA RESULT:      -8.4      1.138      1.625
REMARK  Name = 
REMARK  6 active torsions:
REMARK  status: ('A' for Active; 'I' for Inactive)
REMARK    1  A    between atoms: C_1  and  C_2
REMARK    2  A    between atoms: C_6  and  C_7
REMARK    3  A    between atoms: N_9  and  C_10
REMARK    4  A    between atoms: C_10  and  C_11
REMARK    5  A    between atoms: C_13  and  C_14
REMARK    6  A    between atoms: N_20  and  C_21
REMARK                            x       y       z     vdW  Elec       q    Type
REMARK                         _______ _______ _______ _____ _____    ______ ____
ROOT
ATOM      1  C   UNL     1       2.512   7.871  17.890  0.00  0.00    +0.000 A 
ATOM      2  C   UNL     1       3.833   7.695  17.446  0.00  0.00    +0.000 A 
ATOM      3  C   UNL     1       4.114   6.342  17.555  0.00  0.00    +0.000 A 
ATOM      4  N   UNL     1       2.961   5.795  18.104  0.00  0.00    +0.000 N 
ATOM      5  N   UNL     1       1.982   6.714  18.302  0.00  0.00    +0.000 NA
ENDROOT
BRANCH   3   6
ATOM      6  C   UNL     1       5.375   5.659  17.222  0.00  0.00    +0.000 A 
ATOM      7  C   UNL     1       5.612   5.262  15.901  0.00  0.00    +0.000 A 
ATOM      8  C   UNL     1       6.808   4.638  15.585  0.00  0.00    +0.000 A 
ATOM      9  N   UNL     1       7.785   4.397  16.482  0.00  0.00    +0.000 NA
ATOM     10  C   UNL     1       7.535   4.763  17.753  0.00  0.00    +0.000 A 
ATOM     11  C   UNL     1       6.354   5.358  18.169  0.00  0.00    +0.000 A 
ENDBRANCH   3   6
BRANCH   4  12
ATOM     12  C   UNL     1       2.686   4.401  18.419  0.00  0.00    +0.000 C 
ATOM     13  C   UNL     1       2.803   3.440  17.234  0.00  0.00    +0.000 C 
ATOM     14  C   UNL     1       2.757   2.062  17.880  0.00  0.00    +0.000 C 
ATOM     15  C   UNL     1       3.391   2.230  19.257  0.00  0.00    +0.000 C 
ATOM     16  C   UNL     1       3.609   3.730  19.450  0.00  0.00    +0.000 C 
ENDBRANCH   4  12
BRANCH   1  17
ATOM     17  C   UNL     1       1.726   9.145  17.910  0.00  0.00    +0.000 C 
BRANCH  17  20
ATOM     18  C   UNL     1       0.119   9.978  19.613  0.00  0.00    +0.000 C 
ATOM     19  O   UNL     1      -0.761  10.134  18.769  0.00  0.00    +0.000 OA
ATOM     20  N   UNL     1       1.362   9.486  19.269  0.00  0.00    +0.000 N 
ATOM     21  H   UNL     1       2.109   9.497  19.948  0.00  0.00    +0.000 HD
BRANCH  18  27
ATOM     22  C   UNL     1      -0.808  12.767  20.966  0.00  0.00    +0.000 C 
ATOM     23  C   UNL     1      -0.482  11.474  21.618  0.00  0.00    +0.000 A 
ATOM     24  N   UNL     1      -0.585  11.410  23.008  0.00  0.00    +0.000 NA
ATOM     25  N   UNL     1      -0.278  10.213  23.472  0.00  0.00    +0.000 NA
ATOM     26  S   UNL     1       0.147   9.143  22.269  0.00  0.00    +0.000 S 
ATOM     27  C   UNL     1      -0.078  10.288  21.013  0.00  0.00    +0.000 A 
ENDBRANCH  18  27
ENDBRANCH  17  20
ENDBRANCH   1  17
TORSDOF 5
ENDMDL
MODEL 4
REMARK VINA RESULT:      -8.2      1.204      1.736
REMARK  Name = 
REMARK  6 active torsions:
REMARK  status: ('A' for Active; 'I' for Inactive)
REMARK    1  A    between atoms: C_1  and  C_2
REMARK    2  A    between atoms: C_6  and  C_7
REMARK    3  A    between atoms: N_9  and  C_10
REMARK    4  A    between atoms: C_10  and  C_11
REMARK    5  A    between atoms: C_13  and  C_14
REMARK    6  A    between atoms: N_20  and  C_21
REMARK                            x       y       z     vdW  Elec       q    Type
REMARK                         _______ _______ _______ _____ _____    ______ ____
ROOT
ATOM      1  C   UNL     1       2.451   7.904  18.161  0.00  0.00    +0.000 A 
ATOM      2  C   UNL     1       3.644   7.672  17.456  0.00  0.00    +0.000 A 
ATOM      3  C   UNL     1       4.131   6.449  17.888  0.00  0.00    +0.000 A 
ATOM      4  N   UNL     1       3.228   6.043  18.863  0.00  0.00    +0.000 N 
ATOM      5  N   UNL     1       2.201   6.916  19.028  0.00  0.00    +0.000 NA
ENDROOT
BRANCH   3   6
ATOM      6  C   UNL     1       5.364   5.771  17.454  0.00  0.00    +0.000 A 
ATOM      7  C   UNL     1       6.418   5.617  18.362  0.00  0.00    +0.000 A 
ATOM      8  C   UNL     1       7.570   4.961  17.957  0.00  0.00    +0.000 A 
ATOM      9  N   UNL     1       7.739   4.436  16.727  0.00  0.00    +0.000 NA
ATOM     10  C   UNL     1       6.727   4.612  15.856  0.00  0.00    +0.000 A 
ATOM     11  C   UNL     1       5.554   5.287  16.159  0.00  0.00    +0.000 A 
ENDBRANCH   3   6
BRANCH   4  12
ATOM     12  C   UNL     1       3.235   4.817  19.645  0.00  0.00    +0.000 C 
ATOM     13  C   UNL     1       2.243   4.794  20.811  0.00  0.00    +0.000 C 
ATOM     14  C   UNL     1       2.247   3.338  21.261  0.00  0.00    +0.000 C 
ATOM     15  C   UNL     1       2.523   2.518  20.005  0.00  0.00    +0.000 C 
ATOM     16  C   UNL     1       2.864   3.522  18.903  0.00  0.00    +0.000 C 
ENDBRANCH   4  12
BRANCH   1  17
ATOM     17  C   UNL     1       1.519   9.065  18.005  0.00  0.00    +0.000 C 
BRANCH  17  20
ATOM     18  C   UNL     1       0.880  10.543  19.898  0.00  0.00    +0.000 C 
ATOM     19  O   UNL     1       1.506  11.491  19.425  0.00  0.00    +0.000 OA
ATOM     20  N   UNL     1       0.831   9.325  19.252  0.00  0.00    +0.000 N 
ATOM     21  H   UNL     1       0.432   8.525  19.722  0.00  0.00    +0.000 HD
BRANCH  18  27
ATOM     22  C   UNL     1      -1.456  12.616  20.747  0.00  0.00    +0.000 C 
ATOM     23  C   UNL     1      -0.857  11.508  21.533  0.00  0.00    +0.000 A 
ATOM     24  N   UNL     1      -1.348  11.293  22.821  0.00  0.00    +0.000 NA
ATOM     25  N   UNL     1      -0.746  10.281  23.418  0.00  0.00    +0.000 NA
ATOM     26  S   UNL     1       0.420   9.570  22.466  0.00  0.00    +0.000 S 
ATOM     27  C   UNL     1       0.153  10.633  21.146  0.00  0.00    +0.000 A 
ENDBRANCH  18  27
ENDBRANCH  17  20
ENDBRANCH   1  17
TORSDOF 5
ENDMDL
MODEL 5
REMARK VINA RESULT:      -8.2      0.702      1.382
REMARK  Name = 
REMARK  6 active torsions:
REMARK  status: ('A' for Active; 'I' for Inactive)
REMARK    1  A    between atoms: C_1  and  C_2
REMARK    2  A    between atoms: C_6  and  C_7
REMARK    3  A    between atoms: N_9  and  C_10
REMARK    4  A    between atoms: C_10  and  C_11
REMARK    5  A    between atoms: C_13  and  C_14
REMARK    6  A    between atoms: N_20  and  C_21
REMARK                            x       y       z     vdW  Elec       q    Type
REMARK                         _______ _______ _______ _____ _____    ______ ____
ROOT
ATOM      1  C   UNL     1       2.502   8.030  17.806  0.00  0.00    +0.000 A 
ATOM      2  C   UNL     1       3.823   7.832  17.372  0.00  0.00    +0.000 A 
ATOM      3  C   UNL     1       4.101   6.485  17.543  0.00  0.00    +0.000 A 
ATOM      4  N   UNL     1       2.947   5.965  18.116  0.00  0.00    +0.000 N 
ATOM      5  N   UNL     1       1.969   6.894  18.269  0.00  0.00    +0.000 NA
ENDROOT
BRANCH   3   6
ATOM      6  C   UNL     1       5.361   5.785  17.244  0.00  0.00    +0.000 A 
ATOM      7  C   UNL     1       6.330   5.659  18.246  0.00  0.00    +0.000 A 
ATOM      8  C   UNL     1       7.507   4.983  17.969  0.00  0.00    +0.000 A 
ATOM      9  N   UNL     1       7.779   4.411  16.779  0.00  0.00    +0.000 NA
ATOM     10  C   UNL     1       6.849   4.560  15.816  0.00  0.00    +0.000 A 
ATOM     11  C   UNL     1       5.660   5.251  15.990  0.00  0.00    +0.000 A 
ENDBRANCH   3   6
BRANCH   4  12
ATOM     12  C   UNL     1       2.668   4.588  18.494  0.00  0.00    +0.000 C 
ATOM     13  C   UNL     1       2.747   3.579  17.347  0.00  0.00    +0.000 C 
ATOM     14  C   UNL     1       2.707   2.228  18.049  0.00  0.00    +0.000 C 
ATOM     15  C   UNL     1       3.377   2.446  19.402  0.00  0.00    +0.000 C 
ATOM     16  C   UNL     1       3.612   3.951  19.528  0.00  0.00    +0.000 C 
ENDBRANCH   4  12
BRANCH   1  17
ATOM     17  C   UNL     1       1.718   9.305  17.766  0.00  0.00    +0.000 C 
BRANCH  17  20
ATOM     18  C   UNL     1       0.122  10.291  19.396  0.00  0.00    +0.000 C 
ATOM     19  O   UNL     1      -0.712  10.502  18.516  0.00  0.00    +0.000 OA
ATOM     20  N   UNL     1       1.332   9.697  19.105  0.00  0.00    +0.000 N 
ATOM     21  H   UNL     1       2.054   9.660  19.811  0.00  0.00    +0.000 HD
BRANCH  18  27
ATOM     22  C   UNL     1      -0.303   8.338  21.941  0.00  0.00    +0.000 C 
ATOM     23  C   UNL     1      -0.280   9.822  21.894  0.00  0.00    +0.000 A 
ATOM     24  N   UNL     1      -0.455  10.507  23.096  0.00  0.00    +0.000 NA
ATOM     25  N   UNL     1      -0.409  11.816  22.931  0.00  0.00    +0.000 NA
ATOM     26  S   UNL     1      -0.166  12.259  21.344  0.00  0.00    +0.000 S 
ATOM     27  C   UNL     1      -0.101  10.640  20.782  0.00  0.00    +0.000 A 
ENDBRANCH  18  27
ENDBRANCH  17  20
ENDBRANCH   1  17
TORSDOF 5
ENDMDL
MODEL 6
REMARK VINA RESULT:      -8.1      1.546      3.474
REMARK  Name = 
REMARK  6 active torsions:
REMARK  status: ('A' for Active; 'I' for Inactive)
REMARK    1  A    between atoms: C_1  and  C_2
REMARK    2  A    between atoms: C_6  and  C_7
REMARK    3  A    between atoms: N_9  and  C_10
REMARK    4  A    between atoms: C_10  and  C_11
REMARK    5  A    between atoms: C_13  and  C_14
REMARK    6  A    between atoms: N_20  and  C_21
REMARK                            x       y       z     vdW  Elec       q    Type
REMARK                         _______ _______ _______ _____ _____    ______ ____
ROOT
ATOM      1  C   UNL     1       2.545   8.015  17.819  0.00  0.00    +0.000 A 
ATOM      2  C   UNL     1       2.067   6.771  18.264  0.00  0.00    +0.000 A 
ATOM      3  C   UNL     1       3.094   5.859  18.075  0.00  0.00    +0.000 A 
ATOM      4  N   UNL     1       4.108   6.601  17.482  0.00  0.00    +0.000 N 
ATOM      5  N   UNL     1       3.786   7.911  17.332  0.00  0.00    +0.000 NA
ENDROOT
BRANCH   3   6
ATOM      6  C   UNL     1       3.080   4.418  18.378  0.00  0.00    +0.000 A 
ATOM      7  C   UNL     1       2.574   3.524  17.427  0.00  0.00    +0.000 A 
ATOM      8  C   UNL     1       2.580   2.166  17.705  0.00  0.00    +0.000 A 
ATOM      9  N   UNL     1       3.065   1.638  18.846  0.00  0.00    +0.000 NA
ATOM     10  C   UNL     1       3.526   2.511  19.762  0.00  0.00    +0.000 A 
ATOM     11  C   UNL     1       3.526   3.887  19.588  0.00  0.00    +0.000 A 
ENDBRANCH   3   6
BRANCH   4  12
ATOM     12  C   UNL     1       5.434   6.156  17.079  0.00  0.00    +0.000 C 
ATOM     13  C   UNL     1       6.254   5.496  18.189  0.00  0.00    +0.000 C 
ATOM     14  C   UNL     1       7.435   4.882  17.450  0.00  0.00    +0.000 C 
ATOM     15  C   UNL     1       6.909   4.508  16.068  0.00  0.00    +0.000 C 
ATOM     16  C   UNL     1       5.498   5.089  15.974  0.00  0.00    +0.000 C 
ENDBRANCH   4  12
BRANCH   1  17
ATOM     17  C   UNL     1       1.829   9.329  17.870  0.00  0.00    +0.000 C 
BRANCH  17  20
ATOM     18  C   UNL     1       0.172  10.027  19.586  0.00  0.00    +0.000 C 
ATOM     19  O   UNL     1      -0.724  10.113  18.747  0.00  0.00    +0.000 OA
ATOM     20  N   UNL     1       1.447   9.637  19.232  0.00  0.00    +0.000 N 
ATOM     21  H   UNL     1       2.196   9.707  19.907  0.00  0.00    +0.000 HD
BRANCH  18  27
ATOM     22  C   UNL     1      -0.650  12.830  20.978  0.00  0.00    +0.000 C 
ATOM     23  C   UNL     1      -0.401  11.509  21.609  0.00  0.00    +0.000 A 
ATOM     24  N   UNL     1      -0.538  11.422  22.995  0.00  0.00    +0.000 NA
ATOM     25  N   UNL     1      -0.299  10.202  23.440  0.00  0.00    +0.000 NA
ATOM     26  S   UNL     1       0.101   9.137  22.223  0.00  0.00    +0.000 S 
ATOM     27  C   UNL     1      -0.042  10.318  20.987  0.00  0.00    +0.000 A 
ENDBRANCH  18  27
ENDBRANCH  17  20
ENDBRANCH   1  17
TORSDOF 5
ENDMDL
MODEL 7
REMARK VINA RESULT:      -8.0      1.249      3.251
REMARK  Name = 
REMARK  6 active torsions:
REMARK  status: ('A' for Active; 'I' for Inactive)
REMARK    1  A    between atoms: C_1  and  C_2
REMARK    2  A    between atoms: C_6  and  C_7
REMARK    3  A    between atoms: N_9  and  C_10
REMARK    4  A    between atoms: C_10  and  C_11
REMARK    5  A    between atoms: C_13  and  C_14
REMARK    6  A    between atoms: N_20  and  C_21
REMARK                            x       y       z     vdW  Elec       q    Type
REMARK                         _______ _______ _______ _____ _____    ______ ____
ROOT
ATOM      1  C   UNL     1       2.506   8.123  17.816  0.00  0.00    +0.000 A 
ATOM      2  C   UNL     1       1.982   6.896  18.255  0.00  0.00    +0.000 A 
ATOM      3  C   UNL     1       3.003   5.965  18.147  0.00  0.00    +0.000 A 
ATOM      4  N   UNL     1       4.063   6.678  17.602  0.00  0.00    +0.000 N 
ATOM      5  N   UNL     1       3.773   7.990  17.408  0.00  0.00    +0.000 NA
ENDROOT
BRANCH   3   6
ATOM      6  C   UNL     1       2.946   4.531  18.476  0.00  0.00    +0.000 A 
ATOM      7  C   UNL     1       2.623   3.610  17.472  0.00  0.00    +0.000 A 
ATOM      8  C   UNL     1       2.590   2.259  17.778  0.00  0.00    +0.000 A 
ATOM      9  N   UNL     1       2.870   1.761  18.999  0.00  0.00    +0.000 NA
ATOM     10  C   UNL     1       3.156   2.659  19.961  0.00  0.00    +0.000 A 
ATOM     11  C   UNL     1       3.177   4.031  19.758  0.00  0.00    +0.000 A 
ENDBRANCH   3   6
BRANCH   4  12
ATOM     12  C   UNL     1       5.403   6.205  17.289  0.00  0.00    +0.000 C 
ATOM     13  C   UNL     1       6.114   5.486  18.438  0.00  0.00    +0.000 C 
ATOM     14  C   UNL     1       7.332   4.858  17.773  0.00  0.00    +0.000 C 
ATOM     15  C   UNL     1       6.906   4.543  16.342  0.00  0.00    +0.000 C 
ATOM     16  C   UNL     1       5.524   5.171  16.158  0.00  0.00    +0.000 C 
ENDBRANCH   4  12
BRANCH   1  17
ATOM     17  C   UNL     1       1.811   9.449  17.798  0.00  0.00    +0.000 C 
BRANCH  17  20
ATOM     18  C   UNL     1       0.173  10.390  19.413  0.00  0.00    +0.000 C 
ATOM     19  O   UNL     1      -0.646  10.609  18.521  0.00  0.00    +0.000 OA
ATOM     20  N   UNL     1       1.395   9.813  19.136  0.00  0.00    +0.000 N 
ATOM     21  H   UNL     1       2.102   9.771  19.857  0.00  0.00    +0.000 HD
BRANCH  18  27
ATOM     22  C   UNL     1      -0.262   8.388  21.918  0.00  0.00    +0.000 C 
ATOM     23  C   UNL     1      -0.265   9.872  21.895  0.00  0.00    +0.000 A 
ATOM     24  N   UNL     1      -0.474  10.535  23.106  0.00  0.00    +0.000 NA
ATOM     25  N   UNL     1      -0.449  11.847  22.962  0.00  0.00    +0.000 NA
ATOM     26  S   UNL     1      -0.186  12.320  21.388  0.00  0.00    +0.000 S 
ATOM     27  C   UNL     1      -0.082  10.712  20.801  0.00  0.00    +0.000 A 
ENDBRANCH  18  27
ENDBRANCH  17  20
ENDBRANCH   1  17
TORSDOF 5
ENDMDL
MODEL 8
REMARK VINA RESULT:      -7.9      1.174      3.664
REMARK  Name = 
REMARK  6 active torsions:
REMARK  status: ('A' for Active; 'I' for Inactive)
REMARK    1  A    between atoms: C_1  and  C_2
REMARK    2  A    between atoms: C_6  and  C_7
REMARK    3  A    between atoms: N_9  and  C_10
REMARK    4  A    between atoms: C_10  and  C_11
REMARK    5  A    between atoms: C_13  and  C_14
REMARK    6  A    between atoms: N_20  and  C_21
REMARK                            x       y       z     vdW  Elec       q    Type
REMARK                         _______ _______ _______ _____ _____    ______ ____
ROOT
ATOM      1  C   UNL     1       2.453   8.189  17.999  0.00  0.00    +0.000 A 
ATOM      2  C   UNL     1       1.789   7.175  18.709  0.00  0.00    +0.000 A 
ATOM      3  C   UNL     1       2.552   6.026  18.572  0.00  0.00    +0.000 A 
ATOM      4  N   UNL     1       3.601   6.407  17.745  0.00  0.00    +0.000 N 
ATOM      5  N   UNL     1       3.554   7.719  17.401  0.00  0.00    +0.000 NA
ENDROOT
BRANCH   3   6
ATOM      6  C   UNL     1       2.269   4.691  19.125  0.00  0.00    +0.000 A 
ATOM      7  C   UNL     1       1.672   3.723  18.310  0.00  0.00    +0.000 A 
ATOM      8  C   UNL     1       1.425   2.461  18.827  0.00  0.00    +0.000 A 
ATOM      9  N   UNL     1       1.744   2.092  20.083  0.00  0.00    +0.000 NA
ATOM     10  C   UNL     1       2.297   3.039  20.864  0.00  0.00    +0.000 A 
ATOM     11  C   UNL     1       2.546   4.338  20.446  0.00  0.00    +0.000 A 
ENDBRANCH   3   6
BRANCH   4  12
ATOM     12  C   UNL     1       4.722   5.603  17.281  0.00  0.00    +0.000 C 
ATOM     13  C   UNL     1       5.466   6.177  16.073  0.00  0.00    +0.000 C 
ATOM     14  C   UNL     1       6.725   5.323  15.985  0.00  0.00    +0.000 C 
ATOM     15  C   UNL     1       7.052   4.920  17.419  0.00  0.00    +0.000 C 
ATOM     16  C   UNL     1       5.874   5.384  18.275  0.00  0.00    +0.000 C 
ENDBRANCH   4  12
BRANCH   1  17
ATOM     17  C   UNL     1       2.057   9.629  17.895  0.00  0.00    +0.000 C 
BRANCH  17  20
ATOM     18  C   UNL     1       0.258  10.340  19.455  0.00  0.00    +0.000 C 
ATOM     19  O   UNL     1      -0.615  10.120  18.616  0.00  0.00    +0.000 OA
ATOM     20  N   UNL     1       1.590  10.112  19.177  0.00  0.00    +0.000 N 
ATOM     21  H   UNL     1       2.296  10.429  19.826  0.00  0.00    +0.000 HD
BRANCH  18  27
ATOM     22  C   UNL     1      -0.394   8.685  22.158  0.00  0.00    +0.000 C 
ATOM     23  C   UNL     1      -0.319  10.154  21.956  0.00  0.00    +0.000 A 
ATOM     24  N   UNL     1      -0.546  10.970  23.065  0.00  0.00    +0.000 NA
ATOM     25  N   UNL     1      -0.446  12.252  22.765  0.00  0.00    +0.000 NA
ATOM     26  S   UNL     1      -0.087  12.514  21.160  0.00  0.00    +0.000 S 
ATOM     27  C   UNL     1      -0.042  10.842  20.778  0.00  0.00    +0.000 A 
ENDBRANCH  18  27
ENDBRANCH  17  20
ENDBRANCH   1  17
TORSDOF 5
ENDMDL
MODEL 9
REMARK VINA RESULT:      -7.8      2.512      4.539
REMARK  Name = 
REMARK  6 active torsions:
REMARK  status: ('A' for Active; 'I' for Inactive)
REMARK    1  A    between atoms: C_1  and  C_2
REMARK    2  A    between atoms: C_6  and  C_7
REMARK    3  A    between atoms: N_9  and  C_10
REMARK    4  A    between atoms: C_10  and  C_11
REMARK    5  A    between atoms: C_13  and  C_14
REMARK    6  A    between atoms: N_20  and  C_21
REMARK                            x       y       z     vdW  Elec       q    Type
REMARK                         _______ _______ _______ _____ _____    ______ ____
ROOT
ATOM      1  C   UNL     1       2.527   8.379  18.101  0.00  0.00    +0.000 A 
ATOM      2  C   UNL     1       1.829   7.472  18.915  0.00  0.00    +0.000 A 
ATOM      3  C   UNL     1       2.463   6.246  18.781  0.00  0.00    +0.000 A 
ATOM      4  N   UNL     1       3.472   6.480  17.856  0.00  0.00    +0.000 N 
ATOM      5  N   UNL     1       3.524   7.774  17.446  0.00  0.00    +0.000 NA
ENDROOT
BRANCH   3   6
ATOM      6  C   UNL     1       2.099   4.974  19.427  0.00  0.00    +0.000 A 
ATOM      7  C   UNL     1       2.389   4.787  20.784  0.00  0.00    +0.000 A 
ATOM      8  C   UNL     1       2.027   3.597  21.395  0.00  0.00    +0.000 A 
ATOM      9  N   UNL     1       1.388   2.594  20.761  0.00  0.00    +0.000 NA
ATOM     10  C   UNL     1       1.137   2.777  19.451  0.00  0.00    +0.000 A 
ATOM     11  C   UNL     1       1.494   3.917  18.747  0.00  0.00    +0.000 A 
ENDBRANCH   3   6
BRANCH   4  12
ATOM     12  C   UNL     1       4.468   5.547  17.351  0.00  0.00    +0.000 C 
ATOM     13  C   UNL     1       5.151   5.980  16.052  0.00  0.00    +0.000 C 
ATOM     14  C   UNL     1       6.312   5.003  15.912  0.00  0.00    +0.000 C 
ATOM     15  C   UNL     1       6.728   4.648  17.336  0.00  0.00    +0.000 C 
ATOM     16  C   UNL     1       5.678   5.270  18.257  0.00  0.00    +0.000 C 
ENDBRANCH   4  12
BRANCH   1  17
ATOM     17  C   UNL     1       2.265   9.845  17.950  0.00  0.00    +0.000 C 
BRANCH  17  20
ATOM     18  C   UNL     1       0.043  10.664  18.703  0.00  0.00    +0.000 C 
ATOM     19  O   UNL     1       0.498  11.035  19.784  0.00  0.00    +0.000 OA
ATOM     20  N   UNL     1       0.851  10.083  17.749  0.00  0.00    +0.000 N 
ATOM     21  H   UNL     1       0.435   9.661  16.930  0.00  0.00    +0.000 HD
BRANCH  18  27
ATOM     22  C   UNL     1      -2.195  12.585  20.035  0.00  0.00    +0.000 C 
ATOM     23  C   UNL     1      -2.333  11.633  18.904  0.00  0.00    +0.000 A 
ATOM     24  N   UNL     1      -3.585  11.529  18.298  0.00  0.00    +0.000 NA
ATOM     25  N   UNL     1      -3.583  10.660  17.304  0.00  0.00    +0.000 NA
ATOM     26  S   UNL     1      -2.097   9.944  17.074  0.00  0.00    +0.000 S 
ATOM     27  C   UNL     1      -1.353  10.812  18.353  0.00  0.00    +0.000 A 
ENDBRANCH  18  27
ENDBRANCH  17  20
ENDBRANCH   1  17
TORSDOF 5
ENDMDL
