MODEL 1
REMARK VINA RESULT:      -7.7      0.000      0.000
REMARK  Name = 
REMARK  5 active torsions:
REMARK  status: ('A' for Active; 'I' for Inactive)
REMARK    1  A    between atoms: C_1  and  C_2
REMARK    2  A    between atoms: C_9  and  C_10
REMARK    3  A    between atoms: N_18  and  C_19
REMARK    4  A    between atoms: C_19  and  C_20
REMARK    5  A    between atoms: C_19  and  C_21
REMARK                            x       y       z     vdW  Elec       q    Type
REMARK                         _______ _______ _______ _____ _____    ______ ____
ROOT
ATOM      1  C   UNL     1      -0.418   9.443  23.682  0.00  0.00    +0.000 C 
ATOM      2  C   UNL     1       0.018   9.947  22.338  0.00  0.00    +0.000 A 
ATOM      3  C   UNL     1      -0.559  11.117  21.816  0.00  0.00    +0.000 A 
ATOM      4  C   UNL     1      -0.212  11.587  20.540  0.00  0.00    +0.000 A 
ATOM      5  C   UNL     1       0.641  10.798  19.800  0.00  0.00    +0.000 A 
ATOM      6  C   UNL     1       1.136   9.571  20.264  0.00  0.00    +0.000 A 
ATOM      7  C   UNL     1       0.890   9.168  21.557  0.00  0.00    +0.000 A 
ATOM      8  C   UNL     1       1.839   8.985  19.131  0.00  0.00    +0.000 C 
ATOM      9  C   UNL     1       2.217   7.755  18.771  0.00  0.00    +0.000 C 
ATOM     10  C   UNL     1       1.895  10.042  18.049  0.00  0.00    +0.000 C 
ATOM     11  O   UNL     1       2.485   9.981  16.994  0.00  0.00    +0.000 OA
ATOM     12  N   UNL     1       1.117  11.075  18.523  0.00  0.00    +0.000 N 
ATOM     13  H   UNL     1       0.920  11.903  17.982  0.00  0.00    +0.000 HD
ENDROOT
BRANCH   9  14
ATOM     14  C   UNL     1       2.062   6.532  19.471  0.00  0.00    +0.000 A 
ATOM     15  N   UNL     1       1.826   6.104  20.711  0.00  0.00    +0.000 NA
ATOM     16  C   UNL     1       1.834   4.709  20.600  0.00  0.00    +0.000 A 
ATOM     17  C   UNL     1       2.075   3.643  21.478  0.00  0.00    +0.000 A 
ATOM     18  C   UNL     1       2.030   2.334  20.952  0.00  0.00    +0.000 A 
ATOM     19  C   UNL     1       1.582   2.089  19.646  0.00  0.00    +0.000 A 
ATOM     20  C   UNL     1       1.399   3.138  18.748  0.00  0.00    +0.000 A 
ATOM     21  C   UNL     1       1.747   4.387  19.253  0.00  0.00    +0.000 A 
ATOM     22  N   UNL     1       2.554   5.416  18.783  0.00  0.00    +0.000 N 
BRANCH  22  23
ATOM     23  C   UNL     1       4.041   5.298  18.707  0.00  0.00    +0.000 C 
ATOM     24  C   UNL     1       4.559   3.832  18.625  0.00  0.00    +0.000 C 
ATOM     25  C   UNL     1       4.710   6.093  17.583  0.00  0.00    +0.000 C 
ENDBRANCH  22  23
ENDBRANCH   9  14
TORSDOF 2
ENDMDL
MODEL 2
REMARK VINA RESULT:      -7.7      2.485      7.142
REMARK  Name = 
REMARK  5 active torsions:
REMARK  status: ('A' for Active; 'I' for Inactive)
REMARK    1  A    between atoms: C_1  and  C_2
REMARK    2  A    between atoms: C_9  and  C_10
REMARK    3  A    between atoms: N_18  and  C_19
REMARK    4  A    between atoms: C_19  and  C_20
REMARK    5  A    between atoms: C_19  and  C_21
REMARK                            x       y       z     vdW  Elec       q    Type
REMARK                         _______ _______ _______ _____ _____    ______ ____
ROOT
ATOM      1  C   UNL     1       7.660   7.834  17.444  0.00  0.00    +0.000 C 
ATOM      2  C   UNL     1       6.706   6.677  17.385  0.00  0.00    +0.000 A 
ATOM      3  C   UNL     1       7.098   5.489  16.745  0.00  0.00    +0.000 A 
ATOM      4  C   UNL     1       6.213   4.407  16.626  0.00  0.00    +0.000 A 
ATOM      5  C   UNL     1       4.927   4.605  17.078  0.00  0.00    +0.000 A 
ATOM      6  C   UNL     1       4.490   5.823  17.616  0.00  0.00    +0.000 A 
ATOM      7  C   UNL     1       5.387   6.844  17.841  0.00  0.00    +0.000 A 
ATOM      8  C   UNL     1       3.053   5.671  17.799  0.00  0.00    +0.000 C 
ATOM      9  C   UNL     1       2.012   6.499  17.921  0.00  0.00    +0.000 C 
ATOM     10  C   UNL     1       2.722   4.220  17.527  0.00  0.00    +0.000 C 
ATOM     11  O   UNL     1       1.654   3.671  17.675  0.00  0.00    +0.000 OA
ATOM     12  N   UNL     1       3.897   3.671  17.063  0.00  0.00    +0.000 N 
ATOM     13  H   UNL     1       3.965   2.717  16.742  0.00  0.00    +0.000 HD
ENDROOT
BRANCH   9  14
ATOM     14  C   UNL     1       1.994   7.916  17.946  0.00  0.00    +0.000 A 
ATOM     15  N   UNL     1       2.726   8.940  17.509  0.00  0.00    +0.000 NA
ATOM     16  C   UNL     1       2.040  10.072  17.963  0.00  0.00    +0.000 A 
ATOM     17  C   UNL     1       2.390  11.398  18.252  0.00  0.00    +0.000 A 
ATOM     18  C   UNL     1       1.382  12.252  18.749  0.00  0.00    +0.000 A 
ATOM     19  C   UNL     1       0.038  11.851  18.781  0.00  0.00    +0.000 A 
ATOM     20  C   UNL     1      -0.313  10.522  18.555  0.00  0.00    +0.000 A 
ATOM     21  C   UNL     1       0.772   9.672  18.358  0.00  0.00    +0.000 A 
ATOM     22  N   UNL     1       1.147   8.458  18.921  0.00  0.00    +0.000 N 
BRANCH  22  23
ATOM     23  C   UNL     1       1.617   8.341  20.334  0.00  0.00    +0.000 C 
ATOM     24  C   UNL     1       0.894   9.299  21.327  0.00  0.00    +0.000 C 
ATOM     25  C   UNL     1       1.572   6.932  20.929  0.00  0.00    +0.000 C 
ENDBRANCH  22  23
ENDBRANCH   9  14
TORSDOF 2
ENDMDL
MODEL 3
REMARK VINA RESULT:      -7.5      3.116      7.008
REMARK  Name = 
REMARK  5 active torsions:
REMARK  status: ('A' for Active; 'I' for Inactive)
REMARK    1  A    between atoms: C_1  and  C_2
REMARK    2  A    between atoms: C_9  and  C_10
REMARK    3  A    between atoms: N_18  and  C_19
REMARK    4  A    between atoms: C_19  and  C_20
REMARK    5  A    between atoms: C_19  and  C_21
REMARK                            x       y       z     vdW  Elec       q    Type
REMARK                         _______ _______ _______ _____ _____    ______ ____
ROOT
ATOM      1  C   UNL     1       4.577   3.222  12.769  0.00  0.00    +0.000 C 
ATOM      2  C   UNL     1       5.496   4.119  13.546  0.00  0.00    +0.000 A 
ATOM      3  C   UNL     1       6.811   4.322  13.094  0.00  0.00    +0.000 A 
ATOM      4  C   UNL     1       7.712   5.113  13.823  0.00  0.00    +0.000 A 
ATOM      5  C   UNL     1       7.273   5.592  15.037  0.00  0.00    +0.000 A 
ATOM      6  C   UNL     1       6.002   5.304  15.554  0.00  0.00    +0.000 A 
ATOM      7  C   UNL     1       5.078   4.628  14.788  0.00  0.00    +0.000 A 
ATOM      8  C   UNL     1       6.005   5.839  16.908  0.00  0.00    +0.000 C 
ATOM      9  C   UNL     1       5.305   5.621  18.026  0.00  0.00    +0.000 C 
ATOM     10  C   UNL     1       7.282   6.635  17.068  0.00  0.00    +0.000 C 
ATOM     11  O   UNL     1       7.606   7.321  18.011  0.00  0.00    +0.000 OA
ATOM     12  N   UNL     1       7.994   6.396  15.914  0.00  0.00    +0.000 N 
ATOM     13  H   UNL     1       8.925   6.753  15.762  0.00  0.00    +0.000 HD
ENDROOT
BRANCH   9  14
ATOM     14  C   UNL     1       4.218   4.737  18.241  0.00  0.00    +0.000 A 
ATOM     15  N   UNL     1       3.571   3.762  17.603  0.00  0.00    +0.000 NA
ATOM     16  C   UNL     1       2.563   3.377  18.494  0.00  0.00    +0.000 A 
ATOM     17  C   UNL     1       1.309   2.762  18.373  0.00  0.00    +0.000 A 
ATOM     18  C   UNL     1       0.548   2.582  19.547  0.00  0.00    +0.000 A 
ATOM     19  C   UNL     1       1.092   2.836  20.814  0.00  0.00    +0.000 A 
ATOM     20  C   UNL     1       2.309   3.502  20.945  0.00  0.00    +0.000 A 
ATOM     21  C   UNL     1       2.866   3.913  19.737  0.00  0.00    +0.000 A 
ATOM     22  N   UNL     1       3.365   5.127  19.280  0.00  0.00    +0.000 N 
BRANCH  22  23
ATOM     23  C   UNL     1       2.483   6.300  18.998  0.00  0.00    +0.000 C 
ATOM     24  C   UNL     1       2.039   7.082  20.269  0.00  0.00    +0.000 C 
ATOM     25  C   UNL     1       3.037   7.314  17.995  0.00  0.00    +0.000 C 
ENDBRANCH  22  23
ENDBRANCH   9  14
TORSDOF 2
ENDMDL
MODEL 4
REMARK VINA RESULT:      -7.4      3.745      7.591
REMARK  Name = 
REMARK  5 active torsions:
REMARK  status: ('A' for Active; 'I' for Inactive)
REMARK    1  A    between atoms: C_1  and  C_2
REMARK    2  A    between atoms: C_9  and  C_10
REMARK    3  A    between atoms: N_18  and  C_19
REMARK    4  A    between atoms: C_19  and  C_20
REMARK    5  A    between atoms: C_19  and  C_21
REMARK                            x       y       z     vdW  Elec       q    Type
REMARK                         _______ _______ _______ _____ _____    ______ ____
ROOT
ATOM      1  C   UNL     1       4.062   2.724  11.873  0.00  0.00    +0.000 C 
ATOM      2  C   UNL     1       5.118   3.554  12.541  0.00  0.00    +0.000 A 
ATOM      3  C   UNL     1       6.397   3.641  11.965  0.00  0.00    +0.000 A 
ATOM      4  C   UNL     1       7.422   4.367  12.591  0.00  0.00    +0.000 A 
ATOM      5  C   UNL     1       7.138   4.900  13.828  0.00  0.00    +0.000 A 
ATOM      6  C   UNL     1       5.902   4.726  14.466  0.00  0.00    +0.000 A 
ATOM      7  C   UNL     1       4.860   4.116  13.803  0.00  0.00    +0.000 A 
ATOM      8  C   UNL     1       6.074   5.281  15.801  0.00  0.00    +0.000 C 
ATOM      9  C   UNL     1       5.466   5.139  16.982  0.00  0.00    +0.000 C 
ATOM     10  C   UNL     1       7.420   5.972  15.824  0.00  0.00    +0.000 C 
ATOM     11  O   UNL     1       7.885   6.644  16.717  0.00  0.00    +0.000 OA
ATOM     12  N   UNL     1       8.000   5.656  14.616  0.00  0.00    +0.000 N 
ATOM     13  H   UNL     1       8.939   5.933  14.371  0.00  0.00    +0.000 HD
ENDROOT
BRANCH   9  14
ATOM     14  C   UNL     1       4.336   4.351  17.317  0.00  0.00    +0.000 A 
ATOM     15  N   UNL     1       3.511   3.478  16.740  0.00  0.00    +0.000 NA
ATOM     16  C   UNL     1       2.604   3.142  17.752  0.00  0.00    +0.000 A 
ATOM     17  C   UNL     1       1.290   2.655  17.789  0.00  0.00    +0.000 A 
ATOM     18  C   UNL     1       0.687   2.483  19.053  0.00  0.00    +0.000 A 
ATOM     19  C   UNL     1       1.427   2.615  20.237  0.00  0.00    +0.000 A 
ATOM     20  C   UNL     1       2.711   3.155  20.217  0.00  0.00    +0.000 A 
ATOM     21  C   UNL     1       3.131   3.577  18.959  0.00  0.00    +0.000 A 
ATOM     22  N   UNL     1       3.681   4.762  18.484  0.00  0.00    +0.000 N 
BRANCH  22  23
ATOM     23  C   UNL     1       2.892   6.027  18.381  0.00  0.00    +0.000 C 
ATOM     24  C   UNL     1       2.283   6.508  19.731  0.00  0.00    +0.000 C 
ATOM     25  C   UNL     1       3.626   7.212  17.750  0.00  0.00    +0.000 C 
ENDBRANCH  22  23
ENDBRANCH   9  14
TORSDOF 2
ENDMDL
MODEL 5
REMARK VINA RESULT:      -7.3      3.617      6.834
REMARK  Name = 
REMARK  5 active torsions:
REMARK  status: ('A' for Active; 'I' for Inactive)
REMARK    1  A    between atoms: C_1  and  C_2
REMARK    2  A    between atoms: C_9  and  C_10
REMARK    3  A    between atoms: N_18  and  C_19
REMARK    4  A    between atoms: C_19  and  C_20
REMARK    5  A    between atoms: C_19  and  C_21
REMARK                            x       y       z     vdW  Elec       q    Type
REMARK                         _______ _______ _______ _____ _____    ______ ____
ROOT
ATOM      1  C   UNL     1       4.660   3.269  13.379  0.00  0.00    +0.000 C 
ATOM      2  C   UNL     1       5.571   4.218  14.100  0.00  0.00    +0.000 A 
ATOM      3  C   UNL     1       6.801   4.572  13.521  0.00  0.00    +0.000 A 
ATOM      4  C   UNL     1       7.700   5.416  14.192  0.00  0.00    +0.000 A 
ATOM      5  C   UNL     1       7.357   5.794  15.471  0.00  0.00    +0.000 A 
ATOM      6  C   UNL     1       6.185   5.358  16.105  0.00  0.00    +0.000 A 
ATOM      7  C   UNL     1       5.250   4.627  15.407  0.00  0.00    +0.000 A 
ATOM      8  C   UNL     1       6.290   5.830  17.478  0.00  0.00    +0.000 C 
ATOM      9  C   UNL     1       5.744   5.493  18.651  0.00  0.00    +0.000 C 
ATOM     10  C   UNL     1       7.496   6.742  17.543  0.00  0.00    +0.000 C 
ATOM     11  O   UNL     1       7.858   7.415  18.482  0.00  0.00    +0.000 OA
ATOM     12  N   UNL     1       8.093   6.626  16.307  0.00  0.00    +0.000 N 
ATOM     13  H   UNL     1       8.963   7.081  16.076  0.00  0.00    +0.000 HD
ENDROOT
BRANCH   9  14
ATOM     14  C   UNL     1       4.777   4.496  18.932  0.00  0.00    +0.000 A 
ATOM     15  N   UNL     1       4.604   3.185  18.767  0.00  0.00    +0.000 NA
ATOM     16  C   UNL     1       3.340   2.934  19.313  0.00  0.00    +0.000 A 
ATOM     17  C   UNL     1       2.357   1.951  19.133  0.00  0.00    +0.000 A 
ATOM     18  C   UNL     1       1.157   2.079  19.865  0.00  0.00    +0.000 A 
ATOM     19  C   UNL     1       1.017   3.045  20.872  0.00  0.00    +0.000 A 
ATOM     20  C   UNL     1       1.958   4.061  21.018  0.00  0.00    +0.000 A 
ATOM     21  C   UNL     1       2.971   4.040  20.064  0.00  0.00    +0.000 A 
ATOM     22  N   UNL     1       3.502   5.003  19.214  0.00  0.00    +0.000 N 
BRANCH  22  23
ATOM     23  C   UNL     1       2.743   5.551  18.049  0.00  0.00    +0.000 C 
ATOM     24  C   UNL     1       1.444   4.762  17.709  0.00  0.00    +0.000 C 
ATOM     25  C   UNL     1       2.380   7.034  18.138  0.00  0.00    +0.000 C 
ENDBRANCH  22  23
ENDBRANCH   9  14
TORSDOF 2
ENDMDL
MODEL 6
REMARK VINA RESULT:      -7.2      3.104      5.633
REMARK  Name = 
REMARK  5 active torsions:
REMARK  status: ('A' for Active; 'I' for Inactive)
REMARK    1  A    between atoms: C_1  and  C_2
REMARK    2  A    between atoms: C_9  and  C_10
REMARK    3  A    between atoms: N_18  and  C_19
REMARK    4  A    between atoms: C_19  and  C_20
REMARK    5  A    between atoms: C_19  and  C_21
REMARK                            x       y       z     vdW  Elec       q    Type
REMARK                         _______ _______ _______ _____ _____    ______ ____
ROOT
ATOM      1  C   UNL     1       2.131   8.843  17.495  0.00  0.00    +0.000 C 
ATOM      2  C   UNL     1       2.026   7.827  18.594  0.00  0.00    +0.000 A 
ATOM      3  C   UNL     1       1.769   8.253  19.908  0.00  0.00    +0.000 A 
ATOM      4  C   UNL     1       1.715   7.335  20.967  0.00  0.00    +0.000 A 
ATOM      5  C   UNL     1       2.020   6.026  20.669  0.00  0.00    +0.000 A 
ATOM      6  C   UNL     1       2.389   5.605  19.383  0.00  0.00    +0.000 A 
ATOM      7  C   UNL     1       2.328   6.481  18.322  0.00  0.00    +0.000 A 
ATOM      8  C   UNL     1       2.794   4.215  19.533  0.00  0.00    +0.000 C 
ATOM      9  C   UNL     1       3.551   3.358  18.840  0.00  0.00    +0.000 C 
ATOM     10  C   UNL     1       2.440   3.799  20.944  0.00  0.00    +0.000 C 
ATOM     11  O   UNL     1       2.521   2.691  21.425  0.00  0.00    +0.000 OA
ATOM     12  N   UNL     1       2.021   4.958  21.559  0.00  0.00    +0.000 N 
ATOM     13  H   UNL     1       1.775   4.999  22.536  0.00  0.00    +0.000 HD
ENDROOT
BRANCH   9  14
ATOM     14  C   UNL     1       4.227   3.556  17.610  0.00  0.00    +0.000 A 
ATOM     15  N   UNL     1       4.526   2.876  16.504  0.00  0.00    +0.000 NA
ATOM     16  C   UNL     1       5.257   3.783  15.729  0.00  0.00    +0.000 A 
ATOM     17  C   UNL     1       6.211   3.676  14.707  0.00  0.00    +0.000 A 
ATOM     18  C   UNL     1       6.764   4.869  14.196  0.00  0.00    +0.000 A 
ATOM     19  C   UNL     1       6.253   6.124  14.559  0.00  0.00    +0.000 A 
ATOM     20  C   UNL     1       5.351   6.246  15.614  0.00  0.00    +0.000 A 
ATOM     21  C   UNL     1       5.074   5.049  16.267  0.00  0.00    +0.000 A 
ATOM     22  N   UNL     1       5.082   4.665  17.603  0.00  0.00    +0.000 N 
BRANCH  22  23
ATOM     23  C   UNL     1       6.345   4.523  18.387  0.00  0.00    +0.000 C 
ATOM     24  C   UNL     1       7.639   4.555  17.522  0.00  0.00    +0.000 C 
ATOM     25  C   UNL     1       6.526   5.522  19.533  0.00  0.00    +0.000 C 
ENDBRANCH  22  23
ENDBRANCH   9  14
TORSDOF 2
ENDMDL
MODEL 7
REMARK VINA RESULT:      -7.1      1.450      6.363
REMARK  Name = 
REMARK  5 active torsions:
REMARK  status: ('A' for Active; 'I' for Inactive)
REMARK    1  A    between atoms: C_1  and  C_2
REMARK    2  A    between atoms: C_9  and  C_10
REMARK    3  A    between atoms: N_18  and  C_19
REMARK    4  A    between atoms: C_19  and  C_20
REMARK    5  A    between atoms: C_19  and  C_21
REMARK                            x       y       z     vdW  Elec       q    Type
REMARK                         _______ _______ _______ _____ _____    ______ ____
ROOT
ATOM      1  C   UNL     1       1.474   3.178  21.751  0.00  0.00    +0.000 C 
ATOM      2  C   UNL     1       2.188   3.766  20.569  0.00  0.00    +0.000 A 
ATOM      3  C   UNL     1       3.297   3.094  20.026  0.00  0.00    +0.000 A 
ATOM      4  C   UNL     1       4.019   3.641  18.955  0.00  0.00    +0.000 A 
ATOM      5  C   UNL     1       3.647   4.899  18.534  0.00  0.00    +0.000 A 
ATOM      6  C   UNL     1       2.616   5.629  19.142  0.00  0.00    +0.000 A 
ATOM      7  C   UNL     1       1.832   5.047  20.113  0.00  0.00    +0.000 A 
ATOM      8  C   UNL     1       2.664   6.949  18.528  0.00  0.00    +0.000 C 
ATOM      9  C   UNL     1       2.241   8.173  18.858  0.00  0.00    +0.000 C 
ATOM     10  C   UNL     1       3.652   6.871  17.385  0.00  0.00    +0.000 C 
ATOM     11  O   UNL     1       3.896   7.728  16.566  0.00  0.00    +0.000 OA
ATOM     12  N   UNL     1       4.219   5.620  17.492  0.00  0.00    +0.000 N 
ATOM     13  H   UNL     1       4.965   5.305  16.891  0.00  0.00    +0.000 HD
ENDROOT
BRANCH   9  14
ATOM     14  C   UNL     1       1.516   8.590  20.002  0.00  0.00    +0.000 A 
ATOM     15  N   UNL     1       1.090   8.091  21.161  0.00  0.00    +0.000 NA
ATOM     16  C   UNL     1       0.403   9.153  21.761  0.00  0.00    +0.000 A 
ATOM     17  C   UNL     1      -0.615   9.266  22.718  0.00  0.00    +0.000 A 
ATOM     18  C   UNL     1      -1.082  10.560  23.033  0.00  0.00    +0.000 A 
ATOM     19  C   UNL     1      -0.435  11.706  22.550  0.00  0.00    +0.000 A 
ATOM     20  C   UNL     1       0.535  11.609  21.555  0.00  0.00    +0.000 A 
ATOM     21  C   UNL     1       0.736  10.315  21.081  0.00  0.00    +0.000 A 
ATOM     22  N   UNL     1       0.771   9.760  19.807  0.00  0.00    +0.000 N 
BRANCH  22  23
ATOM     23  C   UNL     1      -0.452   9.624  18.960  0.00  0.00    +0.000 C 
ATOM     24  C   UNL     1      -1.473  10.788  19.124  0.00  0.00    +0.000 C 
ATOM     25  C   UNL     1      -0.199   9.432  17.463  0.00  0.00    +0.000 C 
ENDBRANCH  22  23
ENDBRANCH   9  14
TORSDOF 2
ENDMDL
MODEL 8
REMARK VINA RESULT:      -7.0      2.071      3.915
REMARK  Name = 
REMARK  5 active torsions:
REMARK  status: ('A' for Active; 'I' for Inactive)
REMARK    1  A    between atoms: C_1  and  C_2
REMARK    2  A    between atoms: C_9  and  C_10
REMARK    3  A    between atoms: N_18  and  C_19
REMARK    4  A    between atoms: C_19  and  C_20
REMARK    5  A    between atoms: C_19  and  C_21
REMARK                            x       y       z     vdW  Elec       q    Type
REMARK                         _______ _______ _______ _____ _____    ______ ____
ROOT
ATOM      1  C   UNL     1       2.620  12.800  17.824  0.00  0.00    +0.000 C 
ATOM      2  C   UNL     1       1.782  12.203  18.917  0.00  0.00    +0.000 A 
ATOM      3  C   UNL     1       1.344  13.017  19.975  0.00  0.00    +0.000 A 
ATOM      4  C   UNL     1       0.603  12.481  21.040  0.00  0.00    +0.000 A 
ATOM      5  C   UNL     1       0.414  11.117  21.038  0.00  0.00    +0.000 A 
ATOM      6  C   UNL     1       0.942  10.277  20.047  0.00  0.00    +0.000 A 
ATOM      7  C   UNL     1       1.567  10.814  18.944  0.00  0.00    +0.000 A 
ATOM      8  C   UNL     1       0.673   8.922  20.506  0.00  0.00    +0.000 C 
ATOM      9  C   UNL     1       1.178   7.710  20.258  0.00  0.00    +0.000 C 
ATOM     10  C   UNL     1      -0.224   9.034  21.719  0.00  0.00    +0.000 C 
ATOM     11  O   UNL     1      -0.755   8.131  22.325  0.00  0.00    +0.000 OA
ATOM     12  N   UNL     1      -0.290  10.383  21.986  0.00  0.00    +0.000 N 
ATOM     13  H   UNL     1      -0.777  10.759  22.786  0.00  0.00    +0.000 HD
ENDROOT
BRANCH   9  14
ATOM     14  C   UNL     1       2.208   7.338  19.359  0.00  0.00    +0.000 A 
ATOM     15  N   UNL     1       2.755   7.765  18.221  0.00  0.00    +0.000 NA
ATOM     16  C   UNL     1       3.747   6.818  17.940  0.00  0.00    +0.000 A 
ATOM     17  C   UNL     1       4.402   6.378  16.781  0.00  0.00    +0.000 A 
ATOM     18  C   UNL     1       5.342   5.334  16.913  0.00  0.00    +0.000 A 
ATOM     19  C   UNL     1       5.749   4.875  18.174  0.00  0.00    +0.000 A 
ATOM     20  C   UNL     1       5.066   5.259  19.325  0.00  0.00    +0.000 A 
ATOM     21  C   UNL     1       3.957   6.066  19.086  0.00  0.00    +0.000 A 
ATOM     22  N   UNL     1       2.629   6.009  19.494  0.00  0.00    +0.000 N 
BRANCH  22  23
ATOM     23  C   UNL     1       1.681   4.968  18.993  0.00  0.00    +0.000 C 
ATOM     24  C   UNL     1       2.264   4.066  17.866  0.00  0.00    +0.000 C 
ATOM     25  C   UNL     1       1.084   4.051  20.063  0.00  0.00    +0.000 C 
ENDBRANCH  22  23
ENDBRANCH   9  14
TORSDOF 2
ENDMDL
MODEL 9
REMARK VINA RESULT:      -6.8      2.139      7.212
REMARK  Name = 
REMARK  5 active torsions:
REMARK  status: ('A' for Active; 'I' for Inactive)
REMARK    1  A    between atoms: C_1  and  C_2
REMARK    2  A    between atoms: C_9  and  C_10
REMARK    3  A    between atoms: N_18  and  C_19
REMARK    4  A    between atoms: C_19  and  C_20
REMARK    5  A    between atoms: C_19  and  C_21
REMARK                            x       y       z     vdW  Elec       q    Type
REMARK                         _______ _______ _______ _____ _____    ______ ____
ROOT
ATOM      1  C   UNL     1       5.273   6.694  15.413  0.00  0.00    +0.000 C 
ATOM      2  C   UNL     1       4.761   5.869  16.557  0.00  0.00    +0.000 A 
ATOM      3  C   UNL     1       4.772   4.467  16.459  0.00  0.00    +0.000 A 
ATOM      4  C   UNL     1       4.253   3.667  17.488  0.00  0.00    +0.000 A 
ATOM      5  C   UNL     1       3.653   4.322  18.540  0.00  0.00    +0.000 A 
ATOM      6  C   UNL     1       3.533   5.718  18.598  0.00  0.00    +0.000 A 
ATOM      7  C   UNL     1       4.145   6.506  17.648  0.00  0.00    +0.000 A 
ATOM      8  C   UNL     1       2.696   5.986  19.758  0.00  0.00    +0.000 C 
ATOM      9  C   UNL     1       1.929   7.000  20.171  0.00  0.00    +0.000 C 
ATOM     10  C   UNL     1       2.510   4.672  20.485  0.00  0.00    +0.000 C 
ATOM     11  O   UNL     1       1.966   4.494  21.551  0.00  0.00    +0.000 OA
ATOM     12  N   UNL     1       3.083   3.729  19.661  0.00  0.00    +0.000 N 
ATOM     13  H   UNL     1       3.057   2.741  19.861  0.00  0.00    +0.000 HD
ENDROOT
BRANCH   9  14
ATOM     14  C   UNL     1       1.705   8.258  19.558  0.00  0.00    +0.000 A 
ATOM     15  N   UNL     1       2.335   9.113  18.753  0.00  0.00    +0.000 NA
ATOM     16  C   UNL     1       1.437  10.177  18.611  0.00  0.00    +0.000 A 
ATOM     17  C   UNL     1       1.550  11.539  18.297  0.00  0.00    +0.000 A 
ATOM     18  C   UNL     1       0.372  12.315  18.299  0.00  0.00    +0.000 A 
ATOM     19  C   UNL     1      -0.892  11.721  18.429  0.00  0.00    +0.000 A 
ATOM     20  C   UNL     1      -1.014  10.384  18.801  0.00  0.00    +0.000 A 
ATOM     21  C   UNL     1       0.198   9.754  19.069  0.00  0.00    +0.000 A 
ATOM     22  N   UNL     1       0.664   8.995  20.136  0.00  0.00    +0.000 N 
BRANCH  22  23
ATOM     23  C   UNL     1       0.949   9.589  21.478  0.00  0.00    +0.000 C 
ATOM     24  C   UNL     1       0.825  11.140  21.527  0.00  0.00    +0.000 C 
ATOM     25  C   UNL     1       0.131   9.018  22.638  0.00  0.00    +0.000 C 
ENDBRANCH  22  23
ENDBRANCH   9  14
TORSDOF 2
ENDMDL
