MODEL 1
REMARK VINA RESULT:      -7.8      0.000      0.000
REMARK  Name = 
REMARK  13 active torsions:
REMARK  status: ('A' for Active; 'I' for Inactive)
REMARK    1  A    between atoms: C_1  and  O_2
REMARK    2  A    between atoms: O_2  and  C_3
REMARK    3  A    between atoms: C_3  and  C_5
REMARK    4  A    between atoms: C_5  and  C_6
REMARK    5  A    between atoms: C_5  and  O_7
REMARK    6  A    between atoms: O_7  and  C_8
REMARK    7  A    between atoms: C_10  and  O_11
REMARK    8  A    between atoms: O_11  and  C_12
REMARK    9  A    between atoms: C_12  and  C_13
REMARK   10  A    between atoms: C_12  and  C_14
REMARK   11  A    between atoms: C_14  and  O_16
REMARK   12  A    between atoms: O_16  and  C_17
REMARK   13  A    between atoms: C_19  and  C_20
REMARK                            x       y       z     vdW  Elec       q    Type
REMARK                         _______ _______ _______ _____ _____    ______ ____
ROOT
ATOM      1  C   UNL     1       4.118   5.666  17.359  0.00  0.00    +0.000 A 
ATOM      2  C   UNL     1       3.686   5.122  18.573  0.00  0.00    +0.000 A 
ATOM      3  C   UNL     1       2.847   5.836  19.452  0.00  0.00    +0.000 A 
ATOM      4  C   UNL     1       2.455   7.165  19.152  0.00  0.00    +0.000 A 
ATOM      5  C   UNL     1       1.583   8.070  19.961  0.00  0.00    +0.000 A 
ATOM      6  C   UNL     1       0.906   7.634  21.238  0.00  0.00    +0.000 C 
ATOM      7  C   UNL     1       1.369   9.332  19.522  0.00  0.00    +0.000 A 
ATOM      8 CL   UNL     1       0.356  10.454  20.394  0.00  0.00    +0.000 Cl
ATOM      9  C   UNL     1       1.945   9.884  18.275  0.00  0.00    +0.000 A 
ATOM     10  O   UNL     1       1.771  11.036  17.896  0.00  0.00    +0.000 OA
ATOM     11  O   UNL     1       2.697   9.003  17.524  0.00  0.00    +0.000 OA
ATOM     12  C   UNL     1       2.955   7.683  17.946  0.00  0.00    +0.000 A 
ATOM     13  C   UNL     1       3.764   6.965  17.056  0.00  0.00    +0.000 A 
ENDROOT
BRANCH   1  14
ATOM     14  O   UNL     1       4.894   4.845  16.594  0.00  0.00    +0.000 OA
BRANCH  14  15
ATOM     15  C   UNL     1       5.810   5.433  15.660  0.00  0.00    +0.000 C 
ATOM     16  C   UNL     1       5.893   4.585  14.393  0.00  0.00    +0.000 C 
BRANCH  15  17
ATOM     17  C   UNL     1       7.203   5.477  16.293  0.00  0.00    +0.000 C 
ATOM     18  O   UNL     1       7.863   4.508  16.645  0.00  0.00    +0.000 OA
BRANCH  17  20
ATOM     19  C   UNL     1       7.601   7.300  17.723  0.00  0.00    +0.000 C 
ATOM     20  O   UNL     1       7.621   6.776  16.392  0.00  0.00    +0.000 OA
ENDBRANCH  17  20
ENDBRANCH  15  17
ENDBRANCH  14  15
ENDBRANCH   1  14
BRANCH   3  21
ATOM     21  O   UNL     1       2.485   5.304  20.659  0.00  0.00    +0.000 OA
BRANCH  21  22
ATOM     22  C   UNL     1       1.619   4.164  20.723  0.00  0.00    +0.000 C 
ATOM     23  C   UNL     1       1.071   3.942  19.317  0.00  0.00    +0.000 C 
BRANCH  22  24
ATOM     24  C   UNL     1       2.418   2.931  21.172  0.00  0.00    +0.000 C 
ATOM     25  O   UNL     1       2.544   2.540  22.326  0.00  0.00    +0.000 OA
BRANCH  24  26
ATOM     26  O   UNL     1       2.948   2.286  20.089  0.00  0.00    +0.000 OA
ATOM     27  C   UNL     1       4.360   2.082  20.172  0.00  0.00    +0.000 C 
ENDBRANCH  24  26
ENDBRANCH  22  24
ENDBRANCH  21  22
ENDBRANCH   3  21
TORSDOF 8
ENDMDL
MODEL 2
REMARK VINA RESULT:      -7.7      0.982      1.438
REMARK  Name = 
REMARK  13 active torsions:
REMARK  status: ('A' for Active; 'I' for Inactive)
REMARK    1  A    between atoms: C_1  and  O_2
REMARK    2  A    between atoms: O_2  and  C_3
REMARK    3  A    between atoms: C_3  and  C_5
REMARK    4  A    between atoms: C_5  and  C_6
REMARK    5  A    between atoms: C_5  and  O_7
REMARK    6  A    between atoms: O_7  and  C_8
REMARK    7  A    between atoms: C_10  and  O_11
REMARK    8  A    between atoms: O_11  and  C_12
REMARK    9  A    between atoms: C_12  and  C_13
REMARK   10  A    between atoms: C_12  and  C_14
REMARK   11  A    between atoms: C_14  and  O_16
REMARK   12  A    between atoms: O_16  and  C_17
REMARK   13  A    between atoms: C_19  and  C_20
REMARK                            x       y       z     vdW  Elec       q    Type
REMARK                         _______ _______ _______ _____ _____    ______ ____
ROOT
ATOM      1  C   UNL     1       4.433   5.203  16.742  0.00  0.00    +0.000 A 
ATOM      2  C   UNL     1       4.155   4.511  17.925  0.00  0.00    +0.000 A 
ATOM      3  C   UNL     1       3.376   5.080  18.954  0.00  0.00    +0.000 A 
ATOM      4  C   UNL     1       2.893   6.408  18.840  0.00  0.00    +0.000 A 
ATOM      5  C   UNL     1       2.066   7.171  19.823  0.00  0.00    +0.000 A 
ATOM      6  C   UNL     1       1.545   6.565  21.105  0.00  0.00    +0.000 C 
ATOM      7  C   UNL     1       1.748   8.457  19.549  0.00  0.00    +0.000 A 
ATOM      8 CL   UNL     1       0.778   9.421  20.632  0.00  0.00    +0.000 Cl
ATOM      9  C   UNL     1       2.167   9.168  18.319  0.00  0.00    +0.000 A 
ATOM     10  O   UNL     1       1.900  10.342  18.088  0.00  0.00    +0.000 OA
ATOM     11  O   UNL     1       2.879   8.416  17.408  0.00  0.00    +0.000 OA
ATOM     12  C   UNL     1       3.241   7.077  17.655  0.00  0.00    +0.000 A 
ATOM     13  C   UNL     1       3.988   6.504  16.618  0.00  0.00    +0.000 A 
ENDROOT
BRANCH   1  14
ATOM     14  O   UNL     1       5.165   4.513  15.819  0.00  0.00    +0.000 OA
BRANCH  14  15
ATOM     15  C   UNL     1       6.293   5.156  15.212  0.00  0.00    +0.000 C 
ATOM     16  C   UNL     1       6.853   4.291  14.084  0.00  0.00    +0.000 C 
BRANCH  15  17
ATOM     17  C   UNL     1       7.391   5.329  16.265  0.00  0.00    +0.000 C 
ATOM     18  O   UNL     1       7.990   4.426  16.834  0.00  0.00    +0.000 OA
BRANCH  17  20
ATOM     19  C   UNL     1       7.572   7.066  17.838  0.00  0.00    +0.000 C 
ATOM     20  O   UNL     1       7.626   6.663  16.468  0.00  0.00    +0.000 OA
ENDBRANCH  17  20
ENDBRANCH  15  17
ENDBRANCH  14  15
ENDBRANCH   1  14
BRANCH   3  21
ATOM     21  O   UNL     1       3.166   4.404  20.124  0.00  0.00    +0.000 OA
BRANCH  21  22
ATOM     22  C   UNL     1       2.826   3.012  20.113  0.00  0.00    +0.000 C 
ATOM     23  C   UNL     1       3.992   2.265  20.752  0.00  0.00    +0.000 C 
BRANCH  22  24
ATOM     24  C   UNL     1       1.547   2.783  20.933  0.00  0.00    +0.000 C 
ATOM     25  O   UNL     1       1.497   2.596  22.142  0.00  0.00    +0.000 OA
BRANCH  24  26
ATOM     26  O   UNL     1       0.444   2.859  20.128  0.00  0.00    +0.000 OA
ATOM     27  C   UNL     1       0.695   2.497  18.768  0.00  0.00    +0.000 C 
ENDBRANCH  24  26
ENDBRANCH  22  24
ENDBRANCH  21  22
ENDBRANCH   3  21
TORSDOF 8
ENDMDL
MODEL 3
REMARK VINA RESULT:      -7.6      0.949      1.220
REMARK  Name = 
REMARK  13 active torsions:
REMARK  status: ('A' for Active; 'I' for Inactive)
REMARK    1  A    between atoms: C_1  and  O_2
REMARK    2  A    between atoms: O_2  and  C_3
REMARK    3  A    between atoms: C_3  and  C_5
REMARK    4  A    between atoms: C_5  and  C_6
REMARK    5  A    between atoms: C_5  and  O_7
REMARK    6  A    between atoms: O_7  and  C_8
REMARK    7  A    between atoms: C_10  and  O_11
REMARK    8  A    between atoms: O_11  and  C_12
REMARK    9  A    between atoms: C_12  and  C_13
REMARK   10  A    between atoms: C_12  and  C_14
REMARK   11  A    between atoms: C_14  and  O_16
REMARK   12  A    between atoms: O_16  and  C_17
REMARK   13  A    between atoms: C_19  and  C_20
REMARK                            x       y       z     vdW  Elec       q    Type
REMARK                         _______ _______ _______ _____ _____    ______ ____
ROOT
ATOM      1  C   UNL     1       4.316   5.356  17.083  0.00  0.00    +0.000 A 
ATOM      2  C   UNL     1       3.930   4.738  18.277  0.00  0.00    +0.000 A 
ATOM      3  C   UNL     1       3.104   5.386  19.217  0.00  0.00    +0.000 A 
ATOM      4  C   UNL     1       2.679   6.721  19.002  0.00  0.00    +0.000 A 
ATOM      5  C   UNL     1       1.814   7.563  19.884  0.00  0.00    +0.000 A 
ATOM      6  C   UNL     1       1.183   7.044  21.154  0.00  0.00    +0.000 C 
ATOM      7  C   UNL     1       1.563   8.842  19.522  0.00  0.00    +0.000 A 
ATOM      8 CL   UNL     1       0.555   9.894  20.482  0.00  0.00    +0.000 Cl
ATOM      9  C   UNL     1       2.092   9.473  18.291  0.00  0.00    +0.000 A 
ATOM     10  O   UNL     1       1.886  10.640  17.983  0.00  0.00    +0.000 OA
ATOM     11  O   UNL     1       2.839   8.650  17.473  0.00  0.00    +0.000 OA
ATOM     12  C   UNL     1       3.133   7.314  17.813  0.00  0.00    +0.000 A 
ATOM     13  C   UNL     1       3.929   6.663  16.863  0.00  0.00    +0.000 A 
ENDROOT
BRANCH   1  14
ATOM     14  O   UNL     1       5.085   4.594  16.252  0.00  0.00    +0.000 OA
BRANCH  14  15
ATOM     15  C   UNL     1       6.098   5.237  15.466  0.00  0.00    +0.000 C 
ATOM     16  C   UNL     1       6.429   4.394  14.236  0.00  0.00    +0.000 C 
BRANCH  15  17
ATOM     17  C   UNL     1       7.371   5.366  16.308  0.00  0.00    +0.000 C 
ATOM     18  O   UNL     1       7.993   4.442  16.815  0.00  0.00    +0.000 OA
BRANCH  17  20
ATOM     19  C   UNL     1       7.532   7.261  17.690  0.00  0.00    +0.000 C 
ATOM     20  O   UNL     1       7.730   6.684  16.397  0.00  0.00    +0.000 OA
ENDBRANCH  17  20
ENDBRANCH  15  17
ENDBRANCH  14  15
ENDBRANCH   1  14
BRANCH   3  21
ATOM     21  O   UNL     1       2.787   4.781  20.403  0.00  0.00    +0.000 OA
BRANCH  21  22
ATOM     22  C   UNL     1       2.608   3.361  20.472  0.00  0.00    +0.000 C 
ATOM     23  C   UNL     1       2.348   3.017  21.935  0.00  0.00    +0.000 C 
BRANCH  22  24
ATOM     24  C   UNL     1       1.401   2.947  19.616  0.00  0.00    +0.000 C 
ATOM     25  O   UNL     1       0.338   3.549  19.541  0.00  0.00    +0.000 OA
BRANCH  24  26
ATOM     26  O   UNL     1       1.688   1.817  18.901  0.00  0.00    +0.000 OA
ATOM     27  C   UNL     1       3.079   1.653  18.614  0.00  0.00    +0.000 C 
ENDBRANCH  24  26
ENDBRANCH  22  24
ENDBRANCH  21  22
ENDBRANCH   3  21
TORSDOF 8
ENDMDL
MODEL 4
REMARK VINA RESULT:      -7.4      2.589      6.974
REMARK  Name = 
REMARK  13 active torsions:
REMARK  status: ('A' for Active; 'I' for Inactive)
REMARK    1  A    between atoms: C_1  and  O_2
REMARK    2  A    between atoms: O_2  and  C_3
REMARK    3  A    between atoms: C_3  and  C_5
REMARK    4  A    between atoms: C_5  and  C_6
REMARK    5  A    between atoms: C_5  and  O_7
REMARK    6  A    between atoms: O_7  and  C_8
REMARK    7  A    between atoms: C_10  and  O_11
REMARK    8  A    between atoms: O_11  and  C_12
REMARK    9  A    between atoms: C_12  and  C_13
REMARK   10  A    between atoms: C_12  and  C_14
REMARK   11  A    between atoms: C_14  and  O_16
REMARK   12  A    between atoms: O_16  and  C_17
REMARK   13  A    between atoms: C_19  and  C_20
REMARK                            x       y       z     vdW  Elec       q    Type
REMARK                         _______ _______ _______ _____ _____    ______ ____
ROOT
ATOM      1  C   UNL     1       2.025   7.967  19.272  0.00  0.00    +0.000 A 
ATOM      2  C   UNL     1       2.809   7.654  18.156  0.00  0.00    +0.000 A 
ATOM      3  C   UNL     1       3.306   6.353  17.938  0.00  0.00    +0.000 A 
ATOM      4  C   UNL     1       3.069   5.324  18.883  0.00  0.00    +0.000 A 
ATOM      5  C   UNL     1       3.519   3.900  18.823  0.00  0.00    +0.000 A 
ATOM      6  C   UNL     1       4.264   3.323  17.642  0.00  0.00    +0.000 C 
ATOM      7  C   UNL     1       3.232   3.080  19.860  0.00  0.00    +0.000 A 
ATOM      8 CL   UNL     1       3.706   1.402  19.871  0.00  0.00    +0.000 Cl
ATOM      9  C   UNL     1       2.486   3.504  21.067  0.00  0.00    +0.000 A 
ATOM     10  O   UNL     1       2.252   2.765  22.016  0.00  0.00    +0.000 OA
ATOM     11  O   UNL     1       2.035   4.809  21.063  0.00  0.00    +0.000 OA
ATOM     12  C   UNL     1       2.319   5.701  20.009  0.00  0.00    +0.000 A 
ATOM     13  C   UNL     1       1.798   6.984  20.215  0.00  0.00    +0.000 A 
ENDROOT
BRANCH   1  14
ATOM     14  O   UNL     1       1.581   9.256  19.332  0.00  0.00    +0.000 OA
BRANCH  14  15
ATOM     15  C   UNL     1       0.457   9.561  20.168  0.00  0.00    +0.000 C 
ATOM     16  C   UNL     1      -0.595  10.338  19.379  0.00  0.00    +0.000 C 
BRANCH  15  17
ATOM     17  C   UNL     1       0.926  10.444  21.328  0.00  0.00    +0.000 C 
ATOM     18  O   UNL     1       1.114  11.653  21.279  0.00  0.00    +0.000 OA
BRANCH  17  20
ATOM     19  C   UNL     1      -0.080   9.582  23.270  0.00  0.00    +0.000 C 
ATOM     20  O   UNL     1       1.088   9.679  22.450  0.00  0.00    +0.000 OA
ENDBRANCH  17  20
ENDBRANCH  15  17
ENDBRANCH  14  15
ENDBRANCH   1  14
BRANCH   3  21
ATOM     21  O   UNL     1       4.117   6.087  16.869  0.00  0.00    +0.000 OA
BRANCH  21  22
ATOM     22  C   UNL     1       5.447   6.618  16.812  0.00  0.00    +0.000 C 
ATOM     23  C   UNL     1       6.082   6.374  18.177  0.00  0.00    +0.000 C 
BRANCH  22  24
ATOM     24  C   UNL     1       6.251   5.888  15.725  0.00  0.00    +0.000 C 
ATOM     25  O   UNL     1       7.470   5.890  15.614  0.00  0.00    +0.000 OA
BRANCH  24  26
ATOM     26  O   UNL     1       5.413   5.186  14.902  0.00  0.00    +0.000 OA
ATOM     27  C   UNL     1       6.037   4.074  14.255  0.00  0.00    +0.000 C 
ENDBRANCH  24  26
ENDBRANCH  22  24
ENDBRANCH  21  22
ENDBRANCH   3  21
TORSDOF 8
ENDMDL
MODEL 5
REMARK VINA RESULT:      -7.3      1.652      2.717
REMARK  Name = 
REMARK  13 active torsions:
REMARK  status: ('A' for Active; 'I' for Inactive)
REMARK    1  A    between atoms: C_1  and  O_2
REMARK    2  A    between atoms: O_2  and  C_3
REMARK    3  A    between atoms: C_3  and  C_5
REMARK    4  A    between atoms: C_5  and  C_6
REMARK    5  A    between atoms: C_5  and  O_7
REMARK    6  A    between atoms: O_7  and  C_8
REMARK    7  A    between atoms: C_10  and  O_11
REMARK    8  A    between atoms: O_11  and  C_12
REMARK    9  A    between atoms: C_12  and  C_13
REMARK   10  A    between atoms: C_12  and  C_14
REMARK   11  A    between atoms: C_14  and  O_16
REMARK   12  A    between atoms: O_16  and  C_17
REMARK   13  A    between atoms: C_19  and  C_20
REMARK                            x       y       z     vdW  Elec       q    Type
REMARK                         _______ _______ _______ _____ _____    ______ ____
ROOT
ATOM      1  C   UNL     1       4.756   6.276  16.598  0.00  0.00    +0.000 A 
ATOM      2  C   UNL     1       4.624   5.212  17.496  0.00  0.00    +0.000 A 
ATOM      3  C   UNL     1       3.745   5.272  18.596  0.00  0.00    +0.000 A 
ATOM      4  C   UNL     1       3.000   6.449  18.859  0.00  0.00    +0.000 A 
ATOM      5  C   UNL     1       2.032   6.693  19.972  0.00  0.00    +0.000 A 
ATOM      6  C   UNL     1       1.646   5.632  20.974  0.00  0.00    +0.000 C 
ATOM      7  C   UNL     1       1.457   7.913  20.080  0.00  0.00    +0.000 A 
ATOM      8 CL   UNL     1       0.308   8.286  21.339  0.00  0.00    +0.000 Cl
ATOM      9  C   UNL     1       1.722   9.037  19.153  0.00  0.00    +0.000 A 
ATOM     10  O   UNL     1       1.221  10.149  19.271  0.00  0.00    +0.000 OA
ATOM     11  O   UNL     1       2.575   8.758  18.104  0.00  0.00    +0.000 OA
ATOM     12  C   UNL     1       3.204   7.505  17.958  0.00  0.00    +0.000 A 
ATOM     13  C   UNL     1       4.054   7.439  16.846  0.00  0.00    +0.000 A 
ENDROOT
BRANCH   1  14
ATOM     14  O   UNL     1       5.615   6.062  15.560  0.00  0.00    +0.000 OA
BRANCH  14  15
ATOM     15  C   UNL     1       6.359   4.837  15.520  0.00  0.00    +0.000 C 
ATOM     16  C   UNL     1       7.485   4.868  16.551  0.00  0.00    +0.000 C 
BRANCH  15  17
ATOM     17  C   UNL     1       6.992   4.686  14.134  0.00  0.00    +0.000 C 
ATOM     18  O   UNL     1       7.864   5.402  13.660  0.00  0.00    +0.000 OA
BRANCH  17  20
ATOM     19  C   UNL     1       6.617   3.611  12.077  0.00  0.00    +0.000 C 
ATOM     20  O   UNL     1       6.445   3.605  13.496  0.00  0.00    +0.000 OA
ENDBRANCH  17  20
ENDBRANCH  15  17
ENDBRANCH  14  15
ENDBRANCH   1  14
BRANCH   3  21
ATOM     21  O   UNL     1       3.676   4.239  19.492  0.00  0.00    +0.000 OA
BRANCH  21  22
ATOM     22  C   UNL     1       4.016   2.905  19.095  0.00  0.00    +0.000 C 
ATOM     23  C   UNL     1       4.416   2.153  20.360  0.00  0.00    +0.000 C 
BRANCH  22  24
ATOM     24  C   UNL     1       2.796   2.229  18.450  0.00  0.00    +0.000 C 
ATOM     25  O   UNL     1       2.685   1.930  17.268  0.00  0.00    +0.000 OA
BRANCH  24  26
ATOM     26  O   UNL     1       1.845   1.960  19.395  0.00  0.00    +0.000 OA
ATOM     27  C   UNL     1       0.588   2.595  19.147  0.00  0.00    +0.000 C 
ENDBRANCH  24  26
ENDBRANCH  22  24
ENDBRANCH  21  22
ENDBRANCH   3  21
TORSDOF 8
ENDMDL
MODEL 6
REMARK VINA RESULT:      -7.2      2.360      6.693
REMARK  Name = 
REMARK  13 active torsions:
REMARK  status: ('A' for Active; 'I' for Inactive)
REMARK    1  A    between atoms: C_1  and  O_2
REMARK    2  A    between atoms: O_2  and  C_3
REMARK    3  A    between atoms: C_3  and  C_5
REMARK    4  A    between atoms: C_5  and  C_6
REMARK    5  A    between atoms: C_5  and  O_7
REMARK    6  A    between atoms: O_7  and  C_8
REMARK    7  A    between atoms: C_10  and  O_11
REMARK    8  A    between atoms: O_11  and  C_12
REMARK    9  A    between atoms: C_12  and  C_13
REMARK   10  A    between atoms: C_12  and  C_14
REMARK   11  A    between atoms: C_14  and  O_16
REMARK   12  A    between atoms: O_16  and  C_17
REMARK   13  A    between atoms: C_19  and  C_20
REMARK                            x       y       z     vdW  Elec       q    Type
REMARK                         _______ _______ _______ _____ _____    ______ ____
ROOT
ATOM      1  C   UNL     1       2.292   8.193  18.692  0.00  0.00    +0.000 A 
ATOM      2  C   UNL     1       3.138   7.707  17.690  0.00  0.00    +0.000 A 
ATOM      3  C   UNL     1       3.597   6.374  17.686  0.00  0.00    +0.000 A 
ATOM      4  C   UNL     1       3.256   5.492  18.742  0.00  0.00    +0.000 A 
ATOM      5  C   UNL     1       3.652   4.061  18.907  0.00  0.00    +0.000 A 
ATOM      6  C   UNL     1       4.452   3.304  17.873  0.00  0.00    +0.000 C 
ATOM      7  C   UNL     1       3.262   3.400  20.022  0.00  0.00    +0.000 A 
ATOM      8 CL   UNL     1       3.668   1.726  20.294  0.00  0.00    +0.000 Cl
ATOM      9  C   UNL     1       2.453   4.008  21.103  0.00  0.00    +0.000 A 
ATOM     10  O   UNL     1       2.126   3.414  22.124  0.00  0.00    +0.000 OA
ATOM     11  O   UNL     1       2.056   5.313  20.890  0.00  0.00    +0.000 OA
ATOM     12  C   UNL     1       2.446   6.042  19.749  0.00  0.00    +0.000 A 
ATOM     13  C   UNL     1       1.963   7.357  19.740  0.00  0.00    +0.000 A 
ENDROOT
BRANCH   1  14
ATOM     14  O   UNL     1       1.897   9.491  18.545  0.00  0.00    +0.000 OA
BRANCH  14  15
ATOM     15  C   UNL     1       0.705   9.930  19.211  0.00  0.00    +0.000 C 
ATOM     16  C   UNL     1      -0.414  10.158  18.197  0.00  0.00    +0.000 C 
BRANCH  15  17
ATOM     17  C   UNL     1       0.989  11.262  19.911  0.00  0.00    +0.000 C 
ATOM     18  O   UNL     1       1.236  11.410  21.100  0.00  0.00    +0.000 OA
BRANCH  17  20
ATOM     19  C   UNL     1       2.189  12.965  18.822  0.00  0.00    +0.000 C 
ATOM     20  O   UNL     1       0.947  12.279  18.996  0.00  0.00    +0.000 OA
ENDBRANCH  17  20
ENDBRANCH  15  17
ENDBRANCH  14  15
ENDBRANCH   1  14
BRANCH   3  21
ATOM     21  O   UNL     1       4.468   5.939  16.725  0.00  0.00    +0.000 OA
BRANCH  21  22
ATOM     22  C   UNL     1       5.808   6.444  16.672  0.00  0.00    +0.000 C 
ATOM     23  C   UNL     1       6.313   6.514  18.110  0.00  0.00    +0.000 C 
BRANCH  22  24
ATOM     24  C   UNL     1       6.691   5.488  15.855  0.00  0.00    +0.000 C 
ATOM     25  O   UNL     1       7.631   4.835  16.289  0.00  0.00    +0.000 OA
BRANCH  24  26
ATOM     26  O   UNL     1       6.256   5.427  14.560  0.00  0.00    +0.000 OA
ATOM     27  C   UNL     1       6.225   4.102  14.023  0.00  0.00    +0.000 C 
ENDBRANCH  24  26
ENDBRANCH  22  24
ENDBRANCH  21  22
ENDBRANCH   3  21
TORSDOF 8
ENDMDL
MODEL 7
REMARK VINA RESULT:      -7.0      1.468      2.233
REMARK  Name = 
REMARK  13 active torsions:
REMARK  status: ('A' for Active; 'I' for Inactive)
REMARK    1  A    between atoms: C_1  and  O_2
REMARK    2  A    between atoms: O_2  and  C_3
REMARK    3  A    between atoms: C_3  and  C_5
REMARK    4  A    between atoms: C_5  and  C_6
REMARK    5  A    between atoms: C_5  and  O_7
REMARK    6  A    between atoms: O_7  and  C_8
REMARK    7  A    between atoms: C_10  and  O_11
REMARK    8  A    between atoms: O_11  and  C_12
REMARK    9  A    between atoms: C_12  and  C_13
REMARK   10  A    between atoms: C_12  and  C_14
REMARK   11  A    between atoms: C_14  and  O_16
REMARK   12  A    between atoms: O_16  and  C_17
REMARK   13  A    between atoms: C_19  and  C_20
REMARK                            x       y       z     vdW  Elec       q    Type
REMARK                         _______ _______ _______ _____ _____    ______ ____
ROOT
ATOM      1  C   UNL     1       5.063   6.051  17.035  0.00  0.00    +0.000 A 
ATOM      2  C   UNL     1       4.752   5.232  18.125  0.00  0.00    +0.000 A 
ATOM      3  C   UNL     1       3.739   5.571  19.045  0.00  0.00    +0.000 A 
ATOM      4  C   UNL     1       3.035   6.795  18.922  0.00  0.00    +0.000 A 
ATOM      5  C   UNL     1       1.945   7.320  19.800  0.00  0.00    +0.000 A 
ATOM      6  C   UNL     1       1.368   6.534  20.953  0.00  0.00    +0.000 C 
ATOM      7  C   UNL     1       1.433   8.545  19.542  0.00  0.00    +0.000 A 
ATOM      8 CL   UNL     1       0.151   9.233  20.504  0.00  0.00    +0.000 Cl
ATOM      9  C   UNL     1       1.883   9.412  18.429  0.00  0.00    +0.000 A 
ATOM     10  O   UNL     1       1.435  10.533  18.216  0.00  0.00    +0.000 OA
ATOM     11  O   UNL     1       2.849   8.872  17.605  0.00  0.00    +0.000 OA
ATOM     12  C   UNL     1       3.418   7.605  17.841  0.00  0.00    +0.000 A 
ATOM     13  C   UNL     1       4.403   7.257  16.907  0.00  0.00    +0.000 A 
ENDROOT
BRANCH   1  14
ATOM     14  O   UNL     1       6.038   5.577  16.206  0.00  0.00    +0.000 OA
BRANCH  14  15
ATOM     15  C   UNL     1       5.663   4.722  15.117  0.00  0.00    +0.000 C 
ATOM     16  C   UNL     1       5.492   3.286  15.605  0.00  0.00    +0.000 C 
BRANCH  15  17
ATOM     17  C   UNL     1       6.780   4.736  14.069  0.00  0.00    +0.000 C 
ATOM     18  O   UNL     1       7.754   5.478  14.067  0.00  0.00    +0.000 OA
BRANCH  17  20
ATOM     19  C   UNL     1       7.126   4.034  11.853  0.00  0.00    +0.000 C 
ATOM     20  O   UNL     1       6.540   3.770  13.130  0.00  0.00    +0.000 OA
ENDBRANCH  17  20
ENDBRANCH  15  17
ENDBRANCH  14  15
ENDBRANCH   1  14
BRANCH   3  21
ATOM     21  O   UNL     1       3.493   4.781  20.135  0.00  0.00    +0.000 OA
BRANCH  21  22
ATOM     22  C   UNL     1       3.106   3.411  19.969  0.00  0.00    +0.000 C 
ATOM     23  C   UNL     1       4.319   2.560  20.333  0.00  0.00    +0.000 C 
BRANCH  22  24
ATOM     24  C   UNL     1       1.938   3.084  20.912  0.00  0.00    +0.000 C 
ATOM     25  O   UNL     1       2.029   2.854  22.111  0.00  0.00    +0.000 OA
BRANCH  24  26
ATOM     26  O   UNL     1       0.751   3.126  20.234  0.00  0.00    +0.000 OA
ATOM     27  C   UNL     1       0.816   2.562  18.922  0.00  0.00    +0.000 C 
ENDBRANCH  24  26
ENDBRANCH  22  24
ENDBRANCH  21  22
ENDBRANCH   3  21
TORSDOF 8
ENDMDL
MODEL 8
REMARK VINA RESULT:      -7.0      1.530      2.081
REMARK  Name = 
REMARK  13 active torsions:
REMARK  status: ('A' for Active; 'I' for Inactive)
REMARK    1  A    between atoms: C_1  and  O_2
REMARK    2  A    between atoms: O_2  and  C_3
REMARK    3  A    between atoms: C_3  and  C_5
REMARK    4  A    between atoms: C_5  and  C_6
REMARK    5  A    between atoms: C_5  and  O_7
REMARK    6  A    between atoms: O_7  and  C_8
REMARK    7  A    between atoms: C_10  and  O_11
REMARK    8  A    between atoms: O_11  and  C_12
REMARK    9  A    between atoms: C_12  and  C_13
REMARK   10  A    between atoms: C_12  and  C_14
REMARK   11  A    between atoms: C_14  and  O_16
REMARK   12  A    between atoms: O_16  and  C_17
REMARK   13  A    between atoms: C_19  and  C_20
REMARK                            x       y       z     vdW  Elec       q    Type
REMARK                         _______ _______ _______ _____ _____    ______ ____
ROOT
ATOM      1  C   UNL     1       4.899   4.828  17.157  0.00  0.00    +0.000 A 
ATOM      2  C   UNL     1       4.471   4.287  18.374  0.00  0.00    +0.000 A 
ATOM      3  C   UNL     1       3.558   4.963  19.209  0.00  0.00    +0.000 A 
ATOM      4  C   UNL     1       3.084   6.253  18.860  0.00  0.00    +0.000 A 
ATOM      5  C   UNL     1       2.128   7.115  19.619  0.00  0.00    +0.000 A 
ATOM      6  C   UNL     1       1.445   6.666  20.889  0.00  0.00    +0.000 C 
ATOM      7  C   UNL     1       1.839   8.347  19.139  0.00  0.00    +0.000 A 
ATOM      8 CL   UNL     1       0.725   9.417  19.950  0.00  0.00    +0.000 Cl
ATOM      9  C   UNL     1       2.411   8.905  17.893  0.00  0.00    +0.000 A 
ATOM     10  O   UNL     1       2.169  10.032  17.477  0.00  0.00    +0.000 OA
ATOM     11  O   UNL     1       3.245   8.060  17.189  0.00  0.00    +0.000 OA
ATOM     12  C   UNL     1       3.582   6.773  17.654  0.00  0.00    +0.000 A 
ATOM     13  C   UNL     1       4.465   6.091  16.808  0.00  0.00    +0.000 A 
ENDROOT
BRANCH   1  14
ATOM     14  O   UNL     1       5.753   4.044  16.437  0.00  0.00    +0.000 OA
BRANCH  14  15
ATOM     15  C   UNL     1       7.015   4.590  16.029  0.00  0.00    +0.000 C 
ATOM     16  C   UNL     1       7.244   5.947  16.692  0.00  0.00    +0.000 C 
BRANCH  15  17
ATOM     17  C   UNL     1       6.996   4.801  14.512  0.00  0.00    +0.000 C 
ATOM     18  O   UNL     1       6.182   4.327  13.731  0.00  0.00    +0.000 OA
BRANCH  17  20
ATOM     19  C   UNL     1       8.306   5.640  12.749  0.00  0.00    +0.000 C 
ATOM     20  O   UNL     1       8.027   5.627  14.152  0.00  0.00    +0.000 OA
ENDBRANCH  17  20
ENDBRANCH  15  17
ENDBRANCH  14  15
ENDBRANCH   1  14
BRANCH   3  21
ATOM     21  O   UNL     1       3.199   4.439  20.420  0.00  0.00    +0.000 OA
BRANCH  21  22
ATOM     22  C   UNL     1       2.675   3.108  20.512  0.00  0.00    +0.000 C 
ATOM     23  C   UNL     1       2.257   2.895  21.964  0.00  0.00    +0.000 C 
BRANCH  22  24
ATOM     24  C   UNL     1       1.453   2.967  19.592  0.00  0.00    +0.000 C 
ATOM     25  O   UNL     1       0.392   3.567  19.714  0.00  0.00    +0.000 OA
BRANCH  24  26
ATOM     26  O   UNL     1       1.722   2.097  18.571  0.00  0.00    +0.000 OA
ATOM     27  C   UNL     1       2.965   1.406  18.714  0.00  0.00    +0.000 C 
ENDBRANCH  24  26
ENDBRANCH  22  24
ENDBRANCH  21  22
ENDBRANCH   3  21
TORSDOF 8
ENDMDL
MODEL 9
REMARK VINA RESULT:      -7.0      1.559      2.297
REMARK  Name = 
REMARK  13 active torsions:
REMARK  status: ('A' for Active; 'I' for Inactive)
REMARK    1  A    between atoms: C_1  and  O_2
REMARK    2  A    between atoms: O_2  and  C_3
REMARK    3  A    between atoms: C_3  and  C_5
REMARK    4  A    between atoms: C_5  and  C_6
REMARK    5  A    between atoms: C_5  and  O_7
REMARK    6  A    between atoms: O_7  and  C_8
REMARK    7  A    between atoms: C_10  and  O_11
REMARK    8  A    between atoms: O_11  and  C_12
REMARK    9  A    between atoms: C_12  and  C_13
REMARK   10  A    between atoms: C_12  and  C_14
REMARK   11  A    between atoms: C_14  and  O_16
REMARK   12  A    between atoms: O_16  and  C_17
REMARK   13  A    between atoms: C_19  and  C_20
REMARK                            x       y       z     vdW  Elec       q    Type
REMARK                         _______ _______ _______ _____ _____    ______ ____
ROOT
ATOM      1  C   UNL     1       4.585   6.670  16.889  0.00  0.00    +0.000 A 
ATOM      2  C   UNL     1       4.405   5.721  17.900  0.00  0.00    +0.000 A 
ATOM      3  C   UNL     1       3.470   5.909  18.938  0.00  0.00    +0.000 A 
ATOM      4  C   UNL     1       2.714   7.106  19.018  0.00  0.00    +0.000 A 
ATOM      5  C   UNL     1       1.691   7.479  20.042  0.00  0.00    +0.000 A 
ATOM      6  C   UNL     1       1.250   6.544  21.143  0.00  0.00    +0.000 C 
ATOM      7  C   UNL     1       1.114   8.701  19.971  0.00  0.00    +0.000 A 
ATOM      8 CL   UNL     1      -0.099   9.218  21.115  0.00  0.00    +0.000 Cl
ATOM      9  C   UNL     1       1.429   9.706  18.930  0.00  0.00    +0.000 A 
ATOM     10  O   UNL     1       0.924  10.822  18.888  0.00  0.00    +0.000 OA
ATOM     11  O   UNL     1       2.334   9.306  17.969  0.00  0.00    +0.000 OA
ATOM     12  C   UNL     1       2.968   8.048  18.007  0.00  0.00    +0.000 A 
ATOM     13  C   UNL     1       3.874   7.851  16.958  0.00  0.00    +0.000 A 
ENDROOT
BRANCH   1  14
ATOM     14  O   UNL     1       5.497   6.336  15.929  0.00  0.00    +0.000 OA
BRANCH  14  15
ATOM     15  C   UNL     1       6.154   5.064  16.013  0.00  0.00    +0.000 C 
ATOM     16  C   UNL     1       7.275   5.114  17.049  0.00  0.00    +0.000 C 
BRANCH  15  17
ATOM     17  C   UNL     1       6.779   4.738  14.654  0.00  0.00    +0.000 C 
ATOM     18  O   UNL     1       7.724   5.323  14.140  0.00  0.00    +0.000 OA
BRANCH  17  20
ATOM     19  C   UNL     1       6.305   3.551  12.682  0.00  0.00    +0.000 C 
ATOM     20  O   UNL     1       6.133   3.669  14.096  0.00  0.00    +0.000 OA
ENDBRANCH  17  20
ENDBRANCH  15  17
ENDBRANCH  14  15
ENDBRANCH   1  14
BRANCH   3  21
ATOM     21  O   UNL     1       3.352   4.992  19.947  0.00  0.00    +0.000 OA
BRANCH  21  22
ATOM     22  C   UNL     1       3.063   3.620  19.654  0.00  0.00    +0.000 C 
ATOM     23  C   UNL     1       3.163   2.855  20.970  0.00  0.00    +0.000 C 
BRANCH  22  24
ATOM     24  C   UNL     1       1.640   3.498  19.088  0.00  0.00    +0.000 C 
ATOM     25  O   UNL     1       0.603   3.606  19.729  0.00  0.00    +0.000 OA
BRANCH  24  26
ATOM     26  O   UNL     1       1.681   3.291  17.736  0.00  0.00    +0.000 OA
ATOM     27  C   UNL     1       2.680   2.355  17.325  0.00  0.00    +0.000 C 
ENDBRANCH  24  26
ENDBRANCH  22  24
ENDBRANCH  21  22
ENDBRANCH   3  21
TORSDOF 8
ENDMDL
