MODEL 1
REMARK VINA RESULT:      -8.7      0.000      0.000
REMARK  Name = 
REMARK  5 active torsions:
REMARK  status: ('A' for Active; 'I' for Inactive)
REMARK    1  A    between atoms: C_7  and  C_8
REMARK    2  A    between atoms: C_8  and  C_9
REMARK    3  A    between atoms: C_12  and  N_13
REMARK    4  A    between atoms: C_14  and  C_16
REMARK    5  A    between atoms: C_17  and  C_18
REMARK                            x       y       z     vdW  Elec       q    Type
REMARK                         _______ _______ _______ _____ _____    ______ ____
ROOT
ATOM      1  C   UNL     1       4.858   4.522  17.346  0.00  0.00    +0.000 A 
ATOM      2  C   UNL     1       4.215   5.744  17.553  0.00  0.00    +0.000 A 
ATOM      3  C   UNL     1       4.922   6.946  17.471  0.00  0.00    +0.000 A 
ATOM      4  C   UNL     1       6.291   6.963  17.187  0.00  0.00    +0.000 A 
ATOM      5  C   UNL     1       6.925   5.745  16.917  0.00  0.00    +0.000 A 
ATOM      6  C   UNL     1       6.215   4.534  16.993  0.00  0.00    +0.000 A 
ENDROOT
BRANCH   4   7
ATOM      7  N   UNL     1       7.066   8.152  17.175  0.00  0.00    +0.000 N 
ATOM      8  C   UNL     1       8.121   8.429  18.025  0.00  0.00    +0.000 C 
ATOM      9  O   UNL     1       8.539   7.711  18.925  0.00  0.00    +0.000 OA
ATOM     10  H   UNL     1       6.853   8.819  16.446  0.00  0.00    +0.000 HD
BRANCH   8  11
ATOM     11  C   UNL     1       8.773   9.745  17.767  0.00  0.00    +0.000 C 
ATOM     12  C   UNL     1       9.396  10.334  18.802  0.00  0.00    +0.000 C 
BRANCH  12  13
ATOM     13  C   UNL     1      10.043  11.651  18.795  0.00  0.00    +0.000 A 
ATOM     14  C   UNL     1      10.784  12.027  19.926  0.00  0.00    +0.000 A 
ATOM     15  C   UNL     1      11.422  13.266  19.986  0.00  0.00    +0.000 A 
ATOM     16  C   UNL     1      11.336  14.140  18.904  0.00  0.00    +0.000 A 
ATOM     17  C   UNL     1      10.627  13.766  17.761  0.00  0.00    +0.000 A 
ATOM     18  C   UNL     1       9.989  12.525  17.704  0.00  0.00    +0.000 A 
ENDBRANCH  12  13
ENDBRANCH   8  11
ENDBRANCH   4   7
BRANCH   1  19
ATOM     19  C   UNL     1       4.082   3.229  17.493  0.00  0.00    +0.000 C 
BRANCH  19  26
ATOM     20  C   UNL     1       1.040   3.695  18.021  0.00  0.00    +0.000 C 
ATOM     21  C   UNL     1       1.933   3.319  18.938  0.00  0.00    +0.000 C 
ATOM     22  O   UNL     1       1.550   3.101  20.257  0.00  0.00    +0.000 OA
ATOM     23  C   UNL     1       2.687   2.686  20.893  0.00  0.00    +0.000 C 
ATOM     24  O   UNL     1       2.767   2.385  22.070  0.00  0.00    +0.000 OA
ATOM     25  C   UNL     1       3.810   2.659  19.958  0.00  0.00    +0.000 C 
ATOM     26  C   UNL     1       3.333   3.061  18.782  0.00  0.00    +0.000 C 
ENDBRANCH  19  26
ENDBRANCH   1  19
TORSDOF 5
ENDMDL
MODEL 2
REMARK VINA RESULT:      -8.6      1.142      1.550
REMARK  Name = 
REMARK  5 active torsions:
REMARK  status: ('A' for Active; 'I' for Inactive)
REMARK    1  A    between atoms: C_7  and  C_8
REMARK    2  A    between atoms: C_8  and  C_9
REMARK    3  A    between atoms: C_12  and  N_13
REMARK    4  A    between atoms: C_14  and  C_16
REMARK    5  A    between atoms: C_17  and  C_18
REMARK                            x       y       z     vdW  Elec       q    Type
REMARK                         _______ _______ _______ _____ _____    ______ ____
ROOT
ATOM      1  C   UNL     1       3.161   5.108  17.453  0.00  0.00    +0.000 A 
ATOM      2  C   UNL     1       2.971   6.403  17.938  0.00  0.00    +0.000 A 
ATOM      3  C   UNL     1       3.996   7.349  17.870  0.00  0.00    +0.000 A 
ATOM      4  C   UNL     1       5.242   7.030  17.322  0.00  0.00    +0.000 A 
ATOM      5  C   UNL     1       5.415   5.752  16.778  0.00  0.00    +0.000 A 
ATOM      6  C   UNL     1       4.383   4.800  16.839  0.00  0.00    +0.000 A 
ENDROOT
BRANCH   4   7
ATOM      7  N   UNL     1       6.337   7.932  17.307  0.00  0.00    +0.000 N 
ATOM      8  C   UNL     1       7.554   7.725  17.931  0.00  0.00    +0.000 C 
ATOM      9  O   UNL     1       7.871   6.751  18.604  0.00  0.00    +0.000 OA
ATOM     10  H   UNL     1       6.224   8.765  16.747  0.00  0.00    +0.000 HD
BRANCH   8  11
ATOM     11  C   UNL     1       8.533   8.829  17.724  0.00  0.00    +0.000 C 
ATOM     12  C   UNL     1       8.860   9.569  18.798  0.00  0.00    +0.000 C 
BRANCH  12  13
ATOM     13  C   UNL     1       9.744  10.740  18.814  0.00  0.00    +0.000 A 
ATOM     14  C   UNL     1      10.244  11.171  20.053  0.00  0.00    +0.000 A 
ATOM     15  C   UNL     1      11.088  12.278  20.139  0.00  0.00    +0.000 A 
ATOM     16  C   UNL     1      11.453  12.960  18.980  0.00  0.00    +0.000 A 
ATOM     17  C   UNL     1      10.987  12.524  17.738  0.00  0.00    +0.000 A 
ATOM     18  C   UNL     1      10.141  11.415  17.655  0.00  0.00    +0.000 A 
ENDBRANCH  12  13
ENDBRANCH   8  11
ENDBRANCH   4   7
BRANCH   1  19
ATOM     19  C   UNL     1       2.052   4.084  17.585  0.00  0.00    +0.000 C 
BRANCH  19  26
ATOM     20  C   UNL     1       3.514   1.460  18.440  0.00  0.00    +0.000 C 
ATOM     21  C   UNL     1       2.670   2.156  19.203  0.00  0.00    +0.000 C 
ATOM     22  O   UNL     1       2.368   1.738  20.495  0.00  0.00    +0.000 OA
ATOM     23  C   UNL     1       1.529   2.696  20.991  0.00  0.00    +0.000 C 
ATOM     24  O   UNL     1       1.042   2.698  22.108  0.00  0.00    +0.000 OA
ATOM     25  C   UNL     1       1.288   3.729  19.986  0.00  0.00    +0.000 C 
ATOM     26  C   UNL     1       1.976   3.373  18.905  0.00  0.00    +0.000 C 
ENDBRANCH  19  26
ENDBRANCH   1  19
TORSDOF 5
ENDMDL
MODEL 3
REMARK VINA RESULT:      -8.4      1.037      1.776
REMARK  Name = 
REMARK  5 active torsions:
REMARK  status: ('A' for Active; 'I' for Inactive)
REMARK    1  A    between atoms: C_7  and  C_8
REMARK    2  A    between atoms: C_8  and  C_9
REMARK    3  A    between atoms: C_12  and  N_13
REMARK    4  A    between atoms: C_14  and  C_16
REMARK    5  A    between atoms: C_17  and  C_18
REMARK                            x       y       z     vdW  Elec       q    Type
REMARK                         _______ _______ _______ _____ _____    ______ ____
ROOT
ATOM      1  C   UNL     1       3.600   4.671  17.595  0.00  0.00    +0.000 A 
ATOM      2  C   UNL     1       3.254   5.936  18.077  0.00  0.00    +0.000 A 
ATOM      3  C   UNL     1       4.118   7.021  17.918  0.00  0.00    +0.000 A 
ATOM      4  C   UNL     1       5.354   6.877  17.282  0.00  0.00    +0.000 A 
ATOM      5  C   UNL     1       5.677   5.626  16.743  0.00  0.00    +0.000 A 
ATOM      6  C   UNL     1       4.807   4.533  16.895  0.00  0.00    +0.000 A 
ENDROOT
BRANCH   4   7
ATOM      7  N   UNL     1       6.298   7.931  17.171  0.00  0.00    +0.000 N 
ATOM      8  C   UNL     1       7.532   7.969  17.794  0.00  0.00    +0.000 C 
ATOM      9  O   UNL     1       7.996   7.120  18.546  0.00  0.00    +0.000 OA
ATOM     10  H   UNL     1       6.058   8.683  16.540  0.00  0.00    +0.000 HD
BRANCH   8  11
ATOM     11  C   UNL     1       8.330   9.188  17.476  0.00  0.00    +0.000 C 
ATOM     12  C   UNL     1       8.916   9.824  18.505  0.00  0.00    +0.000 C 
BRANCH  12  13
ATOM     13  C   UNL     1       9.686  11.070  18.436  0.00  0.00    +0.000 A 
ATOM     14  C   UNL     1       9.133  12.148  17.728  0.00  0.00    +0.000 A 
ATOM     15  C   UNL     1       9.813  13.362  17.621  0.00  0.00    +0.000 A 
ATOM     16  C   UNL     1      11.054  13.513  18.236  0.00  0.00    +0.000 A 
ATOM     17  C   UNL     1      11.603  12.459  18.968  0.00  0.00    +0.000 A 
ATOM     18  C   UNL     1      10.919  11.245  19.073  0.00  0.00    +0.000 A 
ENDBRANCH  12  13
ENDBRANCH   8  11
ENDBRANCH   4   7
BRANCH   1  19
ATOM     19  C   UNL     1       2.670   3.497  17.826  0.00  0.00    +0.000 C 
BRANCH  19  26
ATOM     20  C   UNL     1       4.762   2.288  19.803  0.00  0.00    +0.000 C 
ATOM     21  C   UNL     1       3.483   2.531  20.089  0.00  0.00    +0.000 C 
ATOM     22  O   UNL     1       2.967   2.247  21.350  0.00  0.00    +0.000 OA
ATOM     23  C   UNL     1       1.666   2.662  21.303  0.00  0.00    +0.000 C 
ATOM     24  O   UNL     1       0.870   2.591  22.222  0.00  0.00    +0.000 OA
ATOM     25  C   UNL     1       1.353   3.204  19.983  0.00  0.00    +0.000 C 
ATOM     26  C   UNL     1       2.464   3.101  19.258  0.00  0.00    +0.000 C 
ENDBRANCH  19  26
ENDBRANCH   1  19
TORSDOF 5
ENDMDL
MODEL 4
REMARK VINA RESULT:      -8.4      0.780      1.278
REMARK  Name = 
REMARK  5 active torsions:
REMARK  status: ('A' for Active; 'I' for Inactive)
REMARK    1  A    between atoms: C_7  and  C_8
REMARK    2  A    between atoms: C_8  and  C_9
REMARK    3  A    between atoms: C_12  and  N_13
REMARK    4  A    between atoms: C_14  and  C_16
REMARK    5  A    between atoms: C_17  and  C_18
REMARK                            x       y       z     vdW  Elec       q    Type
REMARK                         _______ _______ _______ _____ _____    ______ ____
ROOT
ATOM      1  C   UNL     1       4.812   4.252  17.484  0.00  0.00    +0.000 A 
ATOM      2  C   UNL     1       4.828   5.010  16.311  0.00  0.00    +0.000 A 
ATOM      3  C   UNL     1       5.571   6.190  16.234  0.00  0.00    +0.000 A 
ATOM      4  C   UNL     1       6.314   6.652  17.324  0.00  0.00    +0.000 A 
ATOM      5  C   UNL     1       6.351   5.862  18.480  0.00  0.00    +0.000 A 
ATOM      6  C   UNL     1       5.609   4.671  18.558  0.00  0.00    +0.000 A 
ENDROOT
BRANCH   4   7
ATOM      7  N   UNL     1       7.017   7.885  17.319  0.00  0.00    +0.000 N 
ATOM      8  C   UNL     1       8.095   8.196  18.127  0.00  0.00    +0.000 C 
ATOM      9  O   UNL     1       8.599   7.473  18.979  0.00  0.00    +0.000 OA
ATOM     10  H   UNL     1       6.728   8.562  16.627  0.00  0.00    +0.000 HD
BRANCH   8  11
ATOM     11  C   UNL     1       8.655   9.556  17.887  0.00  0.00    +0.000 C 
ATOM     12  C   UNL     1       9.382  10.104  18.877  0.00  0.00    +0.000 C 
BRANCH  12  13
ATOM     13  C   UNL     1       9.969  11.448  18.886  0.00  0.00    +0.000 A 
ATOM     14  C   UNL     1       9.806  12.246  17.744  0.00  0.00    +0.000 A 
ATOM     15  C   UNL     1      10.340  13.534  17.686  0.00  0.00    +0.000 A 
ATOM     16  C   UNL     1      11.035  14.042  18.782  0.00  0.00    +0.000 A 
ATOM     17  C   UNL     1      11.179  13.271  19.936  0.00  0.00    +0.000 A 
ATOM     18  C   UNL     1      10.642  11.982  19.990  0.00  0.00    +0.000 A 
ENDBRANCH  12  13
ENDBRANCH   8  11
ENDBRANCH   4   7
BRANCH   1  19
ATOM     19  C   UNL     1       3.956   3.004  17.562  0.00  0.00    +0.000 C 
BRANCH  19  26
ATOM     20  C   UNL     1       1.166   4.405  17.566  0.00  0.00    +0.000 C 
ATOM     21  C   UNL     1       1.668   3.685  18.569  0.00  0.00    +0.000 C 
ATOM     22  O   UNL     1       0.947   3.501  19.745  0.00  0.00    +0.000 OA
ATOM     23  C   UNL     1       1.728   2.686  20.517  0.00  0.00    +0.000 C 
ATOM     24  O   UNL     1       1.442   2.284  21.630  0.00  0.00    +0.000 OA
ATOM     25  C   UNL     1       2.970   2.364  19.818  0.00  0.00    +0.000 C 
ATOM     26  C   UNL     1       2.919   2.992  18.646  0.00  0.00    +0.000 C 
ENDBRANCH  19  26
ENDBRANCH   1  19
TORSDOF 5
ENDMDL
MODEL 5
REMARK VINA RESULT:      -8.3      1.240      1.855
REMARK  Name = 
REMARK  5 active torsions:
REMARK  status: ('A' for Active; 'I' for Inactive)
REMARK    1  A    between atoms: C_7  and  C_8
REMARK    2  A    between atoms: C_8  and  C_9
REMARK    3  A    between atoms: C_12  and  N_13
REMARK    4  A    between atoms: C_14  and  C_16
REMARK    5  A    between atoms: C_17  and  C_18
REMARK                            x       y       z     vdW  Elec       q    Type
REMARK                         _______ _______ _______ _____ _____    ______ ____
ROOT
ATOM      1  C   UNL     1       3.188   5.162  17.629  0.00  0.00    +0.000 A 
ATOM      2  C   UNL     1       4.398   4.748  17.068  0.00  0.00    +0.000 A 
ATOM      3  C   UNL     1       5.466   5.638  16.938  0.00  0.00    +0.000 A 
ATOM      4  C   UNL     1       5.358   6.967  17.356  0.00  0.00    +0.000 A 
ATOM      5  C   UNL     1       4.169   7.370  17.976  0.00  0.00    +0.000 A 
ATOM      6  C   UNL     1       3.094   6.474  18.115  0.00  0.00    +0.000 A 
ENDROOT
BRANCH   4   7
ATOM      7  N   UNL     1       6.387   7.927  17.169  0.00  0.00    +0.000 N 
ATOM      8  C   UNL     1       7.624   7.905  17.785  0.00  0.00    +0.000 C 
ATOM      9  O   UNL     1       8.021   7.074  18.594  0.00  0.00    +0.000 OA
ATOM     10  H   UNL     1       6.206   8.650  16.487  0.00  0.00    +0.000 HD
BRANCH   8  11
ATOM     11  C   UNL     1       8.520   9.026  17.379  0.00  0.00    +0.000 C 
ATOM     12  C   UNL     1       8.735   9.997  18.283  0.00  0.00    +0.000 C 
BRANCH  12  13
ATOM     13  C   UNL     1       9.520  11.220  18.080  0.00  0.00    +0.000 A 
ATOM     14  C   UNL     1      10.917  11.128  18.166  0.00  0.00    +0.000 A 
ATOM     15  C   UNL     1      11.723  12.252  17.984  0.00  0.00    +0.000 A 
ATOM     16  C   UNL     1      11.135  13.483  17.700  0.00  0.00    +0.000 A 
ATOM     17  C   UNL     1       9.748  13.583  17.582  0.00  0.00    +0.000 A 
ATOM     18  C   UNL     1       8.944  12.455  17.764  0.00  0.00    +0.000 A 
ENDBRANCH  12  13
ENDBRANCH   8  11
ENDBRANCH   4   7
BRANCH   1  19
ATOM     19  C   UNL     1       2.026   4.194  17.712  0.00  0.00    +0.000 C 
BRANCH  19  26
ATOM     20  C   UNL     1       3.338   1.448  18.411  0.00  0.00    +0.000 C 
ATOM     21  C   UNL     1       2.539   2.148  19.217  0.00  0.00    +0.000 C 
ATOM     22  O   UNL     1       2.219   1.677  20.487  0.00  0.00    +0.000 OA
ATOM     23  C   UNL     1       1.438   2.654  21.041  0.00  0.00    +0.000 C 
ATOM     24  O   UNL     1       0.957   2.622  22.159  0.00  0.00    +0.000 OA
ATOM     25  C   UNL     1       1.252   3.752  20.095  0.00  0.00    +0.000 C 
ATOM     26  C   UNL     1       1.915   3.417  18.991  0.00  0.00    +0.000 C 
ENDBRANCH  19  26
ENDBRANCH   1  19
TORSDOF 5
ENDMDL
MODEL 6
REMARK VINA RESULT:      -8.2      1.260      1.479
REMARK  Name = 
REMARK  5 active torsions:
REMARK  status: ('A' for Active; 'I' for Inactive)
REMARK    1  A    between atoms: C_7  and  C_8
REMARK    2  A    between atoms: C_8  and  C_9
REMARK    3  A    between atoms: C_12  and  N_13
REMARK    4  A    between atoms: C_14  and  C_16
REMARK    5  A    between atoms: C_17  and  C_18
REMARK                            x       y       z     vdW  Elec       q    Type
REMARK                         _______ _______ _______ _____ _____    ______ ____
ROOT
ATOM      1  C   UNL     1       5.065   3.946  18.036  0.00  0.00    +0.000 A 
ATOM      2  C   UNL     1       5.859   4.254  16.929  0.00  0.00    +0.000 A 
ATOM      3  C   UNL     1       6.867   5.216  17.018  0.00  0.00    +0.000 A 
ATOM      4  C   UNL     1       7.110   5.904  18.210  0.00  0.00    +0.000 A 
ATOM      5  C   UNL     1       6.359   5.554  19.339  0.00  0.00    +0.000 A 
ATOM      6  C   UNL     1       5.348   4.581  19.254  0.00  0.00    +0.000 A 
ENDROOT
BRANCH   4   7
ATOM      7  N   UNL     1       8.067   6.946  18.325  0.00  0.00    +0.000 N 
ATOM      8  C   UNL     1       7.912   8.232  17.841  0.00  0.00    +0.000 C 
ATOM      9  O   UNL     1       6.945   8.668  17.229  0.00  0.00    +0.000 OA
ATOM     10  H   UNL     1       8.902   6.731  18.851  0.00  0.00    +0.000 HD
BRANCH   8  11
ATOM     11  C   UNL     1       9.069   9.127  18.129  0.00  0.00    +0.000 C 
ATOM     12  C   UNL     1       8.805  10.288  18.755  0.00  0.00    +0.000 C 
BRANCH  12  13
ATOM     13  C   UNL     1       9.772  11.344  19.076  0.00  0.00    +0.000 A 
ATOM     14  C   UNL     1       9.646  11.999  20.311  0.00  0.00    +0.000 A 
ATOM     15  C   UNL     1      10.531  13.013  20.678  0.00  0.00    +0.000 A 
ATOM     16  C   UNL     1      11.562  13.375  19.814  0.00  0.00    +0.000 A 
ATOM     17  C   UNL     1      11.717  12.712  18.595  0.00  0.00    +0.000 A 
ATOM     18  C   UNL     1      10.829  11.696  18.231  0.00  0.00    +0.000 A 
ENDBRANCH  12  13
ENDBRANCH   8  11
ENDBRANCH   4   7
BRANCH   1  19
ATOM     19  C   UNL     1       3.943   2.937  17.902  0.00  0.00    +0.000 C 
BRANCH  19  26
ATOM     20  C   UNL     1       1.180   4.385  17.758  0.00  0.00    +0.000 C 
ATOM     21  C   UNL     1       1.643   3.711  18.811  0.00  0.00    +0.000 C 
ATOM     22  O   UNL     1       0.890   3.604  19.976  0.00  0.00    +0.000 OA
ATOM     23  C   UNL     1       1.636   2.819  20.810  0.00  0.00    +0.000 C 
ATOM     24  O   UNL     1       1.315   2.483  21.936  0.00  0.00    +0.000 OA
ATOM     25  C   UNL     1       2.889   2.437  20.163  0.00  0.00    +0.000 C 
ATOM     26  C   UNL     1       2.879   3.002  18.958  0.00  0.00    +0.000 C 
ENDBRANCH  19  26
ENDBRANCH   1  19
TORSDOF 5
ENDMDL
MODEL 7
REMARK VINA RESULT:      -8.1      1.002      1.821
REMARK  Name = 
REMARK  5 active torsions:
REMARK  status: ('A' for Active; 'I' for Inactive)
REMARK    1  A    between atoms: C_7  and  C_8
REMARK    2  A    between atoms: C_8  and  C_9
REMARK    3  A    between atoms: C_12  and  N_13
REMARK    4  A    between atoms: C_14  and  C_16
REMARK    5  A    between atoms: C_17  and  C_18
REMARK                            x       y       z     vdW  Elec       q    Type
REMARK                         _______ _______ _______ _____ _____    ______ ____
ROOT
ATOM      1  C   UNL     1       4.818   4.303  16.885  0.00  0.00    +0.000 A 
ATOM      2  C   UNL     1       5.929   4.511  16.064  0.00  0.00    +0.000 A 
ATOM      3  C   UNL     1       6.680   5.684  16.164  0.00  0.00    +0.000 A 
ATOM      4  C   UNL     1       6.342   6.686  17.079  0.00  0.00    +0.000 A 
ATOM      5  C   UNL     1       5.267   6.454  17.946  0.00  0.00    +0.000 A 
ATOM      6  C   UNL     1       4.514   5.271  17.852  0.00  0.00    +0.000 A 
ENDROOT
BRANCH   4   7
ATOM      7  N   UNL     1       7.025   7.927  17.158  0.00  0.00    +0.000 N 
ATOM      8  C   UNL     1       8.053   8.221  18.036  0.00  0.00    +0.000 C 
ATOM      9  O   UNL     1       8.522   7.473  18.886  0.00  0.00    +0.000 OA
ATOM     10  H   UNL     1       6.765   8.627  16.477  0.00  0.00    +0.000 HD
BRANCH   8  11
ATOM     11  C   UNL     1       8.605   9.597  17.878  0.00  0.00    +0.000 C 
ATOM     12  C   UNL     1       9.283  10.109  18.920  0.00  0.00    +0.000 C 
BRANCH  12  13
ATOM     13  C   UNL     1       9.851  11.459  19.012  0.00  0.00    +0.000 A 
ATOM     14  C   UNL     1      11.222  11.579  19.287  0.00  0.00    +0.000 A 
ATOM     15  C   UNL     1      11.826  12.833  19.389  0.00  0.00    +0.000 A 
ATOM     16  C   UNL     1      11.062  13.983  19.204  0.00  0.00    +0.000 A 
ATOM     17  C   UNL     1       9.703  13.878  18.900  0.00  0.00    +0.000 A 
ATOM     18  C   UNL     1       9.103  12.621  18.798  0.00  0.00    +0.000 A 
ENDBRANCH  12  13
ENDBRANCH   8  11
ENDBRANCH   4   7
BRANCH   1  19
ATOM     19  C   UNL     1       3.987   3.046  16.722  0.00  0.00    +0.000 C 
BRANCH  19  26
ATOM     20  C   UNL     1       4.455   1.792  19.543  0.00  0.00    +0.000 C 
ATOM     21  C   UNL     1       3.277   2.190  19.062  0.00  0.00    +0.000 C 
ATOM     22  O   UNL     1       2.118   2.064  19.822  0.00  0.00    +0.000 OA
ATOM     23  C   UNL     1       1.128   2.607  19.052  0.00  0.00    +0.000 C 
ATOM     24  O   UNL     1      -0.044   2.695  19.370  0.00  0.00    +0.000 OA
ATOM     25  C   UNL     1       1.672   3.069  17.777  0.00  0.00    +0.000 C 
ATOM     26  C   UNL     1       2.974   2.792  17.799  0.00  0.00    +0.000 C 
ENDBRANCH  19  26
ENDBRANCH   1  19
TORSDOF 5
ENDMDL
MODEL 8
REMARK VINA RESULT:      -8.1      7.116      8.804
REMARK  Name = 
REMARK  5 active torsions:
REMARK  status: ('A' for Active; 'I' for Inactive)
REMARK    1  A    between atoms: C_7  and  C_8
REMARK    2  A    between atoms: C_8  and  C_9
REMARK    3  A    between atoms: C_12  and  N_13
REMARK    4  A    between atoms: C_14  and  C_16
REMARK    5  A    between atoms: C_17  and  C_18
REMARK                            x       y       z     vdW  Elec       q    Type
REMARK                         _______ _______ _______ _____ _____    ______ ____
ROOT
ATOM      1  C   UNL     1       2.570   7.075  18.564  0.00  0.00    +0.000 A 
ATOM      2  C   UNL     1       2.275   8.191  17.778  0.00  0.00    +0.000 A 
ATOM      3  C   UNL     1       1.587   9.281  18.315  0.00  0.00    +0.000 A 
ATOM      4  C   UNL     1       1.166   9.287  19.649  0.00  0.00    +0.000 A 
ATOM      5  C   UNL     1       1.515   8.197  20.456  0.00  0.00    +0.000 A 
ATOM      6  C   UNL     1       2.214   7.102  19.920  0.00  0.00    +0.000 A 
ENDROOT
BRANCH   4   7
ATOM      7  N   UNL     1       0.394  10.334  20.214  0.00  0.00    +0.000 N 
ATOM      8  C   UNL     1      -0.853  10.739  19.772  0.00  0.00    +0.000 C 
ATOM      9  O   UNL     1      -1.475  10.276  18.823  0.00  0.00    +0.000 OA
ATOM     10  H   UNL     1       0.774  10.777  21.039  0.00  0.00    +0.000 HD
BRANCH   8  11
ATOM     11  C   UNL     1      -1.446  11.847  20.574  0.00  0.00    +0.000 C 
ATOM     12  C   UNL     1      -1.316  11.776  21.910  0.00  0.00    +0.000 C 
BRANCH  12  13
ATOM     13  C   UNL     1      -1.875  12.712  22.891  0.00  0.00    +0.000 A 
ATOM     14  C   UNL     1      -3.177  12.477  23.360  0.00  0.00    +0.000 A 
ATOM     15  C   UNL     1      -3.769  13.329  24.292  0.00  0.00    +0.000 A 
ATOM     16  C   UNL     1      -3.055  14.423  24.777  0.00  0.00    +0.000 A 
ATOM     17  C   UNL     1      -1.748  14.652  24.343  0.00  0.00    +0.000 A 
ATOM     18  C   UNL     1      -1.159  13.796  23.409  0.00  0.00    +0.000 A 
ENDBRANCH  12  13
ENDBRANCH   8  11
ENDBRANCH   4   7
BRANCH   1  19
ATOM     19  C   UNL     1       3.272   5.883  17.945  0.00  0.00    +0.000 C 
BRANCH  19  26
ATOM     20  C   UNL     1       4.610   3.446  19.368  0.00  0.00    +0.000 C 
ATOM     21  C   UNL     1       3.366   3.471  18.888  0.00  0.00    +0.000 C 
ATOM     22  O   UNL     1       2.540   2.356  18.992  0.00  0.00    +0.000 OA
ATOM     23  C   UNL     1       1.346   2.747  18.452  0.00  0.00    +0.000 C 
ATOM     24  O   UNL     1       0.352   2.050  18.363  0.00  0.00    +0.000 OA
ATOM     25  C   UNL     1       1.429   4.129  17.986  0.00  0.00    +0.000 C 
ATOM     26  C   UNL     1       2.666   4.543  18.246  0.00  0.00    +0.000 C 
ENDBRANCH  19  26
ENDBRANCH   1  19
TORSDOF 5
ENDMDL
MODEL 9
REMARK VINA RESULT:      -8.1      7.305      9.003
REMARK  Name = 
REMARK  5 active torsions:
REMARK  status: ('A' for Active; 'I' for Inactive)
REMARK    1  A    between atoms: C_7  and  C_8
REMARK    2  A    between atoms: C_8  and  C_9
REMARK    3  A    between atoms: C_12  and  N_13
REMARK    4  A    between atoms: C_14  and  C_16
REMARK    5  A    between atoms: C_17  and  C_18
REMARK                            x       y       z     vdW  Elec       q    Type
REMARK                         _______ _______ _______ _____ _____    ______ ____
ROOT
ATOM      1  C   UNL     1       2.698   7.387  18.498  0.00  0.00    +0.000 A 
ATOM      2  C   UNL     1       2.188   8.627  18.109  0.00  0.00    +0.000 A 
ATOM      3  C   UNL     1       1.336   9.345  18.950  0.00  0.00    +0.000 A 
ATOM      4  C   UNL     1       0.961   8.845  20.201  0.00  0.00    +0.000 A 
ATOM      5  C   UNL     1       1.519   7.631  20.620  0.00  0.00    +0.000 A 
ATOM      6  C   UNL     1       2.383   6.910  19.778  0.00  0.00    +0.000 A 
ENDROOT
BRANCH   4   7
ATOM      7  N   UNL     1       0.034   9.500  21.053  0.00  0.00    +0.000 N 
ATOM      8  C   UNL     1       0.240   9.785  22.390  0.00  0.00    +0.000 C 
ATOM      9  O   UNL     1       1.234   9.508  23.050  0.00  0.00    +0.000 OA
ATOM     10  H   UNL     1      -0.819   9.824  20.621  0.00  0.00    +0.000 HD
BRANCH   8  11
ATOM     11  C   UNL     1      -0.896  10.506  23.033  0.00  0.00    +0.000 C 
ATOM     12  C   UNL     1      -1.037  11.811  22.743  0.00  0.00    +0.000 C 
BRANCH  12  13
ATOM     13  C   UNL     1      -2.034  12.727  23.309  0.00  0.00    +0.000 A 
ATOM     14  C   UNL     1      -1.658  14.063  23.518  0.00  0.00    +0.000 A 
ATOM     15  C   UNL     1      -2.557  14.986  24.054  0.00  0.00    +0.000 A 
ATOM     16  C   UNL     1      -3.851  14.582  24.375  0.00  0.00    +0.000 A 
ATOM     17  C   UNL     1      -4.248  13.263  24.144  0.00  0.00    +0.000 A 
ATOM     18  C   UNL     1      -3.345  12.342  23.607  0.00  0.00    +0.000 A 
ENDBRANCH  12  13
ENDBRANCH   8  11
ENDBRANCH   4   7
BRANCH   1  19
ATOM     19  C   UNL     1       3.578   6.602  17.547  0.00  0.00    +0.000 C 
BRANCH  19  26
ATOM     20  C   UNL     1       5.840   5.223  19.200  0.00  0.00    +0.000 C 
ATOM     21  C   UNL     1       4.822   4.594  18.611  0.00  0.00    +0.000 C 
ATOM     22  O   UNL     1       4.694   3.211  18.697  0.00  0.00    +0.000 OA
ATOM     23  C   UNL     1       3.534   2.920  18.035  0.00  0.00    +0.000 C 
ATOM     24  O   UNL     1       3.064   1.806  17.893  0.00  0.00    +0.000 OA
ATOM     25  C   UNL     1       2.929   4.142  17.511  0.00  0.00    +0.000 C 
ATOM     26  C   UNL     1       3.735   5.143  17.858  0.00  0.00    +0.000 C 
ENDBRANCH  19  26
ENDBRANCH   1  19
TORSDOF 5
ENDMDL
