MODEL 1
REMARK VINA RESULT:      -9.0      0.000      0.000
REMARK  Name = 
REMARK  7 active torsions:
REMARK  status: ('A' for Active; 'I' for Inactive)
REMARK    1  A    between atoms: C_1  and  C_2
REMARK    2  A    between atoms: C_4  and  C_5
REMARK    3  A    between atoms: C_5  and  C_6
REMARK    4  A    between atoms: C_5  and  C_7
REMARK    5  A    between atoms: C_5  and  N_8
REMARK    6  A    between atoms: C_9  and  C_11
REMARK    7  A    between atoms: C_15  and  C_16
REMARK                            x       y       z     vdW  Elec       q    Type
REMARK                         _______ _______ _______ _____ _____    ______ ____
ROOT
ATOM      1  N   UNL     1       5.622   5.706  18.021  0.00  0.00    +0.000 N 
ATOM      2  C   UNL     1       5.172   4.749  18.909  0.00  0.00    +0.000 C 
ATOM      3  O   UNL     1       5.830   3.771  19.250  0.00  0.00    +0.000 OA
ATOM      4  H   UNL     1       5.011   6.499  17.831  0.00  0.00    +0.000 HD
ENDROOT
BRANCH   2   5
ATOM      5  C   UNL     1       3.807   4.953  19.480  0.00  0.00    +0.000 A 
ATOM      6  C   UNL     1       3.103   3.856  19.962  0.00  0.00    +0.000 A 
ATOM      7  C   UNL     1       1.847   4.070  20.512  0.00  0.00    +0.000 A 
ATOM      8  C   UNL     1       1.345   5.368  20.560  0.00  0.00    +0.000 A 
ATOM      9  C   UNL     1       2.108   6.423  20.053  0.00  0.00    +0.000 A 
ATOM     10  N   UNL     1       3.335   6.227  19.506  0.00  0.00    +0.000 NA
BRANCH   9  11
ATOM     11  C   UNL     1       1.645   7.826  20.077  0.00  0.00    +0.000 A 
ATOM     12  C   UNL     1       1.177   8.441  21.254  0.00  0.00    +0.000 A 
ATOM     13  C   UNL     1       0.754   9.775  21.258  0.00  0.00    +0.000 A 
ATOM     14  C   UNL     1       0.793  10.518  20.081  0.00  0.00    +0.000 A 
ATOM     15 CL   UNL     1       0.281  12.159  20.087  0.00  0.00    +0.000 Cl
ATOM     16  C   UNL     1       1.253   9.939  18.904  0.00  0.00    +0.000 A 
ATOM     17  C   UNL     1       1.675   8.606  18.905  0.00  0.00    +0.000 A 
ENDBRANCH   9  11
ENDBRANCH   2   5
BRANCH   1  18
ATOM     18  C   UNL     1       6.953   5.679  17.385  0.00  0.00    +0.000 C 
ATOM     19  C   UNL     1       7.873   4.677  18.118  0.00  0.00    +0.000 C 
ATOM     20  C   UNL     1       7.576   7.091  17.408  0.00  0.00    +0.000 C 
BRANCH  18  24
ATOM     21  C   UNL     1       5.424   3.572  13.110  0.00  0.00    +0.000 C 
ATOM     22  C   UNL     1       6.096   4.311  14.195  0.00  0.00    +0.000 A 
ATOM     23  N   UNL     1       5.803   4.402  15.476  0.00  0.00    +0.000 NA
ATOM     24  C   UNL     1       6.808   5.233  15.935  0.00  0.00    +0.000 A 
ATOM     25  N   UNL     1       7.671   5.630  14.984  0.00  0.00    +0.000 NA
ATOM     26  O   UNL     1       7.199   5.018  13.832  0.00  0.00    +0.000 OA
ENDBRANCH  18  24
ENDBRANCH   1  18
TORSDOF 4
ENDMDL
MODEL 2
REMARK VINA RESULT:      -8.3      1.372      1.851
REMARK  Name = 
REMARK  7 active torsions:
REMARK  status: ('A' for Active; 'I' for Inactive)
REMARK    1  A    between atoms: C_1  and  C_2
REMARK    2  A    between atoms: C_4  and  C_5
REMARK    3  A    between atoms: C_5  and  C_6
REMARK    4  A    between atoms: C_5  and  C_7
REMARK    5  A    between atoms: C_5  and  N_8
REMARK    6  A    between atoms: C_9  and  C_11
REMARK    7  A    between atoms: C_15  and  C_16
REMARK                            x       y       z     vdW  Elec       q    Type
REMARK                         _______ _______ _______ _____ _____    ______ ____
ROOT
ATOM      1  N   UNL     1       5.701   5.700  18.467  0.00  0.00    +0.000 N 
ATOM      2  C   UNL     1       4.500   6.235  18.046  0.00  0.00    +0.000 C 
ATOM      3  O   UNL     1       4.342   6.793  16.964  0.00  0.00    +0.000 OA
ATOM      4  H   UNL     1       5.718   5.227  19.369  0.00  0.00    +0.000 HD
ENDROOT
BRANCH   2   5
ATOM      5  C   UNL     1       3.342   6.099  18.979  0.00  0.00    +0.000 A 
ATOM      6  C   UNL     1       2.930   4.830  19.368  0.00  0.00    +0.000 A 
ATOM      7  C   UNL     1       1.868   4.726  20.256  0.00  0.00    +0.000 A 
ATOM      8  C   UNL     1       1.261   5.890  20.720  0.00  0.00    +0.000 A 
ATOM      9  C   UNL     1       1.727   7.134  20.284  0.00  0.00    +0.000 A 
ATOM     10  N   UNL     1       2.759   7.250  19.410  0.00  0.00    +0.000 NA
BRANCH   9  11
ATOM     11  C   UNL     1       1.139   8.410  20.738  0.00  0.00    +0.000 A 
ATOM     12  C   UNL     1       0.932   9.494  19.863  0.00  0.00    +0.000 A 
ATOM     13  C   UNL     1       0.363  10.691  20.311  0.00  0.00    +0.000 A 
ATOM     14  C   UNL     1      -0.009  10.825  21.645  0.00  0.00    +0.000 A 
ATOM     15 CL   UNL     1      -0.715  12.293  22.195  0.00  0.00    +0.000 Cl
ATOM     16  C   UNL     1       0.181   9.772  22.533  0.00  0.00    +0.000 A 
ATOM     17  C   UNL     1       0.749   8.577  22.081  0.00  0.00    +0.000 A 
ENDBRANCH   9  11
ENDBRANCH   2   5
BRANCH   1  18
ATOM     18  C   UNL     1       6.938   5.718  17.662  0.00  0.00    +0.000 C 
ATOM     19  C   UNL     1       8.076   5.000  18.419  0.00  0.00    +0.000 C 
ATOM     20  C   UNL     1       7.340   7.174  17.348  0.00  0.00    +0.000 C 
BRANCH  18  24
ATOM     21  C   UNL     1       6.853   4.308  12.859  0.00  0.00    +0.000 C 
ATOM     22  C   UNL     1       6.709   4.473  14.318  0.00  0.00    +0.000 A 
ATOM     23  N   UNL     1       7.173   5.407  15.123  0.00  0.00    +0.000 NA
ATOM     24  C   UNL     1       6.692   4.985  16.348  0.00  0.00    +0.000 A 
ATOM     25  N   UNL     1       5.972   3.850  16.297  0.00  0.00    +0.000 NA
ATOM     26  O   UNL     1       5.984   3.513  14.951  0.00  0.00    +0.000 OA
ENDBRANCH  18  24
ENDBRANCH   1  18
TORSDOF 4
ENDMDL
MODEL 3
REMARK VINA RESULT:      -8.3      1.770      2.961
REMARK  Name = 
REMARK  7 active torsions:
REMARK  status: ('A' for Active; 'I' for Inactive)
REMARK    1  A    between atoms: C_1  and  C_2
REMARK    2  A    between atoms: C_4  and  C_5
REMARK    3  A    between atoms: C_5  and  C_6
REMARK    4  A    between atoms: C_5  and  C_7
REMARK    5  A    between atoms: C_5  and  N_8
REMARK    6  A    between atoms: C_9  and  C_11
REMARK    7  A    between atoms: C_15  and  C_16
REMARK                            x       y       z     vdW  Elec       q    Type
REMARK                         _______ _______ _______ _____ _____    ______ ____
ROOT
ATOM      1  N   UNL     1       5.241   5.662  17.758  0.00  0.00    +0.000 N 
ATOM      2  C   UNL     1       5.074   4.898  18.897  0.00  0.00    +0.000 C 
ATOM      3  O   UNL     1       5.964   4.221  19.402  0.00  0.00    +0.000 OA
ATOM      4  H   UNL     1       4.447   6.216  17.440  0.00  0.00    +0.000 HD
ENDROOT
BRANCH   2   5
ATOM      5  C   UNL     1       3.723   4.930  19.533  0.00  0.00    +0.000 A 
ATOM      6  C   UNL     1       3.144   3.739  19.955  0.00  0.00    +0.000 A 
ATOM      7  C   UNL     1       1.900   3.792  20.567  0.00  0.00    +0.000 A 
ATOM      8  C   UNL     1       1.284   5.030  20.734  0.00  0.00    +0.000 A 
ATOM      9  C   UNL     1       1.924   6.187  20.282  0.00  0.00    +0.000 A 
ATOM     10  N   UNL     1       3.138   6.149  19.675  0.00  0.00    +0.000 NA
BRANCH   9  11
ATOM     11  C   UNL     1       1.337   7.534  20.432  0.00  0.00    +0.000 A 
ATOM     12  C   UNL     1       0.566   7.896  21.554  0.00  0.00    +0.000 A 
ATOM     13  C   UNL     1       0.028   9.181  21.682  0.00  0.00    +0.000 A 
ATOM     14  C   UNL     1       0.254  10.129  20.689  0.00  0.00    +0.000 A 
ATOM     15 CL   UNL     1      -0.400  11.711  20.850  0.00  0.00    +0.000 Cl
ATOM     16  C   UNL     1       1.013   9.803  19.570  0.00  0.00    +0.000 A 
ATOM     17  C   UNL     1       1.549   8.518  19.446  0.00  0.00    +0.000 A 
ENDBRANCH   9  11
ENDBRANCH   2   5
BRANCH   1  18
ATOM     18  C   UNL     1       6.514   5.772  17.019  0.00  0.00    +0.000 C 
ATOM     19  C   UNL     1       6.241   6.109  15.537  0.00  0.00    +0.000 C 
ATOM     20  C   UNL     1       7.302   4.450  17.130  0.00  0.00    +0.000 C 
BRANCH  18  24
ATOM     21  C   UNL     1       8.712  10.154  18.029  0.00  0.00    +0.000 C 
ATOM     22  C   UNL     1       8.223   8.763  17.973  0.00  0.00    +0.000 A 
ATOM     23  N   UNL     1       7.381   8.187  17.141  0.00  0.00    +0.000 NA
ATOM     24  C   UNL     1       7.351   6.892  17.626  0.00  0.00    +0.000 A 
ATOM     25  N   UNL     1       8.133   6.687  18.700  0.00  0.00    +0.000 NA
ATOM     26  O   UNL     1       8.711   7.927  18.928  0.00  0.00    +0.000 OA
ENDBRANCH  18  24
ENDBRANCH   1  18
TORSDOF 4
ENDMDL
MODEL 4
REMARK VINA RESULT:      -8.2      1.890      2.969
REMARK  Name = 
REMARK  7 active torsions:
REMARK  status: ('A' for Active; 'I' for Inactive)
REMARK    1  A    between atoms: C_1  and  C_2
REMARK    2  A    between atoms: C_4  and  C_5
REMARK    3  A    between atoms: C_5  and  C_6
REMARK    4  A    between atoms: C_5  and  C_7
REMARK    5  A    between atoms: C_5  and  N_8
REMARK    6  A    between atoms: C_9  and  C_11
REMARK    7  A    between atoms: C_15  and  C_16
REMARK                            x       y       z     vdW  Elec       q    Type
REMARK                         _______ _______ _______ _____ _____    ______ ____
ROOT
ATOM      1  N   UNL     1       5.879   5.703  18.917  0.00  0.00    +0.000 N 
ATOM      2  C   UNL     1       5.187   4.558  19.258  0.00  0.00    +0.000 C 
ATOM      3  O   UNL     1       5.670   3.431  19.219  0.00  0.00    +0.000 OA
ATOM      4  H   UNL     1       5.396   6.595  19.017  0.00  0.00    +0.000 HD
ENDROOT
BRANCH   2   5
ATOM      5  C   UNL     1       3.774   4.737  19.708  0.00  0.00    +0.000 A 
ATOM      6  C   UNL     1       3.042   3.624  20.103  0.00  0.00    +0.000 A 
ATOM      7  C   UNL     1       1.739   3.815  20.542  0.00  0.00    +0.000 A 
ATOM      8  C   UNL     1       1.220   5.107  20.571  0.00  0.00    +0.000 A 
ATOM      9  C   UNL     1       2.014   6.180  20.156  0.00  0.00    +0.000 A 
ATOM     10  N   UNL     1       3.287   6.007  19.718  0.00  0.00    +0.000 NA
BRANCH   9  11
ATOM     11  C   UNL     1       1.536   7.577  20.167  0.00  0.00    +0.000 A 
ATOM     12  C   UNL     1       0.926   8.153  21.298  0.00  0.00    +0.000 A 
ATOM     13  C   UNL     1       0.490   9.482  21.292  0.00  0.00    +0.000 A 
ATOM     14  C   UNL     1       0.659  10.261  20.151  0.00  0.00    +0.000 A 
ATOM     15 CL   UNL     1       0.131  11.897  20.145  0.00  0.00    +0.000 Cl
ATOM     16  C   UNL     1       1.260   9.722  19.019  0.00  0.00    +0.000 A 
ATOM     17  C   UNL     1       1.694   8.393  19.030  0.00  0.00    +0.000 A 
ENDBRANCH   9  11
ENDBRANCH   2   5
BRANCH   1  18
ATOM     18  C   UNL     1       7.289   5.715  18.480  0.00  0.00    +0.000 C 
ATOM     19  C   UNL     1       7.470   4.809  17.243  0.00  0.00    +0.000 C 
ATOM     20  C   UNL     1       8.199   5.238  19.631  0.00  0.00    +0.000 C 
BRANCH  18  24
ATOM     21  C   UNL     1       9.226  10.330  18.399  0.00  0.00    +0.000 C 
ATOM     22  C   UNL     1       8.536   9.049  18.153  0.00  0.00    +0.000 A 
ATOM     23  N   UNL     1       8.481   7.955  18.883  0.00  0.00    +0.000 NA
ATOM     24  C   UNL     1       7.685   7.138  18.102  0.00  0.00    +0.000 A 
ATOM     25  N   UNL     1       7.274   7.702  16.953  0.00  0.00    +0.000 NA
ATOM     26  O   UNL     1       7.838   8.970  16.989  0.00  0.00    +0.000 OA
ENDBRANCH  18  24
ENDBRANCH   1  18
TORSDOF 4
ENDMDL
MODEL 5
REMARK VINA RESULT:      -8.2      4.696      8.914
REMARK  Name = 
REMARK  7 active torsions:
REMARK  status: ('A' for Active; 'I' for Inactive)
REMARK    1  A    between atoms: C_1  and  C_2
REMARK    2  A    between atoms: C_4  and  C_5
REMARK    3  A    between atoms: C_5  and  C_6
REMARK    4  A    between atoms: C_5  and  C_7
REMARK    5  A    between atoms: C_5  and  N_8
REMARK    6  A    between atoms: C_9  and  C_11
REMARK    7  A    between atoms: C_15  and  C_16
REMARK                            x       y       z     vdW  Elec       q    Type
REMARK                         _______ _______ _______ _____ _____    ______ ____
ROOT
ATOM      1  N   UNL     1       0.740   9.926  20.169  0.00  0.00    +0.000 N 
ATOM      2  C   UNL     1       1.403   9.350  19.104  0.00  0.00    +0.000 C 
ATOM      3  O   UNL     1       1.586   9.912  18.028  0.00  0.00    +0.000 OA
ATOM      4  H   UNL     1       0.671   9.388  21.031  0.00  0.00    +0.000 HD
ENDROOT
BRANCH   2   5
ATOM      5  C   UNL     1       1.927   7.967  19.310  0.00  0.00    +0.000 A 
ATOM      6  C   UNL     1       1.565   7.268  20.456  0.00  0.00    +0.000 A 
ATOM      7  C   UNL     1       2.042   5.975  20.616  0.00  0.00    +0.000 A 
ATOM      8  C   UNL     1       2.859   5.430  19.629  0.00  0.00    +0.000 A 
ATOM      9  C   UNL     1       3.184   6.193  18.503  0.00  0.00    +0.000 A 
ATOM     10  N   UNL     1       2.731   7.461  18.337  0.00  0.00    +0.000 NA
BRANCH   9  11
ATOM     11  C   UNL     1       4.038   5.680  17.412  0.00  0.00    +0.000 A 
ATOM     12  C   UNL     1       4.259   4.303  17.216  0.00  0.00    +0.000 A 
ATOM     13  C   UNL     1       5.061   3.837  16.169  0.00  0.00    +0.000 A 
ATOM     14  C   UNL     1       5.657   4.743  15.296  0.00  0.00    +0.000 A 
ATOM     15 CL   UNL     1       6.636   4.172  14.005  0.00  0.00    +0.000 Cl
ATOM     16  C   UNL     1       5.455   6.109  15.462  0.00  0.00    +0.000 A 
ATOM     17  C   UNL     1       4.653   6.570  16.510  0.00  0.00    +0.000 A 
ENDBRANCH   9  11
ENDBRANCH   2   5
BRANCH   1  18
ATOM     18  C   UNL     1       0.184  11.294  20.151  0.00  0.00    +0.000 C 
ATOM     19  C   UNL     1      -0.762  11.468  18.943  0.00  0.00    +0.000 C 
ATOM     20  C   UNL     1       1.330  12.326  20.087  0.00  0.00    +0.000 C 
BRANCH  18  24
ATOM     21  C   UNL     1      -3.283  12.634  23.504  0.00  0.00    +0.000 C 
ATOM     22  C   UNL     1      -2.115  12.126  22.759  0.00  0.00    +0.000 A 
ATOM     23  N   UNL     1      -1.838  12.168  21.473  0.00  0.00    +0.000 NA
ATOM     24  C   UNL     1      -0.614  11.528  21.429  0.00  0.00    +0.000 A 
ATOM     25  N   UNL     1      -0.165  11.114  22.627  0.00  0.00    +0.000 NA
ATOM     26  O   UNL     1      -1.160  11.512  23.507  0.00  0.00    +0.000 OA
ENDBRANCH  18  24
ENDBRANCH   1  18
TORSDOF 4
ENDMDL
MODEL 6
REMARK VINA RESULT:      -8.2      4.518      7.721
REMARK  Name = 
REMARK  7 active torsions:
REMARK  status: ('A' for Active; 'I' for Inactive)
REMARK    1  A    between atoms: C_1  and  C_2
REMARK    2  A    between atoms: C_4  and  C_5
REMARK    3  A    between atoms: C_5  and  C_6
REMARK    4  A    between atoms: C_5  and  C_7
REMARK    5  A    between atoms: C_5  and  N_8
REMARK    6  A    between atoms: C_9  and  C_11
REMARK    7  A    between atoms: C_15  and  C_16
REMARK                            x       y       z     vdW  Elec       q    Type
REMARK                         _______ _______ _______ _____ _____    ______ ____
ROOT
ATOM      1  N   UNL     1       0.775   9.209  19.357  0.00  0.00    +0.000 N 
ATOM      2  C   UNL     1       1.406   8.562  20.401  0.00  0.00    +0.000 C 
ATOM      3  O   UNL     1       1.605   9.069  21.500  0.00  0.00    +0.000 OA
ATOM      4  H   UNL     1       0.628   8.686  18.495  0.00  0.00    +0.000 HD
ENDROOT
BRANCH   2   5
ATOM      5  C   UNL     1       1.850   7.158  20.148  0.00  0.00    +0.000 A 
ATOM      6  C   UNL     1       1.386   6.141  20.975  0.00  0.00    +0.000 A 
ATOM      7  C   UNL     1       1.789   4.840  20.708  0.00  0.00    +0.000 A 
ATOM      8  C   UNL     1       2.637   4.606  19.629  0.00  0.00    +0.000 A 
ATOM      9  C   UNL     1       3.067   5.678  18.842  0.00  0.00    +0.000 A 
ATOM     10  N   UNL     1       2.686   6.956  19.096  0.00  0.00    +0.000 NA
BRANCH   9  11
ATOM     11  C   UNL     1       3.959   5.506  17.677  0.00  0.00    +0.000 A 
ATOM     12  C   UNL     1       4.480   6.603  16.964  0.00  0.00    +0.000 A 
ATOM     13  C   UNL     1       5.333   6.419  15.870  0.00  0.00    +0.000 A 
ATOM     14  C   UNL     1       5.682   5.132  15.471  0.00  0.00    +0.000 A 
ATOM     15 CL   UNL     1       6.736   4.906  14.132  0.00  0.00    +0.000 Cl
ATOM     16  C   UNL     1       5.185   4.029  16.157  0.00  0.00    +0.000 A 
ATOM     17  C   UNL     1       4.333   4.217  17.249  0.00  0.00    +0.000 A 
ENDBRANCH   9  11
ENDBRANCH   2   5
BRANCH   1  18
ATOM     18  C   UNL     1       0.247  10.585  19.441  0.00  0.00    +0.000 C 
ATOM     19  C   UNL     1       1.375  11.606  19.174  0.00  0.00    +0.000 C 
ATOM     20  C   UNL     1      -0.374  10.826  20.832  0.00  0.00    +0.000 C 
BRANCH  18  24
ATOM     21  C   UNL     1      -2.985   9.945  15.672  0.00  0.00    +0.000 C 
ATOM     22  C   UNL     1      -2.154  10.414  16.797  0.00  0.00    +0.000 A 
ATOM     23  N   UNL     1      -1.214   9.795  17.481  0.00  0.00    +0.000 NA
ATOM     24  C   UNL     1      -0.836  10.771  18.383  0.00  0.00    +0.000 A 
ATOM     25  N   UNL     1      -1.509  11.928  18.259  0.00  0.00    +0.000 NA
ATOM     26  O   UNL     1      -2.382  11.690  17.207  0.00  0.00    +0.000 OA
ENDBRANCH  18  24
ENDBRANCH   1  18
TORSDOF 4
ENDMDL
MODEL 7
REMARK VINA RESULT:      -8.1      1.240      1.342
REMARK  Name = 
REMARK  7 active torsions:
REMARK  status: ('A' for Active; 'I' for Inactive)
REMARK    1  A    between atoms: C_1  and  C_2
REMARK    2  A    between atoms: C_4  and  C_5
REMARK    3  A    between atoms: C_5  and  C_6
REMARK    4  A    between atoms: C_5  and  C_7
REMARK    5  A    between atoms: C_5  and  N_8
REMARK    6  A    between atoms: C_9  and  C_11
REMARK    7  A    between atoms: C_15  and  C_16
REMARK                            x       y       z     vdW  Elec       q    Type
REMARK                         _______ _______ _______ _____ _____    ______ ____
ROOT
ATOM      1  N   UNL     1       5.766   5.489  18.371  0.00  0.00    +0.000 N 
ATOM      2  C   UNL     1       4.662   6.252  18.045  0.00  0.00    +0.000 C 
ATOM      3  O   UNL     1       4.642   7.068  17.129  0.00  0.00    +0.000 OA
ATOM      4  H   UNL     1       5.667   4.813  19.128  0.00  0.00    +0.000 HD
ENDROOT
BRANCH   2   5
ATOM      5  C   UNL     1       3.433   6.037  18.866  0.00  0.00    +0.000 A 
ATOM      6  C   UNL     1       2.975   4.742  19.076  0.00  0.00    +0.000 A 
ATOM      7  C   UNL     1       1.846   4.562  19.863  0.00  0.00    +0.000 A 
ATOM      8  C   UNL     1       1.220   5.680  20.408  0.00  0.00    +0.000 A 
ATOM      9  C   UNL     1       1.734   6.954  20.151  0.00  0.00    +0.000 A 
ATOM     10  N   UNL     1       2.833   7.145  19.377  0.00  0.00    +0.000 NA
BRANCH   9  11
ATOM     11  C   UNL     1       1.129   8.184  20.701  0.00  0.00    +0.000 A 
ATOM     12  C   UNL     1       0.611   8.246  22.009  0.00  0.00    +0.000 A 
ATOM     13  C   UNL     1       0.053   9.424  22.515  0.00  0.00    +0.000 A 
ATOM     14  C   UNL     1       0.003  10.565  21.719  0.00  0.00    +0.000 A 
ATOM     15 CL   UNL     1      -0.676  12.016  22.343  0.00  0.00    +0.000 Cl
ATOM     16  C   UNL     1       0.508  10.536  20.424  0.00  0.00    +0.000 A 
ATOM     17  C   UNL     1       1.065   9.356  19.922  0.00  0.00    +0.000 A 
ENDBRANCH   9  11
ENDBRANCH   2   5
BRANCH   1  18
ATOM     18  C   UNL     1       7.051   5.549  17.649  0.00  0.00    +0.000 C 
ATOM     19  C   UNL     1       8.051   4.541  18.257  0.00  0.00    +0.000 C 
ATOM     20  C   UNL     1       7.626   6.979  17.716  0.00  0.00    +0.000 C 
BRANCH  18  24
ATOM     21  C   UNL     1       5.377   3.553  13.374  0.00  0.00    +0.000 C 
ATOM     22  C   UNL     1       6.060   4.296  14.450  0.00  0.00    +0.000 A 
ATOM     23  N   UNL     1       5.879   4.269  15.755  0.00  0.00    +0.000 NA
ATOM     24  C   UNL     1       6.822   5.182  16.187  0.00  0.00    +0.000 A 
ATOM     25  N   UNL     1       7.543   5.741  15.198  0.00  0.00    +0.000 NA
ATOM     26  O   UNL     1       7.037   5.151  14.048  0.00  0.00    +0.000 OA
ENDBRANCH  18  24
ENDBRANCH   1  18
TORSDOF 4
ENDMDL
MODEL 8
REMARK VINA RESULT:      -8.0      4.338      7.624
REMARK  Name = 
REMARK  7 active torsions:
REMARK  status: ('A' for Active; 'I' for Inactive)
REMARK    1  A    between atoms: C_1  and  C_2
REMARK    2  A    between atoms: C_4  and  C_5
REMARK    3  A    between atoms: C_5  and  C_6
REMARK    4  A    between atoms: C_5  and  C_7
REMARK    5  A    between atoms: C_5  and  N_8
REMARK    6  A    between atoms: C_9  and  C_11
REMARK    7  A    between atoms: C_15  and  C_16
REMARK                            x       y       z     vdW  Elec       q    Type
REMARK                         _______ _______ _______ _____ _____    ______ ____
ROOT
ATOM      1  N   UNL     1       1.552   9.170  19.266  0.00  0.00    +0.000 N 
ATOM      2  C   UNL     1       1.351   8.266  20.290  0.00  0.00    +0.000 C 
ATOM      3  O   UNL     1       0.747   8.529  21.325  0.00  0.00    +0.000 OA
ATOM      4  H   UNL     1       2.037   8.841  18.432  0.00  0.00    +0.000 HD
ENDROOT
BRANCH   2   5
ATOM      5  C   UNL     1       1.903   6.892  20.090  0.00  0.00    +0.000 A 
ATOM      6  C   UNL     1       1.529   5.878  20.963  0.00  0.00    +0.000 A 
ATOM      7  C   UNL     1       2.032   4.603  20.744  0.00  0.00    +0.000 A 
ATOM      8  C   UNL     1       2.886   4.391  19.665  0.00  0.00    +0.000 A 
ATOM      9  C   UNL     1       3.221   5.460  18.829  0.00  0.00    +0.000 A 
ATOM     10  N   UNL     1       2.742   6.713  19.035  0.00  0.00    +0.000 NA
BRANCH   9  11
ATOM     11  C   UNL     1       4.113   5.311  17.661  0.00  0.00    +0.000 A 
ATOM     12  C   UNL     1       4.543   4.051  17.202  0.00  0.00    +0.000 A 
ATOM     13  C   UNL     1       5.378   3.930  16.086  0.00  0.00    +0.000 A 
ATOM     14  C   UNL     1       5.798   5.070  15.408  0.00  0.00    +0.000 A 
ATOM     15 CL   UNL     1       6.818   4.922  14.033  0.00  0.00    +0.000 Cl
ATOM     16  C   UNL     1       5.388   6.329  15.836  0.00  0.00    +0.000 A 
ATOM     17  C   UNL     1       4.553   6.444  16.951  0.00  0.00    +0.000 A 
ENDBRANCH   9  11
ENDBRANCH   2   5
BRANCH   1  18
ATOM     18  C   UNL     1       1.051  10.558  19.282  0.00  0.00    +0.000 C 
ATOM     19  C   UNL     1       1.916  11.447  18.361  0.00  0.00    +0.000 C 
ATOM     20  C   UNL     1       1.069  11.107  20.724  0.00  0.00    +0.000 C 
BRANCH  18  24
ATOM     21  C   UNL     1      -3.155   9.829  16.668  0.00  0.00    +0.000 C 
ATOM     22  C   UNL     1      -2.093  10.218  17.615  0.00  0.00    +0.000 A 
ATOM     23  N   UNL     1      -0.817   9.896  17.647  0.00  0.00    +0.000 NA
ATOM     24  C   UNL     1      -0.384  10.579  18.769  0.00  0.00    +0.000 A 
ATOM     25  N   UNL     1      -1.346  11.282  19.392  0.00  0.00    +0.000 NA
ATOM     26  O   UNL     1      -2.478  11.042  18.626  0.00  0.00    +0.000 OA
ENDBRANCH  18  24
ENDBRANCH   1  18
TORSDOF 4
ENDMDL
MODEL 9
REMARK VINA RESULT:      -8.0      4.886      8.197
REMARK  Name = 
REMARK  7 active torsions:
REMARK  status: ('A' for Active; 'I' for Inactive)
REMARK    1  A    between atoms: C_1  and  C_2
REMARK    2  A    between atoms: C_4  and  C_5
REMARK    3  A    between atoms: C_5  and  C_6
REMARK    4  A    between atoms: C_5  and  C_7
REMARK    5  A    between atoms: C_5  and  N_8
REMARK    6  A    between atoms: C_9  and  C_11
REMARK    7  A    between atoms: C_15  and  C_16
REMARK                            x       y       z     vdW  Elec       q    Type
REMARK                         _______ _______ _______ _____ _____    ______ ____
ROOT
ATOM      1  N   UNL     1       0.115   9.908  19.545  0.00  0.00    +0.000 N 
ATOM      2  C   UNL     1       1.269   9.535  18.884  0.00  0.00    +0.000 C 
ATOM      3  O   UNL     1       1.847  10.241  18.065  0.00  0.00    +0.000 OA
ATOM      4  H   UNL     1      -0.267   9.262  20.233  0.00  0.00    +0.000 HD
ENDROOT
BRANCH   2   5
ATOM      5  C   UNL     1       1.826   8.190  19.218  0.00  0.00    +0.000 A 
ATOM      6  C   UNL     1       1.511   7.610  20.442  0.00  0.00    +0.000 A 
ATOM      7  C   UNL     1       2.018   6.349  20.722  0.00  0.00    +0.000 A 
ATOM      8  C   UNL     1       2.818   5.718  19.773  0.00  0.00    +0.000 A 
ATOM      9  C   UNL     1       3.096   6.362  18.565  0.00  0.00    +0.000 A 
ATOM     10  N   UNL     1       2.612   7.598  18.280  0.00  0.00    +0.000 NA
BRANCH   9  11
ATOM     11  C   UNL     1       3.928   5.752  17.508  0.00  0.00    +0.000 A 
ATOM     12  C   UNL     1       4.026   4.357  17.343  0.00  0.00    +0.000 A 
ATOM     13  C   UNL     1       4.811   3.798  16.328  0.00  0.00    +0.000 A 
ATOM     14  C   UNL     1       5.511   4.628  15.457  0.00  0.00    +0.000 A 
ATOM     15 CL   UNL     1       6.469   3.943  14.205  0.00  0.00    +0.000 Cl
ATOM     16  C   UNL     1       5.431   6.010  15.593  0.00  0.00    +0.000 A 
ATOM     17  C   UNL     1       4.646   6.563  16.608  0.00  0.00    +0.000 A 
ENDBRANCH   9  11
ENDBRANCH   2   5
BRANCH   1  18
ATOM     18  C   UNL     1      -0.555  11.211  19.360  0.00  0.00    +0.000 C 
ATOM     19  C   UNL     1       0.474  12.284  18.940  0.00  0.00    +0.000 C 
ATOM     20  C   UNL     1      -1.261  11.629  20.666  0.00  0.00    +0.000 C 
BRANCH  18  24
ATOM     21  C   UNL     1      -3.125   9.911  15.266  0.00  0.00    +0.000 C 
ATOM     22  C   UNL     1      -2.605  10.480  16.523  0.00  0.00    +0.000 A 
ATOM     23  N   UNL     1      -1.486  10.236  17.173  0.00  0.00    +0.000 NA
ATOM     24  C   UNL     1      -1.601  11.085  18.258  0.00  0.00    +0.000 A 
ATOM     25  N   UNL     1      -2.732  11.811  18.272  0.00  0.00    +0.000 NA
ATOM     26  O   UNL     1      -3.396  11.410  17.122  0.00  0.00    +0.000 OA
ENDBRANCH  18  24
ENDBRANCH   1  18
TORSDOF 4
ENDMDL
