MODEL 1
REMARK VINA RESULT:      -7.9      0.000      0.000
REMARK  Name = 
REMARK  5 active torsions:
REMARK  status: ('A' for Active; 'I' for Inactive)
REMARK    1  A    between atoms: C_1  and  C_2
REMARK    2  A    between atoms: N_7  and  C_8
REMARK    3  A    between atoms: C_8  and  N_10
REMARK    4  A    between atoms: N_13  and  C_14
REMARK    5  A    between atoms: C_17  and  C_18
REMARK                            x       y       z     vdW  Elec       q    Type
REMARK                         _______ _______ _______ _____ _____    ______ ____
ROOT
ATOM      1  N   UNL     1       2.585   5.514  19.242  0.00  0.00    +0.000 N 
ATOM      2  C   UNL     1       1.830   5.917  20.445  0.00  0.00    +0.000 C 
ATOM      3  C   UNL     1       2.030   7.399  20.814  0.00  0.00    +0.000 C 
ATOM      4  N   UNL     1       1.747   8.248  19.647  0.00  0.00    +0.000 N 
ATOM      5  C   UNL     1       2.537   7.912  18.453  0.00  0.00    +0.000 C 
ATOM      6  C   UNL     1       2.374   6.425  18.091  0.00  0.00    +0.000 C 
ENDROOT
BRANCH   4   7
ATOM      7  C   UNL     1       0.822   9.270  19.688  0.00  0.00    +0.000 A 
ATOM      8  C   UNL     1       0.315   9.752  20.907  0.00  0.00    +0.000 A 
ATOM      9  C   UNL     1      -0.660  10.756  20.967  0.00  0.00    +0.000 A 
ATOM     10  C   UNL     1      -1.156  11.334  19.797  0.00  0.00    +0.000 A 
ATOM     11  C   UNL     1      -0.650  10.888  18.573  0.00  0.00    +0.000 A 
ATOM     12  C   UNL     1       0.322   9.875  18.527  0.00  0.00    +0.000 A 
BRANCH  10  13
ATOM     13  C   UNL     1      -2.211  12.410  19.846  0.00  0.00    +0.000 C 
ATOM     14  F   UNL     1      -2.848  12.494  21.049  0.00  0.00    +0.000 F 
ATOM     15  F   UNL     1      -1.703  13.650  19.608  0.00  0.00    +0.000 F 
ATOM     16  F   UNL     1      -3.192  12.222  18.920  0.00  0.00    +0.000 F 
ENDBRANCH  10  13
ENDBRANCH   4   7
BRANCH   1  17
ATOM     17  C   UNL     1       2.848   4.138  19.039  0.00  0.00    +0.000 C 
ATOM     18  S   UNL     1       1.636   3.018  18.710  0.00  0.00    +0.000 S 
BRANCH  17  25
ATOM     19  C   UNL     1       5.713   4.273  14.351  0.00  0.00    +0.000 C 
ATOM     20  C   UNL     1       5.991   4.303  15.824  0.00  0.00    +0.000 A 
ATOM     21  C   UNL     1       7.242   4.635  16.331  0.00  0.00    +0.000 A 
ATOM     22  C   UNL     1       7.411   4.632  17.707  0.00  0.00    +0.000 A 
ATOM     23  N   UNL     1       6.424   4.348  18.591  0.00  0.00    +0.000 NA
ATOM     24  C   UNL     1       5.198   4.093  18.089  0.00  0.00    +0.000 A 
ATOM     25  N   UNL     1       4.213   3.878  19.062  0.00  0.00    +0.000 N 
ATOM     26  C   UNL     1       4.960   4.011  16.724  0.00  0.00    +0.000 A 
ATOM     27  H   UNL     1       4.619   3.857  19.987  0.00  0.00    +0.000 HD
ENDBRANCH  17  25
ENDBRANCH   1  17
TORSDOF 4
ENDMDL
MODEL 2
REMARK VINA RESULT:      -7.8      0.189      1.229
REMARK  Name = 
REMARK  5 active torsions:
REMARK  status: ('A' for Active; 'I' for Inactive)
REMARK    1  A    between atoms: C_1  and  C_2
REMARK    2  A    between atoms: N_7  and  C_8
REMARK    3  A    between atoms: C_8  and  N_10
REMARK    4  A    between atoms: N_13  and  C_14
REMARK    5  A    between atoms: C_17  and  C_18
REMARK                            x       y       z     vdW  Elec       q    Type
REMARK                         _______ _______ _______ _____ _____    ______ ____
ROOT
ATOM      1  N   UNL     1       2.591   5.521  19.246  0.00  0.00    +0.000 N 
ATOM      2  C   UNL     1       1.832   5.905  20.453  0.00  0.00    +0.000 C 
ATOM      3  C   UNL     1       2.031   7.380  20.847  0.00  0.00    +0.000 C 
ATOM      4  N   UNL     1       1.752   8.249  19.693  0.00  0.00    +0.000 N 
ATOM      5  C   UNL     1       2.547   7.932  18.497  0.00  0.00    +0.000 C 
ATOM      6  C   UNL     1       2.385   6.451  18.110  0.00  0.00    +0.000 C 
ENDROOT
BRANCH   4   7
ATOM      7  C   UNL     1       0.827   9.270  19.747  0.00  0.00    +0.000 A 
ATOM      8  C   UNL     1       0.475  10.001  18.600  0.00  0.00    +0.000 A 
ATOM      9  C   UNL     1      -0.426  11.072  18.644  0.00  0.00    +0.000 A 
ATOM     10  C   UNL     1      -1.028  11.445  19.847  0.00  0.00    +0.000 A 
ATOM     11  C   UNL     1      -0.712  10.717  20.998  0.00  0.00    +0.000 A 
ATOM     12  C   UNL     1       0.200   9.649  20.941  0.00  0.00    +0.000 A 
BRANCH  10  13
ATOM     13  C   UNL     1      -1.994  12.601  19.911  0.00  0.00    +0.000 C 
ATOM     14  F   UNL     1      -1.494  13.758  19.390  0.00  0.00    +0.000 F 
ATOM     15  F   UNL     1      -3.147  12.356  19.229  0.00  0.00    +0.000 F 
ATOM     16  F   UNL     1      -2.369  12.899  21.185  0.00  0.00    +0.000 F 
ENDBRANCH  10  13
ENDBRANCH   4   7
BRANCH   1  17
ATOM     17  C   UNL     1       2.855   4.148  19.022  0.00  0.00    +0.000 C 
ATOM     18  S   UNL     1       1.643   3.034  18.672  0.00  0.00    +0.000 S 
BRANCH  17  25
ATOM     19  C   UNL     1       5.719   4.286  14.334  0.00  0.00    +0.000 C 
ATOM     20  C   UNL     1       5.996   4.315  15.806  0.00  0.00    +0.000 A 
ATOM     21  C   UNL     1       7.248   4.646  16.314  0.00  0.00    +0.000 A 
ATOM     22  C   UNL     1       7.417   4.642  17.689  0.00  0.00    +0.000 A 
ATOM     23  N   UNL     1       6.431   4.358  18.573  0.00  0.00    +0.000 NA
ATOM     24  C   UNL     1       5.205   4.103  18.071  0.00  0.00    +0.000 A 
ATOM     25  N   UNL     1       4.219   3.888  19.044  0.00  0.00    +0.000 N 
ATOM     26  C   UNL     1       4.966   4.023  16.706  0.00  0.00    +0.000 A 
ATOM     27  H   UNL     1       4.626   3.866  19.970  0.00  0.00    +0.000 HD
ENDBRANCH  17  25
ENDBRANCH   1  17
TORSDOF 4
ENDMDL
MODEL 3
REMARK VINA RESULT:      -7.6      5.200      9.606
REMARK  Name = 
REMARK  5 active torsions:
REMARK  status: ('A' for Active; 'I' for Inactive)
REMARK    1  A    between atoms: C_1  and  C_2
REMARK    2  A    between atoms: N_7  and  C_8
REMARK    3  A    between atoms: C_8  and  N_10
REMARK    4  A    between atoms: N_13  and  C_14
REMARK    5  A    between atoms: C_17  and  C_18
REMARK                            x       y       z     vdW  Elec       q    Type
REMARK                         _______ _______ _______ _____ _____    ______ ____
ROOT
ATOM      1  N   UNL     1       0.610  10.247  18.858  0.00  0.00    +0.000 N 
ATOM      2  C   UNL     1       1.230   9.524  17.730  0.00  0.00    +0.000 C 
ATOM      3  C   UNL     1       2.467   8.706  18.144  0.00  0.00    +0.000 C 
ATOM      4  N   UNL     1       2.131   7.826  19.274  0.00  0.00    +0.000 N 
ATOM      5  C   UNL     1       1.575   8.530  20.439  0.00  0.00    +0.000 C 
ATOM      6  C   UNL     1       0.357   9.379  20.034  0.00  0.00    +0.000 C 
ENDROOT
BRANCH   4   7
ATOM      7  C   UNL     1       2.330   6.462  19.229  0.00  0.00    +0.000 A 
ATOM      8  C   UNL     1       3.012   5.855  18.161  0.00  0.00    +0.000 A 
ATOM      9  C   UNL     1       3.183   4.468  18.074  0.00  0.00    +0.000 A 
ATOM     10  C   UNL     1       2.688   3.628  19.074  0.00  0.00    +0.000 A 
ATOM     11  C   UNL     1       2.027   4.211  20.159  0.00  0.00    +0.000 A 
ATOM     12  C   UNL     1       1.855   5.603  20.229  0.00  0.00    +0.000 A 
BRANCH  10  13
ATOM     13  C   UNL     1       2.858   2.132  18.990  0.00  0.00    +0.000 C 
ATOM     14  F   UNL     1       1.829   1.435  19.553  0.00  0.00    +0.000 F 
ATOM     15  F   UNL     1       2.948   1.688  17.706  0.00  0.00    +0.000 F 
ATOM     16  F   UNL     1       3.986   1.699  19.617  0.00  0.00    +0.000 F 
ENDBRANCH  10  13
ENDBRANCH   4   7
BRANCH   1  17
ATOM     17  C   UNL     1      -0.232  11.348  18.573  0.00  0.00    +0.000 C 
ATOM     18  S   UNL     1       0.134  12.920  19.048  0.00  0.00    +0.000 S 
BRANCH  17  25
ATOM     19  C   UNL     1      -5.335  12.390  20.328  0.00  0.00    +0.000 C 
ATOM     20  C   UNL     1      -4.655  12.022  19.044  0.00  0.00    +0.000 A 
ATOM     21  C   UNL     1      -5.307  12.097  17.818  0.00  0.00    +0.000 A 
ATOM     22  C   UNL     1      -4.603  11.732  16.681  0.00  0.00    +0.000 A 
ATOM     23  N   UNL     1      -3.310  11.329  16.687  0.00  0.00    +0.000 NA
ATOM     24  C   UNL     1      -2.669  11.324  17.874  0.00  0.00    +0.000 A 
ATOM     25  N   UNL     1      -1.317  10.964  17.795  0.00  0.00    +0.000 N 
ATOM     26  C   UNL     1      -3.318  11.611  19.067  0.00  0.00    +0.000 A 
ATOM     27  H   UNL     1      -1.077  10.673  16.857  0.00  0.00    +0.000 HD
ENDBRANCH  17  25
ENDBRANCH   1  17
TORSDOF 4
ENDMDL
MODEL 4
REMARK VINA RESULT:      -7.4      5.245      9.675
REMARK  Name = 
REMARK  5 active torsions:
REMARK  status: ('A' for Active; 'I' for Inactive)
REMARK    1  A    between atoms: C_1  and  C_2
REMARK    2  A    between atoms: N_7  and  C_8
REMARK    3  A    between atoms: C_8  and  N_10
REMARK    4  A    between atoms: N_13  and  C_14
REMARK    5  A    between atoms: C_17  and  C_18
REMARK                            x       y       z     vdW  Elec       q    Type
REMARK                         _______ _______ _______ _____ _____    ______ ____
ROOT
ATOM      1  N   UNL     1       0.364  10.384  19.007  0.00  0.00    +0.000 N 
ATOM      2  C   UNL     1       0.980   9.677  17.866  0.00  0.00    +0.000 C 
ATOM      3  C   UNL     1       2.239   8.884  18.257  0.00  0.00    +0.000 C 
ATOM      4  N   UNL     1       1.940   7.993  19.389  0.00  0.00    +0.000 N 
ATOM      5  C   UNL     1       1.389   8.682  20.566  0.00  0.00    +0.000 C 
ATOM      6  C   UNL     1       0.147   9.508  20.184  0.00  0.00    +0.000 C 
ENDROOT
BRANCH   4   7
ATOM      7  C   UNL     1       2.166   6.634  19.336  0.00  0.00    +0.000 A 
ATOM      8  C   UNL     1       1.971   5.814  20.461  0.00  0.00    +0.000 A 
ATOM      9  C   UNL     1       2.241   4.440  20.441  0.00  0.00    +0.000 A 
ATOM     10  C   UNL     1       2.705   3.825  19.276  0.00  0.00    +0.000 A 
ATOM     11  C   UNL     1       2.885   4.616  18.138  0.00  0.00    +0.000 A 
ATOM     12  C   UNL     1       2.617   5.994  18.174  0.00  0.00    +0.000 A 
BRANCH  10  13
ATOM     13  C   UNL     1       3.008   2.348  19.242  0.00  0.00    +0.000 C 
ATOM     14  F   UNL     1       3.967   1.968  20.134  0.00  0.00    +0.000 F 
ATOM     15  F   UNL     1       1.916   1.585  19.524  0.00  0.00    +0.000 F 
ATOM     16  F   UNL     1       3.450   1.934  18.023  0.00  0.00    +0.000 F 
ENDBRANCH  10  13
ENDBRANCH   4   7
BRANCH   1  17
ATOM     17  C   UNL     1      -0.505  11.469  18.740  0.00  0.00    +0.000 C 
ATOM     18  S   UNL     1      -0.136  13.055  19.162  0.00  0.00    +0.000 S 
BRANCH  17  25
ATOM     19  C   UNL     1      -5.527  12.803  20.531  0.00  0.00    +0.000 C 
ATOM     20  C   UNL     1      -4.893  12.311  19.265  0.00  0.00    +0.000 A 
ATOM     21  C   UNL     1      -5.577  12.305  18.053  0.00  0.00    +0.000 A 
ATOM     22  C   UNL     1      -4.915  11.827  16.933  0.00  0.00    +0.000 A 
ATOM     23  N   UNL     1      -3.634  11.387  16.940  0.00  0.00    +0.000 NA
ATOM     24  C   UNL     1      -2.960  11.460  18.107  0.00  0.00    +0.000 A 
ATOM     25  N   UNL     1      -1.622  11.055  18.023  0.00  0.00    +0.000 N 
ATOM     26  C   UNL     1      -3.568  11.864  19.288  0.00  0.00    +0.000 A 
ATOM     27  H   UNL     1      -1.415  10.681  17.107  0.00  0.00    +0.000 HD
ENDBRANCH  17  25
ENDBRANCH   1  17
TORSDOF 4
ENDMDL
MODEL 5
REMARK VINA RESULT:      -7.3      5.196      9.715
REMARK  Name = 
REMARK  5 active torsions:
REMARK  status: ('A' for Active; 'I' for Inactive)
REMARK    1  A    between atoms: C_1  and  C_2
REMARK    2  A    between atoms: N_7  and  C_8
REMARK    3  A    between atoms: C_8  and  N_10
REMARK    4  A    between atoms: N_13  and  C_14
REMARK    5  A    between atoms: C_17  and  C_18
REMARK                            x       y       z     vdW  Elec       q    Type
REMARK                         _______ _______ _______ _____ _____    ______ ____
ROOT
ATOM      1  N   UNL     1       0.812  10.566  19.579  0.00  0.00    +0.000 N 
ATOM      2  C   UNL     1       1.201   9.905  18.317  0.00  0.00    +0.000 C 
ATOM      3  C   UNL     1       2.328   8.872  18.500  0.00  0.00    +0.000 C 
ATOM      4  N   UNL     1       1.967   7.918  19.559  0.00  0.00    +0.000 N 
ATOM      5  C   UNL     1       1.642   8.546  20.848  0.00  0.00    +0.000 C 
ATOM      6  C   UNL     1       0.539   9.606  20.676  0.00  0.00    +0.000 C 
ENDROOT
BRANCH   4   7
ATOM      7  C   UNL     1       1.945   6.555  19.346  0.00  0.00    +0.000 A 
ATOM      8  C   UNL     1       2.176   6.008  18.073  0.00  0.00    +0.000 A 
ATOM      9  C   UNL     1       2.112   4.631  17.827  0.00  0.00    +0.000 A 
ATOM     10  C   UNL     1       1.827   3.738  18.863  0.00  0.00    +0.000 A 
ATOM     11  C   UNL     1       1.617   4.257  20.144  0.00  0.00    +0.000 A 
ATOM     12  C   UNL     1       1.678   5.642  20.374  0.00  0.00    +0.000 A 
BRANCH  10  13
ATOM     13  C   UNL     1       1.746   2.254  18.612  0.00  0.00    +0.000 C 
ATOM     14  F   UNL     1       2.382   1.506  19.559  0.00  0.00    +0.000 F 
ATOM     15  F   UNL     1       0.463   1.799  18.581  0.00  0.00    +0.000 F 
ATOM     16  F   UNL     1       2.300   1.894  17.422  0.00  0.00    +0.000 F 
ENDBRANCH  10  13
ENDBRANCH   4   7
BRANCH   1  17
ATOM     17  C   UNL     1       0.130  11.804  19.511  0.00  0.00    +0.000 C 
ATOM     18  S   UNL     1       0.930  13.284  19.484  0.00  0.00    +0.000 S 
BRANCH  17  25
ATOM     19  C   UNL     1      -3.179  12.974  23.740  0.00  0.00    +0.000 C 
ATOM     20  C   UNL     1      -3.303  12.740  22.265  0.00  0.00    +0.000 A 
ATOM     21  C   UNL     1      -4.469  13.035  21.567  0.00  0.00    +0.000 A 
ATOM     22  C   UNL     1      -4.496  12.781  20.205  0.00  0.00    +0.000 A 
ATOM     23  N   UNL     1      -3.449  12.284  19.505  0.00  0.00    +0.000 NA
ATOM     24  C   UNL     1      -2.302  12.063  20.181  0.00  0.00    +0.000 A 
ATOM     25  N   UNL     1      -1.241  11.617  19.382  0.00  0.00    +0.000 N 
ATOM     26  C   UNL     1      -2.210  12.229  21.556  0.00  0.00    +0.000 A 
ATOM     27  H   UNL     1      -1.552  11.443  18.436  0.00  0.00    +0.000 HD
ENDBRANCH  17  25
ENDBRANCH   1  17
TORSDOF 4
ENDMDL
MODEL 6
REMARK VINA RESULT:      -7.3      1.471      2.345
REMARK  Name = 
REMARK  5 active torsions:
REMARK  status: ('A' for Active; 'I' for Inactive)
REMARK    1  A    between atoms: C_1  and  C_2
REMARK    2  A    between atoms: N_7  and  C_8
REMARK    3  A    between atoms: C_8  and  N_10
REMARK    4  A    between atoms: N_13  and  C_14
REMARK    5  A    between atoms: C_17  and  C_18
REMARK                            x       y       z     vdW  Elec       q    Type
REMARK                         _______ _______ _______ _____ _____    ______ ____
ROOT
ATOM      1  N   UNL     1       2.324   5.424  18.873  0.00  0.00    +0.000 N 
ATOM      2  C   UNL     1       1.756   5.361  20.234  0.00  0.00    +0.000 C 
ATOM      3  C   UNL     1       2.100   6.594  21.089  0.00  0.00    +0.000 C 
ATOM      4  N   UNL     1       1.728   7.822  20.370  0.00  0.00    +0.000 N 
ATOM      5  C   UNL     1       2.336   7.944  19.036  0.00  0.00    +0.000 C 
ATOM      6  C   UNL     1       2.030   6.702  18.180  0.00  0.00    +0.000 C 
ENDROOT
BRANCH   4   7
ATOM      7  C   UNL     1       0.886   8.769  20.915  0.00  0.00    +0.000 A 
ATOM      8  C   UNL     1       0.477   9.894  20.180  0.00  0.00    +0.000 A 
ATOM      9  C   UNL     1      -0.339  10.890  20.732  0.00  0.00    +0.000 A 
ATOM     10  C   UNL     1      -0.795  10.786  22.047  0.00  0.00    +0.000 A 
ATOM     11  C   UNL     1      -0.420   9.663  22.790  0.00  0.00    +0.000 A 
ATOM     12  C   UNL     1       0.405   8.675  22.227  0.00  0.00    +0.000 A 
BRANCH  10  13
ATOM     13  C   UNL     1      -1.667  11.854  22.657  0.00  0.00    +0.000 C 
ATOM     14  F   UNL     1      -2.529  11.380  23.602  0.00  0.00    +0.000 F 
ATOM     15  F   UNL     1      -0.944  12.831  23.272  0.00  0.00    +0.000 F 
ATOM     16  F   UNL     1      -2.441  12.487  21.733  0.00  0.00    +0.000 F 
ENDBRANCH  10  13
ENDBRANCH   4   7
BRANCH   1  17
ATOM     17  C   UNL     1       2.467   4.219  18.144  0.00  0.00    +0.000 C 
ATOM     18  S   UNL     1       1.582   2.832  18.497  0.00  0.00    +0.000 S 
BRANCH  17  25
ATOM     19  C   UNL     1       7.648   5.781  19.104  0.00  0.00    +0.000 C 
ATOM     20  C   UNL     1       6.863   5.161  17.987  0.00  0.00    +0.000 A 
ATOM     21  C   UNL     1       7.482   4.591  16.880  0.00  0.00    +0.000 A 
ATOM     22  C   UNL     1       6.678   4.045  15.891  0.00  0.00    +0.000 A 
ATOM     23  N   UNL     1       5.325   4.012  15.948  0.00  0.00    +0.000 NA
ATOM     24  C   UNL     1       4.739   4.509  17.057  0.00  0.00    +0.000 A 
ATOM     25  N   UNL     1       3.344   4.377  17.078  0.00  0.00    +0.000 N 
ATOM     26  C   UNL     1       5.467   5.131  18.062  0.00  0.00    +0.000 A 
ATOM     27  H   UNL     1       3.004   4.011  16.199  0.00  0.00    +0.000 HD
ENDBRANCH  17  25
ENDBRANCH   1  17
TORSDOF 4
ENDMDL
MODEL 7
REMARK VINA RESULT:      -7.3      5.387      8.860
REMARK  Name = 
REMARK  5 active torsions:
REMARK  status: ('A' for Active; 'I' for Inactive)
REMARK    1  A    between atoms: C_1  and  C_2
REMARK    2  A    between atoms: N_7  and  C_8
REMARK    3  A    between atoms: C_8  and  N_10
REMARK    4  A    between atoms: N_13  and  C_14
REMARK    5  A    between atoms: C_17  and  C_18
REMARK                            x       y       z     vdW  Elec       q    Type
REMARK                         _______ _______ _______ _____ _____    ______ ____
ROOT
ATOM      1  N   UNL     1       0.706  10.330  19.121  0.00  0.00    +0.000 N 
ATOM      2  C   UNL     1       1.271   9.651  17.938  0.00  0.00    +0.000 C 
ATOM      3  C   UNL     1       2.469   8.746  18.276  0.00  0.00    +0.000 C 
ATOM      4  N   UNL     1       2.103   7.812  19.352  0.00  0.00    +0.000 N 
ATOM      5  C   UNL     1       1.602   8.466  20.570  0.00  0.00    +0.000 C 
ATOM      6  C   UNL     1       0.425   9.402  20.243  0.00  0.00    +0.000 C 
ENDROOT
BRANCH   4   7
ATOM      7  C   UNL     1       2.230   6.445  19.216  0.00  0.00    +0.000 A 
ATOM      8  C   UNL     1       2.603   5.862  17.993  0.00  0.00    +0.000 A 
ATOM      9  C   UNL     1       2.691   4.475  17.823  0.00  0.00    +0.000 A 
ATOM     10  C   UNL     1       2.424   3.610  18.886  0.00  0.00    +0.000 A 
ATOM     11  C   UNL     1       2.074   4.168  20.119  0.00  0.00    +0.000 A 
ATOM     12  C   UNL     1       1.982   5.562  20.274  0.00  0.00    +0.000 A 
BRANCH  10  13
ATOM     13  C   UNL     1       2.506   2.115  18.715  0.00  0.00    +0.000 C 
ATOM     14  F   UNL     1       3.691   1.584  19.132  0.00  0.00    +0.000 F 
ATOM     15  F   UNL     1       1.539   1.456  19.411  0.00  0.00    +0.000 F 
ATOM     16  F   UNL     1       2.363   1.728  17.417  0.00  0.00    +0.000 F 
ENDBRANCH  10  13
ENDBRANCH   4   7
BRANCH   1  17
ATOM     17  C   UNL     1      -0.081  11.489  18.924  0.00  0.00    +0.000 C 
ATOM     18  S   UNL     1      -1.659  11.626  19.491  0.00  0.00    +0.000 S 
BRANCH  17  25
ATOM     19  C   UNL     1       2.872  14.999  21.951  0.00  0.00    +0.000 C 
ATOM     20  C   UNL     1       2.789  14.565  20.519  0.00  0.00    +0.000 A 
ATOM     21  C   UNL     1       3.768  14.900  19.590  0.00  0.00    +0.000 A 
ATOM     22  C   UNL     1       3.607  14.460  18.285  0.00  0.00    +0.000 A 
ATOM     23  N   UNL     1       2.566  13.704  17.863  0.00  0.00    +0.000 NA
ATOM     24  C   UNL     1       1.658  13.330  18.788  0.00  0.00    +0.000 A 
ATOM     25  N   UNL     1       0.649  12.492  18.296  0.00  0.00    +0.000 N 
ATOM     26  C   UNL     1       1.709  13.781  20.100  0.00  0.00    +0.000 A 
ATOM     27  H   UNL     1       0.725  12.388  17.293  0.00  0.00    +0.000 HD
ENDBRANCH  17  25
ENDBRANCH   1  17
TORSDOF 4
ENDMDL
MODEL 8
REMARK VINA RESULT:      -7.3      5.204      9.821
REMARK  Name = 
REMARK  5 active torsions:
REMARK  status: ('A' for Active; 'I' for Inactive)
REMARK    1  A    between atoms: C_1  and  C_2
REMARK    2  A    between atoms: N_7  and  C_8
REMARK    3  A    between atoms: C_8  and  N_10
REMARK    4  A    between atoms: N_13  and  C_14
REMARK    5  A    between atoms: C_17  and  C_18
REMARK                            x       y       z     vdW  Elec       q    Type
REMARK                         _______ _______ _______ _____ _____    ______ ____
ROOT
ATOM      1  N   UNL     1       0.312  10.371  19.700  0.00  0.00    +0.000 N 
ATOM      2  C   UNL     1       0.783   9.771  18.436  0.00  0.00    +0.000 C 
ATOM      3  C   UNL     1       2.057   8.926  18.607  0.00  0.00    +0.000 C 
ATOM      4  N   UNL     1       1.860   7.932  19.674  0.00  0.00    +0.000 N 
ATOM      5  C   UNL     1       1.458   8.510  20.965  0.00  0.00    +0.000 C 
ATOM      6  C   UNL     1       0.203   9.386  20.804  0.00  0.00    +0.000 C 
ENDROOT
BRANCH   4   7
ATOM      7  C   UNL     1       2.046   6.582  19.466  0.00  0.00    +0.000 A 
ATOM      8  C   UNL     1       2.396   6.076  18.202  0.00  0.00    +0.000 A 
ATOM      9  C   UNL     1       2.543   4.705  17.960  0.00  0.00    +0.000 A 
ATOM     10  C   UNL     1       2.359   3.779  18.989  0.00  0.00    +0.000 A 
ATOM     11  C   UNL     1       2.034   4.260  20.261  0.00  0.00    +0.000 A 
ATOM     12  C   UNL     1       1.882   5.638  20.488  0.00  0.00    +0.000 A 
BRANCH  10  13
ATOM     13  C   UNL     1       2.506   2.298  18.742  0.00  0.00    +0.000 C 
ATOM     14  F   UNL     1       1.532   1.549  19.333  0.00  0.00    +0.000 F 
ATOM     15  F   UNL     1       2.463   1.984  17.418  0.00  0.00    +0.000 F 
ATOM     16  F   UNL     1       3.687   1.805  19.206  0.00  0.00    +0.000 F 
ENDBRANCH  10  13
ENDBRANCH   4   7
BRANCH   1  17
ATOM     17  C   UNL     1      -0.554  11.489  19.637  0.00  0.00    +0.000 C 
ATOM     18  S   UNL     1      -1.283  11.995  18.207  0.00  0.00    +0.000 S 
BRANCH  17  25
ATOM     19  C   UNL     1      -5.573  13.272  20.989  0.00  0.00    +0.000 C 
ATOM     20  C   UNL     1      -4.300  12.904  21.688  0.00  0.00    +0.000 A 
ATOM     21  C   UNL     1      -4.239  12.731  23.067  0.00  0.00    +0.000 A 
ATOM     22  C   UNL     1      -3.017  12.396  23.630  0.00  0.00    +0.000 A 
ATOM     23  N   UNL     1      -1.882  12.203  22.917  0.00  0.00    +0.000 NA
ATOM     24  C   UNL     1      -1.968  12.309  21.575  0.00  0.00    +0.000 A 
ATOM     25  N   UNL     1      -0.773  12.028  20.899  0.00  0.00    +0.000 N 
ATOM     26  C   UNL     1      -3.136  12.705  20.937  0.00  0.00    +0.000 A 
ATOM     27  H   UNL     1      -0.015  11.885  21.552  0.00  0.00    +0.000 HD
ENDBRANCH  17  25
ENDBRANCH   1  17
TORSDOF 4
ENDMDL
MODEL 9
REMARK VINA RESULT:      -7.3      5.235      9.810
REMARK  Name = 
REMARK  5 active torsions:
REMARK  status: ('A' for Active; 'I' for Inactive)
REMARK    1  A    between atoms: C_1  and  C_2
REMARK    2  A    between atoms: N_7  and  C_8
REMARK    3  A    between atoms: C_8  and  N_10
REMARK    4  A    between atoms: N_13  and  C_14
REMARK    5  A    between atoms: C_17  and  C_18
REMARK                            x       y       z     vdW  Elec       q    Type
REMARK                         _______ _______ _______ _____ _____    ______ ____
ROOT
ATOM      1  N   UNL     1       0.533  10.363  19.174  0.00  0.00    +0.000 N 
ATOM      2  C   UNL     1       1.052   9.685  17.970  0.00  0.00    +0.000 C 
ATOM      3  C   UNL     1       2.292   8.818  18.253  0.00  0.00    +0.000 C 
ATOM      4  N   UNL     1       2.013   7.889  19.358  0.00  0.00    +0.000 N 
ATOM      5  C   UNL     1       1.561   8.545  20.594  0.00  0.00    +0.000 C 
ATOM      6  C   UNL     1       0.341   9.443  20.321  0.00  0.00    +0.000 C 
ENDROOT
BRANCH   4   7
ATOM      7  C   UNL     1       2.172   6.525  19.232  0.00  0.00    +0.000 A 
ATOM      8  C   UNL     1       2.454   5.932  17.990  0.00  0.00    +0.000 A 
ATOM      9  C   UNL     1       2.572   4.545  17.833  0.00  0.00    +0.000 A 
ATOM     10  C   UNL     1       2.427   3.692  18.929  0.00  0.00    +0.000 A 
ATOM     11  C   UNL     1       2.169   4.261  20.180  0.00  0.00    +0.000 A 
ATOM     12  C   UNL     1       2.046   5.653  20.321  0.00  0.00    +0.000 A 
BRANCH  10  13
ATOM     13  C   UNL     1       2.543   2.197  18.774  0.00  0.00    +0.000 C 
ATOM     14  F   UNL     1       1.560   1.505  19.417  0.00  0.00    +0.000 F 
ATOM     15  F   UNL     1       2.484   1.801  17.472  0.00  0.00    +0.000 F 
ATOM     16  F   UNL     1       3.718   1.711  19.260  0.00  0.00    +0.000 F 
ENDBRANCH  10  13
ENDBRANCH   4   7
BRANCH   1  17
ATOM     17  C   UNL     1      -0.297  11.497  19.006  0.00  0.00    +0.000 C 
ATOM     18  S   UNL     1       0.302  13.070  18.999  0.00  0.00    +0.000 S 
BRANCH  17  25
ATOM     19  C   UNL     1      -4.351  13.887  21.845  0.00  0.00    +0.000 C 
ATOM     20  C   UNL     1      -4.200  13.073  20.596  0.00  0.00    +0.000 A 
ATOM     21  C   UNL     1      -5.234  12.937  19.675  0.00  0.00    +0.000 A 
ATOM     22  C   UNL     1      -5.007  12.159  18.550  0.00  0.00    +0.000 A 
ATOM     23  N   UNL     1      -3.833  11.542  18.279  0.00  0.00    +0.000 NA
ATOM     24  C   UNL     1      -2.817  11.736  19.146  0.00  0.00    +0.000 A 
ATOM     25  N   UNL     1      -1.614  11.126  18.766  0.00  0.00    +0.000 N 
ATOM     26  C   UNL     1      -2.979  12.444  20.328  0.00  0.00    +0.000 A 
ATOM     27  H   UNL     1      -1.744  10.557  17.941  0.00  0.00    +0.000 HD
ENDBRANCH  17  25
ENDBRANCH   1  17
TORSDOF 4
ENDMDL
