MODEL 1
REMARK VINA RESULT:      -7.8      0.000      0.000
REMARK  Name = 
REMARK  2 active torsions:
REMARK  status: ('A' for Active; 'I' for Inactive)
REMARK    1  A    between atoms: C_11  and  O_12
REMARK    2  A    between atoms: C_13  and  C_14
REMARK                            x       y       z     vdW  Elec       q    Type
REMARK                         _______ _______ _______ _____ _____    ______ ____
ROOT
ATOM      1  O   UNL     1       6.259   5.184  19.860  0.00  0.00    +0.000 OA
ATOM      2  C   UNL     1       5.940   4.887  18.715  0.00  0.00    +0.000 C 
ATOM      3  C   UNL     1       6.899   5.167  17.579  0.00  0.00    +0.000 C 
ATOM      4  O   UNL     1       7.978   5.705  17.798  0.00  0.00    +0.000 OA
ATOM      5  C   UNL     1       6.509   4.780  16.214  0.00  0.00    +0.000 A 
ATOM      6  C   UNL     1       7.420   5.039  15.174  0.00  0.00    +0.000 A 
ATOM      7  C   UNL     1       7.102   4.694  13.867  0.00  0.00    +0.000 A 
ATOM      8  C   UNL     1       5.879   4.091  13.603  0.00  0.00    +0.000 A 
ATOM      9  C   UNL     1       4.974   3.835  14.643  0.00  0.00    +0.000 A 
ATOM     10  C   UNL     1       5.265   4.176  15.978  0.00  0.00    +0.000 A 
ATOM     11  C   UNL     1       4.333   3.932  17.110  0.00  0.00    +0.000 C 
ATOM     12  C   UNL     1       4.633   4.257  18.387  0.00  0.00    +0.000 C 
ENDROOT
BRANCH  12  13
ATOM     13  C   UNL     1       3.678   3.979  19.484  0.00  0.00    +0.000 A 
ATOM     14  C   UNL     1       2.753   4.956  19.879  0.00  0.00    +0.000 A 
ATOM     15  C   UNL     1       1.907   4.731  20.968  0.00  0.00    +0.000 A 
ATOM     16  C   UNL     1       1.962   3.521  21.658  0.00  0.00    +0.000 A 
ATOM     17  C   UNL     1       2.854   2.531  21.252  0.00  0.00    +0.000 A 
ATOM     18  C   UNL     1       3.710   2.757  20.170  0.00  0.00    +0.000 A 
ENDBRANCH  12  13
BRANCH  11  19
ATOM     19  O   UNL     1       3.106   3.348  16.837  0.00  0.00    +0.000 OA
ATOM     20  H   UNL     1       2.369   3.826  17.242  0.00  0.00    +0.000 HD
ENDBRANCH  11  19
TORSDOF 2
ENDMDL
MODEL 2
REMARK VINA RESULT:      -7.7      0.171      1.120
REMARK  Name = 
REMARK  2 active torsions:
REMARK  status: ('A' for Active; 'I' for Inactive)
REMARK    1  A    between atoms: C_11  and  O_12
REMARK    2  A    between atoms: C_13  and  C_14
REMARK                            x       y       z     vdW  Elec       q    Type
REMARK                         _______ _______ _______ _____ _____    ______ ____
ROOT
ATOM      1  O   UNL     1       6.161   5.410  19.787  0.00  0.00    +0.000 OA
ATOM      2  C   UNL     1       5.867   5.051  18.653  0.00  0.00    +0.000 C 
ATOM      3  C   UNL     1       6.832   5.311  17.518  0.00  0.00    +0.000 C 
ATOM      4  O   UNL     1       7.890   5.893  17.724  0.00  0.00    +0.000 OA
ATOM      5  C   UNL     1       6.473   4.850  16.167  0.00  0.00    +0.000 A 
ATOM      6  C   UNL     1       7.388   5.091  15.127  0.00  0.00    +0.000 A 
ATOM      7  C   UNL     1       7.099   4.677  13.833  0.00  0.00    +0.000 A 
ATOM      8  C   UNL     1       5.900   4.023  13.582  0.00  0.00    +0.000 A 
ATOM      9  C   UNL     1       4.990   3.785  14.622  0.00  0.00    +0.000 A 
ATOM     10  C   UNL     1       5.252   4.195  15.944  0.00  0.00    +0.000 A 
ATOM     11  C   UNL     1       4.313   3.973  17.075  0.00  0.00    +0.000 C 
ATOM     12  C   UNL     1       4.585   4.364  18.339  0.00  0.00    +0.000 C 
ENDROOT
BRANCH  12  13
ATOM     13  C   UNL     1       3.626   4.105  19.436  0.00  0.00    +0.000 A 
ATOM     14  C   UNL     1       3.672   2.895  20.142  0.00  0.00    +0.000 A 
ATOM     15  C   UNL     1       2.717   2.609  21.122  0.00  0.00    +0.000 A 
ATOM     16  C   UNL     1       1.722   3.539  21.420  0.00  0.00    +0.000 A 
ATOM     17  C   UNL     1       1.688   4.759  20.748  0.00  0.00    +0.000 A 
ATOM     18  C   UNL     1       2.635   5.043  19.760  0.00  0.00    +0.000 A 
ENDBRANCH  12  13
BRANCH  11  19
ATOM     19  O   UNL     1       3.109   3.336  16.814  0.00  0.00    +0.000 OA
ATOM     20  H   UNL     1       2.349   3.923  16.923  0.00  0.00    +0.000 HD
ENDBRANCH  11  19
TORSDOF 2
ENDMDL
MODEL 3
REMARK VINA RESULT:      -7.5      1.642      5.958
REMARK  Name = 
REMARK  2 active torsions:
REMARK  status: ('A' for Active; 'I' for Inactive)
REMARK    1  A    between atoms: C_11  and  O_12
REMARK    2  A    between atoms: C_13  and  C_14
REMARK                            x       y       z     vdW  Elec       q    Type
REMARK                         _______ _______ _______ _____ _____    ______ ____
ROOT
ATOM      1  O   UNL     1       4.165   7.054  17.139  0.00  0.00    +0.000 OA
ATOM      2  C   UNL     1       3.846   6.006  17.690  0.00  0.00    +0.000 C 
ATOM      3  C   UNL     1       2.876   6.041  18.849  0.00  0.00    +0.000 C 
ATOM      4  O   UNL     1       2.427   7.109  19.249  0.00  0.00    +0.000 OA
ATOM      5  C   UNL     1       2.485   4.772  19.481  0.00  0.00    +0.000 A 
ATOM      6  C   UNL     1       1.572   4.825  20.550  0.00  0.00    +0.000 A 
ATOM      7  C   UNL     1       1.170   3.656  21.183  0.00  0.00    +0.000 A 
ATOM      8  C   UNL     1       1.677   2.439  20.746  0.00  0.00    +0.000 A 
ATOM      9  C   UNL     1       2.586   2.390  19.679  0.00  0.00    +0.000 A 
ATOM     10  C   UNL     1       3.017   3.558  19.020  0.00  0.00    +0.000 A 
ATOM     11  C   UNL     1       3.986   3.555  17.892  0.00  0.00    +0.000 C 
ATOM     12  C   UNL     1       4.380   4.684  17.264  0.00  0.00    +0.000 C 
ENDROOT
BRANCH  12  13
ATOM     13  C   UNL     1       5.335   4.629  16.134  0.00  0.00    +0.000 A 
ATOM     14  C   UNL     1       6.685   4.952  16.334  0.00  0.00    +0.000 A 
ATOM     15  C   UNL     1       7.573   4.983  15.256  0.00  0.00    +0.000 A 
ATOM     16  C   UNL     1       7.127   4.672  13.973  0.00  0.00    +0.000 A 
ATOM     17  C   UNL     1       5.795   4.316  13.769  0.00  0.00    +0.000 A 
ATOM     18  C   UNL     1       4.901   4.295  14.843  0.00  0.00    +0.000 A 
ENDBRANCH  12  13
BRANCH  11  19
ATOM     19  O   UNL     1       4.503   2.339  17.473  0.00  0.00    +0.000 OA
ATOM     20  H   UNL     1       3.946   1.591  17.731  0.00  0.00    +0.000 HD
ENDBRANCH  11  19
TORSDOF 2
ENDMDL
MODEL 4
REMARK VINA RESULT:      -7.5      1.664      5.950
REMARK  Name = 
REMARK  2 active torsions:
REMARK  status: ('A' for Active; 'I' for Inactive)
REMARK    1  A    between atoms: C_11  and  O_12
REMARK    2  A    between atoms: C_13  and  C_14
REMARK                            x       y       z     vdW  Elec       q    Type
REMARK                         _______ _______ _______ _____ _____    ______ ____
ROOT
ATOM      1  O   UNL     1       4.069   7.140  17.202  0.00  0.00    +0.000 OA
ATOM      2  C   UNL     1       3.780   6.075  17.734  0.00  0.00    +0.000 C 
ATOM      3  C   UNL     1       2.815   6.062  18.898  0.00  0.00    +0.000 C 
ATOM      4  O   UNL     1       2.340   7.110  19.320  0.00  0.00    +0.000 OA
ATOM      5  C   UNL     1       2.461   4.772  19.509  0.00  0.00    +0.000 A 
ATOM      6  C   UNL     1       1.553   4.781  20.583  0.00  0.00    +0.000 A 
ATOM      7  C   UNL     1       1.184   3.590  21.195  0.00  0.00    +0.000 A 
ATOM      8  C   UNL     1       1.721   2.396  20.734  0.00  0.00    +0.000 A 
ATOM      9  C   UNL     1       2.626   2.390  19.662  0.00  0.00    +0.000 A 
ATOM     10  C   UNL     1       3.023   3.581  19.022  0.00  0.00    +0.000 A 
ATOM     11  C   UNL     1       3.985   3.624  17.891  0.00  0.00    +0.000 C 
ATOM     12  C   UNL     1       4.347   4.775  17.282  0.00  0.00    +0.000 C 
ENDROOT
BRANCH  12  13
ATOM     13  C   UNL     1       5.297   4.766  16.146  0.00  0.00    +0.000 A 
ATOM     14  C   UNL     1       4.867   4.379  14.869  0.00  0.00    +0.000 A 
ATOM     15  C   UNL     1       5.776   4.289  13.813  0.00  0.00    +0.000 A 
ATOM     16  C   UNL     1       7.119   4.604  14.017  0.00  0.00    +0.000 A 
ATOM     17  C   UNL     1       7.550   5.023  15.274  0.00  0.00    +0.000 A 
ATOM     18  C   UNL     1       6.644   5.104  16.336  0.00  0.00    +0.000 A 
ENDBRANCH  12  13
BRANCH  11  19
ATOM     19  O   UNL     1       4.532   2.430  17.447  0.00  0.00    +0.000 OA
ATOM     20  H   UNL     1       4.590   1.766  18.147  0.00  0.00    +0.000 HD
ENDBRANCH  11  19
TORSDOF 2
ENDMDL
MODEL 5
REMARK VINA RESULT:      -7.2      1.750      1.846
REMARK  Name = 
REMARK  2 active torsions:
REMARK  status: ('A' for Active; 'I' for Inactive)
REMARK    1  A    between atoms: C_11  and  O_12
REMARK    2  A    between atoms: C_13  and  C_14
REMARK                            x       y       z     vdW  Elec       q    Type
REMARK                         _______ _______ _______ _____ _____    ______ ____
ROOT
ATOM      1  O   UNL     1       3.174   6.475  19.211  0.00  0.00    +0.000 OA
ATOM      2  C   UNL     1       3.694   5.745  18.375  0.00  0.00    +0.000 C 
ATOM      3  C   UNL     1       4.507   6.357  17.256  0.00  0.00    +0.000 C 
ATOM      4  O   UNL     1       4.628   7.573  17.173  0.00  0.00    +0.000 OA
ATOM      5  C   UNL     1       5.145   5.463  16.277  0.00  0.00    +0.000 A 
ATOM      6  C   UNL     1       5.905   6.051  15.251  0.00  0.00    +0.000 A 
ATOM      7  C   UNL     1       6.529   5.254  14.300  0.00  0.00    +0.000 A 
ATOM      8  C   UNL     1       6.393   3.874  14.377  0.00  0.00    +0.000 A 
ATOM      9  C   UNL     1       5.634   3.291  15.402  0.00  0.00    +0.000 A 
ATOM     10  C   UNL     1       4.986   4.073  16.379  0.00  0.00    +0.000 A 
ATOM     11  C   UNL     1       4.164   3.499  17.477  0.00  0.00    +0.000 C 
ATOM     12  C   UNL     1       3.558   4.264  18.412  0.00  0.00    +0.000 C 
ENDROOT
BRANCH  12  13
ATOM     13  C   UNL     1       2.762   3.646  19.497  0.00  0.00    +0.000 A 
ATOM     14  C   UNL     1       1.363   3.608  19.413  0.00  0.00    +0.000 A 
ATOM     15  C   UNL     1       0.603   3.102  20.471  0.00  0.00    +0.000 A 
ATOM     16  C   UNL     1       1.234   2.610  21.612  0.00  0.00    +0.000 A 
ATOM     17  C   UNL     1       2.625   2.612  21.691  0.00  0.00    +0.000 A 
ATOM     18  C   UNL     1       3.388   3.127  20.639  0.00  0.00    +0.000 A 
ENDBRANCH  12  13
BRANCH  11  19
ATOM     19  O   UNL     1       4.016   2.122  17.538  0.00  0.00    +0.000 OA
ATOM     20  H   UNL     1       4.492   1.667  16.829  0.00  0.00    +0.000 HD
ENDBRANCH  11  19
TORSDOF 2
ENDMDL
MODEL 6
REMARK VINA RESULT:      -7.1      1.793      2.057
REMARK  Name = 
REMARK  2 active torsions:
REMARK  status: ('A' for Active; 'I' for Inactive)
REMARK    1  A    between atoms: C_11  and  O_12
REMARK    2  A    between atoms: C_13  and  C_14
REMARK                            x       y       z     vdW  Elec       q    Type
REMARK                         _______ _______ _______ _____ _____    ______ ____
ROOT
ATOM      1  O   UNL     1       3.119   6.596  19.151  0.00  0.00    +0.000 OA
ATOM      2  C   UNL     1       3.644   5.839  18.343  0.00  0.00    +0.000 C 
ATOM      3  C   UNL     1       4.462   6.413  17.208  0.00  0.00    +0.000 C 
ATOM      4  O   UNL     1       4.585   7.625  17.084  0.00  0.00    +0.000 OA
ATOM      5  C   UNL     1       5.106   5.487  16.263  0.00  0.00    +0.000 A 
ATOM      6  C   UNL     1       5.872   6.040  15.221  0.00  0.00    +0.000 A 
ATOM      7  C   UNL     1       6.501   5.211  14.302  0.00  0.00    +0.000 A 
ATOM      8  C   UNL     1       6.365   3.835  14.425  0.00  0.00    +0.000 A 
ATOM      9  C   UNL     1       5.600   3.286  15.464  0.00  0.00    +0.000 A 
ATOM     10  C   UNL     1       4.947   4.100  16.411  0.00  0.00    +0.000 A 
ATOM     11  C   UNL     1       4.119   3.564  17.523  0.00  0.00    +0.000 C 
ATOM     12  C   UNL     1       3.507   4.359  18.428  0.00  0.00    +0.000 C 
ENDROOT
BRANCH  12  13
ATOM     13  C   UNL     1       2.706   3.778  19.529  0.00  0.00    +0.000 A 
ATOM     14  C   UNL     1       3.338   3.303  20.687  0.00  0.00    +0.000 A 
ATOM     15  C   UNL     1       2.597   2.678  21.693  0.00  0.00    +0.000 A 
ATOM     16  C   UNL     1       1.216   2.541  21.562  0.00  0.00    +0.000 A 
ATOM     17  C   UNL     1       0.574   3.041  20.430  0.00  0.00    +0.000 A 
ATOM     18  C   UNL     1       1.314   3.657  19.417  0.00  0.00    +0.000 A 
ENDBRANCH  12  13
BRANCH  11  19
ATOM     19  O   UNL     1       3.971   2.190  17.629  0.00  0.00    +0.000 OA
ATOM     20  H   UNL     1       3.780   1.907  18.534  0.00  0.00    +0.000 HD
ENDBRANCH  11  19
TORSDOF 2
ENDMDL
MODEL 7
REMARK VINA RESULT:      -7.0      1.879      6.092
REMARK  Name = 
REMARK  2 active torsions:
REMARK  status: ('A' for Active; 'I' for Inactive)
REMARK    1  A    between atoms: C_11  and  O_12
REMARK    2  A    between atoms: C_13  and  C_14
REMARK                            x       y       z     vdW  Elec       q    Type
REMARK                         _______ _______ _______ _____ _____    ______ ____
ROOT
ATOM      1  O   UNL     1       5.067   7.189  15.255  0.00  0.00    +0.000 OA
ATOM      2  C   UNL     1       4.847   6.267  16.032  0.00  0.00    +0.000 C 
ATOM      3  C   UNL     1       4.139   6.549  17.338  0.00  0.00    +0.000 C 
ATOM      4  O   UNL     1       3.805   7.691  17.628  0.00  0.00    +0.000 OA
ATOM      5  C   UNL     1       3.860   5.426  18.247  0.00  0.00    +0.000 A 
ATOM      6  C   UNL     1       3.190   5.707  19.451  0.00  0.00    +0.000 A 
ATOM      7  C   UNL     1       2.902   4.684  20.345  0.00  0.00    +0.000 A 
ATOM      8  C   UNL     1       3.281   3.385  20.034  0.00  0.00    +0.000 A 
ATOM      9  C   UNL     1       3.949   3.108  18.832  0.00  0.00    +0.000 A 
ATOM     10  C   UNL     1       4.259   4.124  17.906  0.00  0.00    +0.000 A 
ATOM     11  C   UNL     1       4.972   3.879  16.626  0.00  0.00    +0.000 C 
ATOM     12  C   UNL     1       5.252   4.864  15.745  0.00  0.00    +0.000 C 
ENDROOT
BRANCH  12  13
ATOM     13  C   UNL     1       5.951   4.569  14.473  0.00  0.00    +0.000 A 
ATOM     14  C   UNL     1       7.214   5.122  14.217  0.00  0.00    +0.000 A 
ATOM     15  C   UNL     1       7.841   4.914  12.985  0.00  0.00    +0.000 A 
ATOM     16  C   UNL     1       7.223   4.136  12.008  0.00  0.00    +0.000 A 
ATOM     17  C   UNL     1       5.983   3.554  12.266  0.00  0.00    +0.000 A 
ATOM     18  C   UNL     1       5.348   3.769  13.492  0.00  0.00    +0.000 A 
ENDBRANCH  12  13
BRANCH  11  19
ATOM     19  O   UNL     1       5.365   2.583  16.329  0.00  0.00    +0.000 OA
ATOM     20  H   UNL     1       5.619   2.083  17.118  0.00  0.00    +0.000 HD
ENDBRANCH  11  19
TORSDOF 2
ENDMDL
MODEL 8
REMARK VINA RESULT:      -7.0      4.251      7.155
REMARK  Name = 
REMARK  2 active torsions:
REMARK  status: ('A' for Active; 'I' for Inactive)
REMARK    1  A    between atoms: C_11  and  O_12
REMARK    2  A    between atoms: C_13  and  C_14
REMARK                            x       y       z     vdW  Elec       q    Type
REMARK                         _______ _______ _______ _____ _____    ______ ____
ROOT
ATOM      1  O   UNL     1       2.615   8.417  17.061  0.00  0.00    +0.000 OA
ATOM      2  C   UNL     1       2.180   8.427  18.207  0.00  0.00    +0.000 C 
ATOM      3  C   UNL     1       1.527   9.680  18.745  0.00  0.00    +0.000 C 
ATOM      4  O   UNL     1       1.450  10.685  18.049  0.00  0.00    +0.000 OA
ATOM      5  C   UNL     1       0.989   9.665  20.113  0.00  0.00    +0.000 A 
ATOM      6  C   UNL     1       0.375  10.837  20.590  0.00  0.00    +0.000 A 
ATOM      7  C   UNL     1      -0.150  10.876  21.875  0.00  0.00    +0.000 A 
ATOM      8  C   UNL     1      -0.063   9.747  22.678  0.00  0.00    +0.000 A 
ATOM      9  C   UNL     1       0.549   8.579  22.200  0.00  0.00    +0.000 A 
ATOM     10  C   UNL     1       1.095   8.509  20.902  0.00  0.00    +0.000 A 
ATOM     11  C   UNL     1       1.761   7.297  20.357  0.00  0.00    +0.000 C 
ATOM     12  C   UNL     1       2.269   7.244  19.106  0.00  0.00    +0.000 C 
ENDROOT
BRANCH  12  13
ATOM     13  C   UNL     1       2.909   6.008  18.600  0.00  0.00    +0.000 A 
ATOM     14  C   UNL     1       4.296   5.834  18.714  0.00  0.00    +0.000 A 
ATOM     15  C   UNL     1       4.916   4.709  18.164  0.00  0.00    +0.000 A 
ATOM     16  C   UNL     1       4.155   3.738  17.514  0.00  0.00    +0.000 A 
ATOM     17  C   UNL     1       2.772   3.886  17.426  0.00  0.00    +0.000 A 
ATOM     18  C   UNL     1       2.150   5.015  17.965  0.00  0.00    +0.000 A 
ENDBRANCH  12  13
BRANCH  11  19
ATOM     19  O   UNL     1       1.861   6.179  21.170  0.00  0.00    +0.000 OA
ATOM     20  H   UNL     1       2.239   6.384  22.036  0.00  0.00    +0.000 HD
ENDBRANCH  11  19
TORSDOF 2
ENDMDL
MODEL 9
REMARK VINA RESULT:      -7.0      4.365      7.304
REMARK  Name = 
REMARK  2 active torsions:
REMARK  status: ('A' for Active; 'I' for Inactive)
REMARK    1  A    between atoms: C_11  and  O_12
REMARK    2  A    between atoms: C_13  and  C_14
REMARK                            x       y       z     vdW  Elec       q    Type
REMARK                         _______ _______ _______ _____ _____    ______ ____
ROOT
ATOM      1  O   UNL     1       2.374   8.716  17.044  0.00  0.00    +0.000 OA
ATOM      2  C   UNL     1       2.002   8.656  18.210  0.00  0.00    +0.000 C 
ATOM      3  C   UNL     1       1.324   9.853  18.837  0.00  0.00    +0.000 C 
ATOM      4  O   UNL     1       1.166  10.883  18.192  0.00  0.00    +0.000 OA
ATOM      5  C   UNL     1       0.860   9.754  20.229  0.00  0.00    +0.000 A 
ATOM      6  C   UNL     1       0.222  10.875  20.790  0.00  0.00    +0.000 A 
ATOM      7  C   UNL     1      -0.234  10.834  22.101  0.00  0.00    +0.000 A 
ATOM      8  C   UNL     1      -0.055   9.677  22.846  0.00  0.00    +0.000 A 
ATOM      9  C   UNL     1       0.582   8.560  22.284  0.00  0.00    +0.000 A 
ATOM     10  C   UNL     1       1.060   8.571  20.958  0.00  0.00    +0.000 A 
ATOM     11  C   UNL     1       1.748   7.417  20.325  0.00  0.00    +0.000 C 
ATOM     12  C   UNL     1       2.191   7.441  19.048  0.00  0.00    +0.000 C 
ENDROOT
BRANCH  12  13
ATOM     13  C   UNL     1       2.857   6.259  18.454  0.00  0.00    +0.000 A 
ATOM     14  C   UNL     1       2.093   5.180  17.988  0.00  0.00    +0.000 A 
ATOM     15  C   UNL     1       2.718   4.028  17.503  0.00  0.00    +0.000 A 
ATOM     16  C   UNL     1       4.109   3.952  17.459  0.00  0.00    +0.000 A 
ATOM     17  C   UNL     1       4.876   5.033  17.888  0.00  0.00    +0.000 A 
ATOM     18  C   UNL     1       4.255   6.183  18.384  0.00  0.00    +0.000 A 
ENDBRANCH  12  13
BRANCH  11  19
ATOM     19  O   UNL     1       1.941   6.270  21.080  0.00  0.00    +0.000 OA
ATOM     20  H   UNL     1       1.148   5.719  21.125  0.00  0.00    +0.000 HD
ENDBRANCH  11  19
TORSDOF 2
ENDMDL
