MODEL 1
REMARK VINA RESULT:      -5.9      0.000      0.000
REMARK  Name = 
REMARK  3 active torsions:
REMARK  status: ('A' for Active; 'I' for Inactive)
REMARK    1  A    between atoms: C_2  and  C_3
REMARK    2  A    between atoms: N_11  and  C_12
REMARK    3  A    between atoms: C_12  and  C_13
REMARK                            x       y       z     vdW  Elec       q    Type
REMARK                         _______ _______ _______ _____ _____    ______ ____
ROOT
ATOM      1  O   UNL     1       4.865   2.969  19.395  0.00  0.00    +0.000 OA
ATOM      2  C   UNL     1       4.758   4.012  18.748  0.00  0.00    +0.000 C 
ATOM      3  N   UNL     1       3.927   5.042  19.216  0.00  0.00    +0.000 N 
ATOM      4  C   UNL     1       3.708   6.343  18.566  0.00  0.00    +0.000 C 
ATOM      5  C   UNL     1       2.222   6.756  18.538  0.00  0.00    +0.000 C 
ATOM      6  N   UNL     1       1.528   6.653  19.838  0.00  0.00    +0.000 NA
ATOM      7  C   UNL     1       1.730   5.277  20.354  0.00  0.00    +0.000 C 
ATOM      8  C   UNL     1       3.207   4.855  20.482  0.00  0.00    +0.000 C 
ENDROOT
BRANCH   2   9
ATOM      9  C   UNL     1       5.433   4.193  17.472  0.00  0.00    +0.000 A 
ATOM     10  C   UNL     1       4.999   3.989  16.176  0.00  0.00    +0.000 A 
ATOM     11  C   UNL     1       6.047   4.134  15.221  0.00  0.00    +0.000 A 
ATOM     12  C   UNL     1       7.208   4.587  15.801  0.00  0.00    +0.000 A 
ATOM     13  S   UNL     1       7.043   4.799  17.488  0.00  0.00    +0.000 S 
ENDBRANCH   2   9
BRANCH   6  14
ATOM     14  C   UNL     1       2.011   7.701  20.754  0.00  0.00    +0.000 C 
BRANCH  14  15
ATOM     15  C   UNL     1       1.008   8.789  21.038  0.00  0.00    +0.000 A 
ATOM     16  C   UNL     1       0.575   9.034  22.346  0.00  0.00    +0.000 A 
ATOM     17  C   UNL     1      -0.312  10.074  22.568  0.00  0.00    +0.000 A 
ATOM     18  N   UNL     1      -0.792  10.873  21.591  0.00  0.00    +0.000 NA
ATOM     19  C   UNL     1      -0.371  10.614  20.335  0.00  0.00    +0.000 A 
ATOM     20  C   UNL     1       0.515   9.596  20.010  0.00  0.00    +0.000 A 
ENDBRANCH  14  15
ENDBRANCH   6  14
TORSDOF 3
ENDMDL
MODEL 2
REMARK VINA RESULT:      -5.9      0.206      1.071
REMARK  Name = 
REMARK  3 active torsions:
REMARK  status: ('A' for Active; 'I' for Inactive)
REMARK    1  A    between atoms: C_2  and  C_3
REMARK    2  A    between atoms: N_11  and  C_12
REMARK    3  A    between atoms: C_12  and  C_13
REMARK                            x       y       z     vdW  Elec       q    Type
REMARK                         _______ _______ _______ _____ _____    ______ ____
ROOT
ATOM      1  O   UNL     1       4.961   3.015  19.174  0.00  0.00    +0.000 OA
ATOM      2  C   UNL     1       4.823   4.059  18.534  0.00  0.00    +0.000 C 
ATOM      3  N   UNL     1       3.993   5.078  19.028  0.00  0.00    +0.000 N 
ATOM      4  C   UNL     1       3.740   6.378  18.387  0.00  0.00    +0.000 C 
ATOM      5  C   UNL     1       2.250   6.773  18.403  0.00  0.00    +0.000 C 
ATOM      6  N   UNL     1       1.594   6.658  19.722  0.00  0.00    +0.000 NA
ATOM      7  C   UNL     1       1.826   5.283  20.227  0.00  0.00    +0.000 C 
ATOM      8  C   UNL     1       3.311   4.878  20.312  0.00  0.00    +0.000 C 
ENDROOT
BRANCH   2   9
ATOM      9  C   UNL     1       5.459   4.251  17.240  0.00  0.00    +0.000 A 
ATOM     10  C   UNL     1       4.973   4.098  15.955  0.00  0.00    +0.000 A 
ATOM     11  C   UNL     1       5.992   4.232  14.967  0.00  0.00    +0.000 A 
ATOM     12  C   UNL     1       7.188   4.628  15.517  0.00  0.00    +0.000 A 
ATOM     13  S   UNL     1       7.090   4.800  17.213  0.00  0.00    +0.000 S 
ENDBRANCH   2   9
BRANCH   6  14
ATOM     14  C   UNL     1       2.089   7.709  20.626  0.00  0.00    +0.000 C 
BRANCH  14  15
ATOM     15  C   UNL     1       1.095   8.806  20.910  0.00  0.00    +0.000 A 
ATOM     16  C   UNL     1       0.627   9.627  19.879  0.00  0.00    +0.000 A 
ATOM     17  C   UNL     1      -0.320  10.592  20.176  0.00  0.00    +0.000 A 
ATOM     18  N   UNL     1      -0.824  10.794  21.412  0.00  0.00    +0.000 NA
ATOM     19  C   UNL     1      -0.353   9.999  22.395  0.00  0.00    +0.000 A 
ATOM     20  C   UNL     1       0.596   9.005  22.199  0.00  0.00    +0.000 A 
ENDBRANCH  14  15
ENDBRANCH   6  14
TORSDOF 3
ENDMDL
MODEL 3
REMARK VINA RESULT:      -5.7      4.258      5.062
REMARK  Name = 
REMARK  3 active torsions:
REMARK  status: ('A' for Active; 'I' for Inactive)
REMARK    1  A    between atoms: C_2  and  C_3
REMARK    2  A    between atoms: N_11  and  C_12
REMARK    3  A    between atoms: C_12  and  C_13
REMARK                            x       y       z     vdW  Elec       q    Type
REMARK                         _______ _______ _______ _____ _____    ______ ____
ROOT
ATOM      1  O   UNL     1       7.820   6.395  15.678  0.00  0.00    +0.000 OA
ATOM      2  C   UNL     1       6.887   5.594  15.613  0.00  0.00    +0.000 C 
ATOM      3  N   UNL     1       6.101   5.341  16.749  0.00  0.00    +0.000 N 
ATOM      4  C   UNL     1       4.951   4.427  16.822  0.00  0.00    +0.000 C 
ATOM      5  C   UNL     1       4.967   3.546  18.087  0.00  0.00    +0.000 C 
ATOM      6  N   UNL     1       5.182   4.282  19.350  0.00  0.00    +0.000 NA
ATOM      7  C   UNL     1       6.416   5.091  19.201  0.00  0.00    +0.000 C 
ATOM      8  C   UNL     1       6.406   6.053  17.996  0.00  0.00    +0.000 C 
ENDROOT
BRANCH   2   9
ATOM      9  C   UNL     1       6.601   4.852  14.395  0.00  0.00    +0.000 A 
ATOM     10  C   UNL     1       5.534   4.044  14.051  0.00  0.00    +0.000 A 
ATOM     11  C   UNL     1       5.736   3.373  12.809  0.00  0.00    +0.000 A 
ATOM     12  C   UNL     1       6.878   3.804  12.176  0.00  0.00    +0.000 A 
ATOM     13  S   UNL     1       7.716   4.977  13.090  0.00  0.00    +0.000 S 
ENDBRANCH   2   9
BRANCH   6  14
ATOM     14  C   UNL     1       3.991   5.083  19.678  0.00  0.00    +0.000 C 
BRANCH  14  15
ATOM     15  C   UNL     1       2.740   4.273  19.904  0.00  0.00    +0.000 A 
ATOM     16  C   UNL     1       1.794   4.124  18.884  0.00  0.00    +0.000 A 
ATOM     17  C   UNL     1       0.681   3.334  19.120  0.00  0.00    +0.000 A 
ATOM     18  N   UNL     1       0.448   2.694  20.285  0.00  0.00    +0.000 NA
ATOM     19  C   UNL     1       1.366   2.859  21.261  0.00  0.00    +0.000 A 
ATOM     20  C   UNL     1       2.513   3.629  21.123  0.00  0.00    +0.000 A 
ENDBRANCH  14  15
ENDBRANCH   6  14
TORSDOF 3
ENDMDL
MODEL 4
REMARK VINA RESULT:      -5.7      3.795      7.545
REMARK  Name = 
REMARK  3 active torsions:
REMARK  status: ('A' for Active; 'I' for Inactive)
REMARK    1  A    between atoms: C_2  and  C_3
REMARK    2  A    between atoms: N_11  and  C_12
REMARK    3  A    between atoms: C_12  and  C_13
REMARK                            x       y       z     vdW  Elec       q    Type
REMARK                         _______ _______ _______ _____ _____    ______ ____
ROOT
ATOM      1  O   UNL     1       0.611  10.116  21.424  0.00  0.00    +0.000 OA
ATOM      2  C   UNL     1       0.825  10.178  20.213  0.00  0.00    +0.000 C 
ATOM      3  N   UNL     1       1.233   9.030  19.515  0.00  0.00    +0.000 N 
ATOM      4  C   UNL     1       1.512   8.945  18.073  0.00  0.00    +0.000 C 
ATOM      5  C   UNL     1       2.801   8.159  17.758  0.00  0.00    +0.000 C 
ATOM      6  N   UNL     1       2.905   6.848  18.430  0.00  0.00    +0.000 NA
ATOM      7  C   UNL     1       2.708   7.065  19.884  0.00  0.00    +0.000 C 
ATOM      8  C   UNL     1       1.386   7.769  20.250  0.00  0.00    +0.000 C 
ENDROOT
BRANCH   2   9
ATOM      9  C   UNL     1       0.718  11.431  19.481  0.00  0.00    +0.000 A 
ATOM     10  C   UNL     1       1.669  12.377  19.152  0.00  0.00    +0.000 A 
ATOM     11  C   UNL     1       1.098  13.545  18.566  0.00  0.00    +0.000 A 
ATOM     12  C   UNL     1      -0.247  13.392  18.331  0.00  0.00    +0.000 A 
ATOM     13  S   UNL     1      -0.821  11.869  18.848  0.00  0.00    +0.000 S 
ENDBRANCH   2   9
BRANCH   6  14
ATOM     14  C   UNL     1       1.944   5.900  17.841  0.00  0.00    +0.000 C 
BRANCH  14  15
ATOM     15  C   UNL     1       2.282   4.449  18.067  0.00  0.00    +0.000 A 
ATOM     16  C   UNL     1       1.387   3.605  18.734  0.00  0.00    +0.000 A 
ATOM     17  C   UNL     1       1.717   2.268  18.880  0.00  0.00    +0.000 A 
ATOM     18  N   UNL     1       2.861   1.723  18.416  0.00  0.00    +0.000 NA
ATOM     19  C   UNL     1       3.716   2.555  17.785  0.00  0.00    +0.000 A 
ATOM     20  C   UNL     1       3.477   3.908  17.590  0.00  0.00    +0.000 A 
ENDBRANCH  14  15
ENDBRANCH   6  14
TORSDOF 3
ENDMDL
MODEL 5
REMARK VINA RESULT:      -5.7      3.782      7.590
REMARK  Name = 
REMARK  3 active torsions:
REMARK  status: ('A' for Active; 'I' for Inactive)
REMARK    1  A    between atoms: C_2  and  C_3
REMARK    2  A    between atoms: N_11  and  C_12
REMARK    3  A    between atoms: C_12  and  C_13
REMARK                            x       y       z     vdW  Elec       q    Type
REMARK                         _______ _______ _______ _____ _____    ______ ____
ROOT
ATOM      1  O   UNL     1       0.713  10.153  21.535  0.00  0.00    +0.000 OA
ATOM      2  C   UNL     1       0.875  10.221  20.315  0.00  0.00    +0.000 C 
ATOM      3  N   UNL     1       1.242   9.075  19.593  0.00  0.00    +0.000 N 
ATOM      4  C   UNL     1       1.459   8.996  18.141  0.00  0.00    +0.000 C 
ATOM      5  C   UNL     1       2.725   8.201  17.766  0.00  0.00    +0.000 C 
ATOM      6  N   UNL     1       2.845   6.884  18.425  0.00  0.00    +0.000 NA
ATOM      7  C   UNL     1       2.712   7.093  19.887  0.00  0.00    +0.000 C 
ATOM      8  C   UNL     1       1.414   7.807  20.314  0.00  0.00    +0.000 C 
ENDROOT
BRANCH   2   9
ATOM      9  C   UNL     1       0.749  11.480  19.597  0.00  0.00    +0.000 A 
ATOM     10  C   UNL     1       1.678  12.461  19.308  0.00  0.00    +0.000 A 
ATOM     11  C   UNL     1       1.087  13.617  18.721  0.00  0.00    +0.000 A 
ATOM     12  C   UNL     1      -0.246  13.425  18.444  0.00  0.00    +0.000 A 
ATOM     13  S   UNL     1      -0.785  11.877  18.924  0.00  0.00    +0.000 S 
ENDBRANCH   2   9
BRANCH   6  14
ATOM     14  C   UNL     1       1.851   5.950  17.872  0.00  0.00    +0.000 C 
BRANCH  14  15
ATOM     15  C   UNL     1       2.202   4.494  18.043  0.00  0.00    +0.000 A 
ATOM     16  C   UNL     1       3.414   3.992  17.557  0.00  0.00    +0.000 A 
ATOM     17  C   UNL     1       3.716   2.658  17.776  0.00  0.00    +0.000 A 
ATOM     18  N   UNL     1       2.905   1.803  18.434  0.00  0.00    +0.000 NA
ATOM     19  C   UNL     1       1.736   2.303  18.886  0.00  0.00    +0.000 A 
ATOM     20  C   UNL     1       1.342   3.624  18.716  0.00  0.00    +0.000 A 
ENDBRANCH  14  15
ENDBRANCH   6  14
TORSDOF 3
ENDMDL
MODEL 6
REMARK VINA RESULT:      -5.7      3.759      5.448
REMARK  Name = 
REMARK  3 active torsions:
REMARK  status: ('A' for Active; 'I' for Inactive)
REMARK    1  A    between atoms: C_2  and  C_3
REMARK    2  A    between atoms: N_11  and  C_12
REMARK    3  A    between atoms: C_12  and  C_13
REMARK                            x       y       z     vdW  Elec       q    Type
REMARK                         _______ _______ _______ _____ _____    ______ ____
ROOT
ATOM      1  O   UNL     1       7.900   5.408  13.783  0.00  0.00    +0.000 OA
ATOM      2  C   UNL     1       6.852   4.805  14.019  0.00  0.00    +0.000 C 
ATOM      3  N   UNL     1       6.299   4.841  15.309  0.00  0.00    +0.000 N 
ATOM      4  C   UNL     1       5.054   4.186  15.739  0.00  0.00    +0.000 C 
ATOM      5  C   UNL     1       5.193   3.467  17.095  0.00  0.00    +0.000 C 
ATOM      6  N   UNL     1       5.798   4.283  18.168  0.00  0.00    +0.000 NA
ATOM      7  C   UNL     1       7.090   4.809  17.665  0.00  0.00    +0.000 C 
ATOM      8  C   UNL     1       6.983   5.613  16.354  0.00  0.00    +0.000 C 
ENDROOT
BRANCH   2   9
ATOM      9  C   UNL     1       6.187   4.002  13.004  0.00  0.00    +0.000 A 
ATOM     10  C   UNL     1       4.866   3.958  12.600  0.00  0.00    +0.000 A 
ATOM     11  C   UNL     1       4.613   2.899  11.679  0.00  0.00    +0.000 A 
ATOM     12  C   UNL     1       5.772   2.266  11.297  0.00  0.00    +0.000 A 
ATOM     13  S   UNL     1       7.147   2.919  12.073  0.00  0.00    +0.000 S 
ENDBRANCH   2   9
BRANCH   6  14
ATOM     14  C   UNL     1       4.860   5.334  18.594  0.00  0.00    +0.000 C 
BRANCH  14  15
ATOM     15  C   UNL     1       3.718   4.842  19.446  0.00  0.00    +0.000 A 
ATOM     16  C   UNL     1       3.708   3.532  19.935  0.00  0.00    +0.000 A 
ATOM     17  C   UNL     1       2.662   3.136  20.752  0.00  0.00    +0.000 A 
ATOM     18  N   UNL     1       1.640   3.942  21.107  0.00  0.00    +0.000 NA
ATOM     19  C   UNL     1       1.661   5.199  20.616  0.00  0.00    +0.000 A 
ATOM     20  C   UNL     1       2.663   5.690  19.790  0.00  0.00    +0.000 A 
ENDBRANCH  14  15
ENDBRANCH   6  14
TORSDOF 3
ENDMDL
MODEL 7
REMARK VINA RESULT:      -5.7      3.012      7.908
REMARK  Name = 
REMARK  3 active torsions:
REMARK  status: ('A' for Active; 'I' for Inactive)
REMARK    1  A    between atoms: C_2  and  C_3
REMARK    2  A    between atoms: N_11  and  C_12
REMARK    3  A    between atoms: C_12  and  C_13
REMARK                            x       y       z     vdW  Elec       q    Type
REMARK                         _______ _______ _______ _____ _____    ______ ____
ROOT
ATOM      1  O   UNL     1       2.572   5.560  20.617  0.00  0.00    +0.000 OA
ATOM      2  C   UNL     1       2.716   6.206  19.578  0.00  0.00    +0.000 C 
ATOM      3  N   UNL     1       3.532   5.706  18.550  0.00  0.00    +0.000 N 
ATOM      4  C   UNL     1       3.789   6.353  17.254  0.00  0.00    +0.000 C 
ATOM      5  C   UNL     1       5.277   6.314  16.851  0.00  0.00    +0.000 C 
ATOM      6  N   UNL     1       5.909   4.982  16.951  0.00  0.00    +0.000 NA
ATOM      7  C   UNL     1       5.675   4.469  18.323  0.00  0.00    +0.000 C 
ATOM      8  C   UNL     1       4.190   4.407  18.735  0.00  0.00    +0.000 C 
ENDROOT
BRANCH   2   9
ATOM      9  C   UNL     1       2.103   7.513  19.400  0.00  0.00    +0.000 A 
ATOM     10  C   UNL     1       1.985   8.319  18.284  0.00  0.00    +0.000 A 
ATOM     11  C   UNL     1       1.451   9.604  18.592  0.00  0.00    +0.000 A 
ATOM     12  C   UNL     1       1.042   9.686  19.902  0.00  0.00    +0.000 A 
ATOM     13  S   UNL     1       1.335   8.238  20.759  0.00  0.00    +0.000 S 
ENDBRANCH   2   9
BRANCH   6  14
ATOM     14  C   UNL     1       5.391   4.096  15.895  0.00  0.00    +0.000 C 
BRANCH  14  15
ATOM     15  C   UNL     1       6.086   4.240  14.565  0.00  0.00    +0.000 A 
ATOM     16  C   UNL     1       7.230   5.036  14.443  0.00  0.00    +0.000 A 
ATOM     17  C   UNL     1       7.864   5.103  13.213  0.00  0.00    +0.000 A 
ATOM     18  N   UNL     1       7.441   4.444  12.114  0.00  0.00    +0.000 NA
ATOM     19  C   UNL     1       6.331   3.690  12.249  0.00  0.00    +0.000 A 
ATOM     20  C   UNL     1       5.625   3.558  13.438  0.00  0.00    +0.000 A 
ENDBRANCH  14  15
ENDBRANCH   6  14
TORSDOF 3
ENDMDL
MODEL 8
REMARK VINA RESULT:      -5.6      3.147      7.635
REMARK  Name = 
REMARK  3 active torsions:
REMARK  status: ('A' for Active; 'I' for Inactive)
REMARK    1  A    between atoms: C_2  and  C_3
REMARK    2  A    between atoms: N_11  and  C_12
REMARK    3  A    between atoms: C_12  and  C_13
REMARK                            x       y       z     vdW  Elec       q    Type
REMARK                         _______ _______ _______ _____ _____    ______ ____
ROOT
ATOM      1  O   UNL     1       1.232   9.793  18.410  0.00  0.00    +0.000 OA
ATOM      2  C   UNL     1       1.330   9.096  19.421  0.00  0.00    +0.000 C 
ATOM      3  N   UNL     1       2.105   7.926  19.391  0.00  0.00    +0.000 N 
ATOM      4  C   UNL     1       2.326   7.002  20.514  0.00  0.00    +0.000 C 
ATOM      5  C   UNL     1       2.200   5.521  20.106  0.00  0.00    +0.000 C 
ATOM      6  N   UNL     1       2.975   5.143  18.906  0.00  0.00    +0.000 NA
ATOM      7  C   UNL     1       2.601   6.072  17.812  0.00  0.00    +0.000 C 
ATOM      8  C   UNL     1       2.797   7.564  18.148  0.00  0.00    +0.000 C 
ENDROOT
BRANCH   2   9
ATOM      9  C   UNL     1       0.615   9.421  20.645  0.00  0.00    +0.000 A 
ATOM     10  C   UNL     1      -0.027   8.615  21.566  0.00  0.00    +0.000 A 
ATOM     11  C   UNL     1      -0.746   9.366  22.541  0.00  0.00    +0.000 A 
ATOM     12  C   UNL     1      -0.508  10.715  22.424  0.00  0.00    +0.000 A 
ATOM     13  S   UNL     1       0.542  11.072  21.125  0.00  0.00    +0.000 S 
ENDBRANCH   2   9
BRANCH   6  14
ATOM     14  C   UNL     1       4.415   5.144  19.213  0.00  0.00    +0.000 C 
BRANCH  14  15
ATOM     15  C   UNL     1       5.310   5.094  18.001  0.00  0.00    +0.000 A 
ATOM     16  C   UNL     1       6.283   6.078  17.793  0.00  0.00    +0.000 A 
ATOM     17  C   UNL     1       7.114   5.968  16.691  0.00  0.00    +0.000 A 
ATOM     18  N   UNL     1       7.042   4.962  15.794  0.00  0.00    +0.000 NA
ATOM     19  C   UNL     1       6.090   4.029  16.005  0.00  0.00    +0.000 A 
ATOM     20  C   UNL     1       5.210   4.050  17.078  0.00  0.00    +0.000 A 
ENDBRANCH  14  15
ENDBRANCH   6  14
TORSDOF 3
ENDMDL
MODEL 9
REMARK VINA RESULT:      -5.6      3.038      4.142
REMARK  Name = 
REMARK  3 active torsions:
REMARK  status: ('A' for Active; 'I' for Inactive)
REMARK    1  A    between atoms: C_2  and  C_3
REMARK    2  A    between atoms: N_11  and  C_12
REMARK    3  A    between atoms: C_12  and  C_13
REMARK                            x       y       z     vdW  Elec       q    Type
REMARK                         _______ _______ _______ _____ _____    ______ ____
ROOT
ATOM      1  O   UNL     1       1.811   5.915  20.993  0.00  0.00    +0.000 OA
ATOM      2  C   UNL     1       2.150   6.273  19.864  0.00  0.00    +0.000 C 
ATOM      3  N   UNL     1       2.028   7.621  19.491  0.00  0.00    +0.000 N 
ATOM      4  C   UNL     1       2.400   8.199  18.190  0.00  0.00    +0.000 C 
ATOM      5  C   UNL     1       1.338   9.172  17.642  0.00  0.00    +0.000 C 
ATOM      6  N   UNL     1       0.885  10.198  18.604  0.00  0.00    +0.000 NA
ATOM      7  C   UNL     1       0.440   9.501  19.835  0.00  0.00    +0.000 C 
ATOM      8  C   UNL     1       1.505   8.583  20.468  0.00  0.00    +0.000 C 
ENDROOT
BRANCH   2   9
ATOM      9  C   UNL     1       2.630   5.322  18.873  0.00  0.00    +0.000 A 
ATOM     10  C   UNL     1       1.964   4.623  17.885  0.00  0.00    +0.000 A 
ATOM     11  C   UNL     1       2.797   3.663  17.239  0.00  0.00    +0.000 A 
ATOM     12  C   UNL     1       4.105   3.763  17.650  0.00  0.00    +0.000 A 
ATOM     13  S   UNL     1       4.316   4.978  18.832  0.00  0.00    +0.000 S 
ENDBRANCH   2   9
BRANCH   6  14
ATOM     14  C   UNL     1       1.956  11.180  18.838  0.00  0.00    +0.000 C 
BRANCH  14  15
ATOM     15  C   UNL     1       1.503  12.617  18.793  0.00  0.00    +0.000 A 
ATOM     16  C   UNL     1       0.141  12.934  18.744  0.00  0.00    +0.000 A 
ATOM     17  C   UNL     1      -0.232  14.267  18.750  0.00  0.00    +0.000 A 
ATOM     18  N   UNL     1       0.645  15.292  18.799  0.00  0.00    +0.000 NA
ATOM     19  C   UNL     1       1.955  14.967  18.835  0.00  0.00    +0.000 A 
ATOM     20  C   UNL     1       2.429  13.662  18.832  0.00  0.00    +0.000 A 
ENDBRANCH  14  15
ENDBRANCH   6  14
TORSDOF 3
ENDMDL
