MODEL 1
REMARK VINA RESULT:      -9.2      0.000      0.000
REMARK  Name = 
REMARK  6 active torsions:
REMARK  status: ('A' for Active; 'I' for Inactive)
REMARK    1  A    between atoms: C_1  and  N_2
REMARK    2  A    between atoms: C_6  and  C_7
REMARK    3  A    between atoms: C_7  and  O_8
REMARK    4  A    between atoms: O_8  and  C_9
REMARK    5  A    between atoms: C_12  and  C_13
REMARK    6  A    between atoms: C_24  and  C_25
REMARK                            x       y       z     vdW  Elec       q    Type
REMARK                         _______ _______ _______ _____ _____    ______ ____
ROOT
ATOM      1  C   UNL     1       2.739   6.354  19.941  0.00  0.00    +0.000 A 
ATOM      2  N   UNL     1       1.910   7.247  20.489  0.00  0.00    +0.000 NA
ATOM      3  N   UNL     1       1.861   8.230  19.566  0.00  0.00    +0.000 N 
ATOM      4  C   UNL     1       1.155   9.433  19.708  0.00  0.00    +0.000 A 
ATOM      5  N   UNL     1       1.118  10.254  18.688  0.00  0.00    +0.000 NA
ATOM      6  N   UNL     1       1.824   9.978  17.494  0.00  0.00    +0.000 NA
ATOM      7  C   UNL     1       2.502   8.879  17.378  0.00  0.00    +0.000 A 
ATOM      8  C   UNL     1       2.520   7.909  18.419  0.00  0.00    +0.000 A 
ATOM      9  C   UNL     1       3.068   6.652  18.593  0.00  0.00    +0.000 A 
ENDROOT
BRANCH   4  10
ATOM     10  C   UNL     1       0.422   9.853  20.930  0.00  0.00    +0.000 A 
ATOM     11  C   UNL     1       0.675   9.173  22.133  0.00  0.00    +0.000 A 
ATOM     12  C   UNL     1      -0.055   9.475  23.284  0.00  0.00    +0.000 A 
ATOM     13  C   UNL     1      -1.039  10.462  23.244  0.00  0.00    +0.000 A 
ATOM     14  C   UNL     1      -1.302  11.134  22.051  0.00  0.00    +0.000 A 
ATOM     15  C   UNL     1      -0.583  10.818  20.898  0.00  0.00    +0.000 A 
ATOM     16  F   UNL     1      -0.944  11.414  19.754  0.00  0.00    +0.000 F 
ENDBRANCH   4  10
BRANCH   9  17
ATOM     17  C   UNL     1       3.828   5.918  17.592  0.00  0.00    +0.000 A 
ATOM     18  C   UNL     1       3.558   4.568  17.325  0.00  0.00    +0.000 A 
ATOM     19  C   UNL     1       4.298   3.874  16.360  0.00  0.00    +0.000 A 
ATOM     20  C   UNL     1       5.314   4.524  15.669  0.00  0.00    +0.000 A 
ATOM     21  F   UNL     1       6.029   3.856  14.755  0.00  0.00    +0.000 F 
ATOM     22  C   UNL     1       5.590   5.861  15.906  0.00  0.00    +0.000 A 
ATOM     23  C   UNL     1       4.837   6.560  16.851  0.00  0.00    +0.000 A 
ENDBRANCH   9  17
BRANCH   1  24
ATOM     24  O   UNL     1       3.131   5.269  20.652  0.00  0.00    +0.000 OA
BRANCH  24  25
ATOM     25  C   UNL     1       2.039   4.496  21.163  0.00  0.00    +0.000 C 
BRANCH  25  31
ATOM     26  C   UNL     1       3.998   2.235  20.228  0.00  0.00    +0.000 C 
ATOM     27  N   UNL     1       2.643   2.446  19.789  0.00  0.00    +0.000 N 
ATOM     28  N   UNL     1       2.104   1.633  18.859  0.00  0.00    +0.000 NA
ATOM     29  C   UNL     1       0.881   2.148  18.732  0.00  0.00    +0.000 A 
ATOM     30  N   UNL     1       0.624   3.231  19.519  0.00  0.00    +0.000 NA
ATOM     31  C   UNL     1       1.752   3.408  20.184  0.00  0.00    +0.000 A 
ENDBRANCH  25  31
ENDBRANCH  24  25
ENDBRANCH   1  24
TORSDOF 5
ENDMDL
MODEL 2
REMARK VINA RESULT:      -9.0      0.817      1.299
REMARK  Name = 
REMARK  6 active torsions:
REMARK  status: ('A' for Active; 'I' for Inactive)
REMARK    1  A    between atoms: C_1  and  N_2
REMARK    2  A    between atoms: C_6  and  C_7
REMARK    3  A    between atoms: C_7  and  O_8
REMARK    4  A    between atoms: O_8  and  C_9
REMARK    5  A    between atoms: C_12  and  C_13
REMARK    6  A    between atoms: C_24  and  C_25
REMARK                            x       y       z     vdW  Elec       q    Type
REMARK                         _______ _______ _______ _____ _____    ______ ____
ROOT
ATOM      1  C   UNL     1       2.366   6.273  20.440  0.00  0.00    +0.000 A 
ATOM      2  N   UNL     1       1.568   7.266  20.842  0.00  0.00    +0.000 NA
ATOM      3  N   UNL     1       1.698   8.183  19.860  0.00  0.00    +0.000 N 
ATOM      4  C   UNL     1       1.089   9.446  19.854  0.00  0.00    +0.000 A 
ATOM      5  N   UNL     1       1.224  10.195  18.788  0.00  0.00    +0.000 NA
ATOM      6  N   UNL     1       2.019   9.779  17.693  0.00  0.00    +0.000 NA
ATOM      7  C   UNL     1       2.606   8.624  17.716  0.00  0.00    +0.000 A 
ATOM      8  C   UNL     1       2.436   7.731  18.810  0.00  0.00    +0.000 A 
ATOM      9  C   UNL     1       2.851   6.448  19.117  0.00  0.00    +0.000 A 
ENDROOT
BRANCH   4  10
ATOM     10  C   UNL     1       0.278  10.009  20.965  0.00  0.00    +0.000 A 
ATOM     11  C   UNL     1       0.407   9.442  22.245  0.00  0.00    +0.000 A 
ATOM     12  C   UNL     1      -0.400   9.881  23.297  0.00  0.00    +0.000 A 
ATOM     13  C   UNL     1      -1.337  10.889  23.081  0.00  0.00    +0.000 A 
ATOM     14  C   UNL     1      -1.477  11.449  21.811  0.00  0.00    +0.000 A 
ATOM     15  C   UNL     1      -0.681  10.998  20.757  0.00  0.00    +0.000 A 
ATOM     16  F   UNL     1      -0.925  11.489  19.535  0.00  0.00    +0.000 F 
ENDBRANCH   4  10
BRANCH   9  17
ATOM     17  C   UNL     1       3.639   5.587  18.247  0.00  0.00    +0.000 A 
ATOM     18  C   UNL     1       3.025   4.778  17.282  0.00  0.00    +0.000 A 
ATOM     19  C   UNL     1       3.795   3.954  16.452  0.00  0.00    +0.000 A 
ATOM     20  C   UNL     1       5.178   3.929  16.595  0.00  0.00    +0.000 A 
ATOM     21  F   UNL     1       5.913   3.131  15.811  0.00  0.00    +0.000 F 
ATOM     22  C   UNL     1       5.809   4.729  17.534  0.00  0.00    +0.000 A 
ATOM     23  C   UNL     1       5.042   5.569  18.345  0.00  0.00    +0.000 A 
ENDBRANCH   9  17
BRANCH   1  24
ATOM     24  O   UNL     1       2.589   5.212  21.252  0.00  0.00    +0.000 OA
BRANCH  24  25
ATOM     25  C   UNL     1       1.736   4.095  20.982  0.00  0.00    +0.000 C 
BRANCH  25  31
ATOM     26  C   UNL     1       0.714   2.203  18.701  0.00  0.00    +0.000 C 
ATOM     27  N   UNL     1       2.044   2.261  19.249  0.00  0.00    +0.000 N 
ATOM     28  N   UNL     1       2.995   1.423  18.794  0.00  0.00    +0.000 NA
ATOM     29  C   UNL     1       4.044   1.783  19.535  0.00  0.00    +0.000 A 
ATOM     30  N   UNL     1       3.808   2.789  20.424  0.00  0.00    +0.000 NA
ATOM     31  C   UNL     1       2.533   3.082  20.231  0.00  0.00    +0.000 A 
ENDBRANCH  25  31
ENDBRANCH  24  25
ENDBRANCH   1  24
TORSDOF 5
ENDMDL
MODEL 3
REMARK VINA RESULT:      -9.0      1.166      1.891
REMARK  Name = 
REMARK  6 active torsions:
REMARK  status: ('A' for Active; 'I' for Inactive)
REMARK    1  A    between atoms: C_1  and  N_2
REMARK    2  A    between atoms: C_6  and  C_7
REMARK    3  A    between atoms: C_7  and  O_8
REMARK    4  A    between atoms: O_8  and  C_9
REMARK    5  A    between atoms: C_12  and  C_13
REMARK    6  A    between atoms: C_24  and  C_25
REMARK                            x       y       z     vdW  Elec       q    Type
REMARK                         _______ _______ _______ _____ _____    ______ ____
ROOT
ATOM      1  C   UNL     1       2.267   6.304  20.414  0.00  0.00    +0.000 A 
ATOM      2  N   UNL     1       1.440   7.287  20.782  0.00  0.00    +0.000 NA
ATOM      3  N   UNL     1       1.617   8.216  19.817  0.00  0.00    +0.000 N 
ATOM      4  C   UNL     1       1.000   9.474  19.790  0.00  0.00    +0.000 A 
ATOM      5  N   UNL     1       1.189  10.235  18.740  0.00  0.00    +0.000 NA
ATOM      6  N   UNL     1       2.046   9.836  17.687  0.00  0.00    +0.000 NA
ATOM      7  C   UNL     1       2.640   8.684  17.731  0.00  0.00    +0.000 A 
ATOM      8  C   UNL     1       2.416   7.779  18.805  0.00  0.00    +0.000 A 
ATOM      9  C   UNL     1       2.823   6.497  19.123  0.00  0.00    +0.000 A 
ENDROOT
BRANCH   4  10
ATOM     10  C   UNL     1       0.124  10.020  20.859  0.00  0.00    +0.000 A 
ATOM     11  C   UNL     1      -0.885  10.930  20.502  0.00  0.00    +0.000 A 
ATOM     12  C   UNL     1      -1.672  11.535  21.484  0.00  0.00    +0.000 A 
ATOM     13  C   UNL     1      -1.460  11.233  22.828  0.00  0.00    +0.000 A 
ATOM     14  C   UNL     1      -0.454  10.337  23.191  0.00  0.00    +0.000 A 
ATOM     15  C   UNL     1       0.342   9.747  22.209  0.00  0.00    +0.000 A 
ATOM     16  F   UNL     1       1.362   8.978  22.611  0.00  0.00    +0.000 F 
ENDBRANCH   4  10
BRANCH   9  17
ATOM     17  C   UNL     1       3.665   5.650  18.290  0.00  0.00    +0.000 A 
ATOM     18  C   UNL     1       5.055   5.612  18.469  0.00  0.00    +0.000 A 
ATOM     19  C   UNL     1       5.852   4.793  17.660  0.00  0.00    +0.000 A 
ATOM     20  C   UNL     1       5.264   4.021  16.665  0.00  0.00    +0.000 A 
ATOM     21  F   UNL     1       6.028   3.249  15.884  0.00  0.00    +0.000 F 
ATOM     22  C   UNL     1       3.891   4.033  16.477  0.00  0.00    +0.000 A 
ATOM     23  C   UNL     1       3.093   4.831  17.300  0.00  0.00    +0.000 A 
ENDBRANCH   9  17
BRANCH   1  24
ATOM     24  O   UNL     1       2.452   5.237  21.228  0.00  0.00    +0.000 OA
BRANCH  24  25
ATOM     25  C   UNL     1       1.618   4.119  20.903  0.00  0.00    +0.000 C 
BRANCH  25  31
ATOM     26  C   UNL     1       0.710   2.180  18.615  0.00  0.00    +0.000 C 
ATOM     27  N   UNL     1       2.019   2.270  19.207  0.00  0.00    +0.000 N 
ATOM     28  N   UNL     1       3.001   1.445  18.794  0.00  0.00    +0.000 NA
ATOM     29  C   UNL     1       4.017   1.835  19.565  0.00  0.00    +0.000 A 
ATOM     30  N   UNL     1       3.732   2.846  20.432  0.00  0.00    +0.000 NA
ATOM     31  C   UNL     1       2.460   3.112  20.193  0.00  0.00    +0.000 A 
ENDBRANCH  25  31
ENDBRANCH  24  25
ENDBRANCH   1  24
TORSDOF 5
ENDMDL
MODEL 4
REMARK VINA RESULT:      -9.0      0.856      1.213
REMARK  Name = 
REMARK  6 active torsions:
REMARK  status: ('A' for Active; 'I' for Inactive)
REMARK    1  A    between atoms: C_1  and  N_2
REMARK    2  A    between atoms: C_6  and  C_7
REMARK    3  A    between atoms: C_7  and  O_8
REMARK    4  A    between atoms: O_8  and  C_9
REMARK    5  A    between atoms: C_12  and  C_13
REMARK    6  A    between atoms: C_24  and  C_25
REMARK                            x       y       z     vdW  Elec       q    Type
REMARK                         _______ _______ _______ _____ _____    ______ ____
ROOT
ATOM      1  C   UNL     1       2.659   6.345  19.968  0.00  0.00    +0.000 A 
ATOM      2  N   UNL     1       1.800   7.225  20.489  0.00  0.00    +0.000 NA
ATOM      3  N   UNL     1       1.798   8.227  19.585  0.00  0.00    +0.000 N 
ATOM      4  C   UNL     1       1.082   9.425  19.714  0.00  0.00    +0.000 A 
ATOM      5  N   UNL     1       1.096  10.268  18.711  0.00  0.00    +0.000 NA
ATOM      6  N   UNL     1       1.865  10.017  17.550  0.00  0.00    +0.000 NA
ATOM      7  C   UNL     1       2.551   8.922  17.447  0.00  0.00    +0.000 A 
ATOM      8  C   UNL     1       2.517   7.931  18.468  0.00  0.00    +0.000 A 
ATOM      9  C   UNL     1       3.058   6.671  18.645  0.00  0.00    +0.000 A 
ENDROOT
BRANCH   4  10
ATOM     10  C   UNL     1       0.284   9.820  20.904  0.00  0.00    +0.000 A 
ATOM     11  C   UNL     1      -0.779  10.722  20.731  0.00  0.00    +0.000 A 
ATOM     12  C   UNL     1      -1.498  11.188  21.834  0.00  0.00    +0.000 A 
ATOM     13  C   UNL     1      -1.163  10.754  23.116  0.00  0.00    +0.000 A 
ATOM     14  C   UNL     1      -0.103   9.866  23.295  0.00  0.00    +0.000 A 
ATOM     15  C   UNL     1       0.624   9.415  22.194  0.00  0.00    +0.000 A 
ATOM     16  F   UNL     1       1.698   8.649  22.426  0.00  0.00    +0.000 F 
ENDBRANCH   4  10
BRANCH   9  17
ATOM     17  C   UNL     1       3.872   5.958  17.670  0.00  0.00    +0.000 A 
ATOM     18  C   UNL     1       3.593   4.627  17.330  0.00  0.00    +0.000 A 
ATOM     19  C   UNL     1       4.384   3.955  16.391  0.00  0.00    +0.000 A 
ATOM     20  C   UNL     1       5.461   4.606  15.801  0.00  0.00    +0.000 A 
ATOM     21  F   UNL     1       6.224   3.958  14.914  0.00  0.00    +0.000 F 
ATOM     22  C   UNL     1       5.749   5.926  16.112  0.00  0.00    +0.000 A 
ATOM     23  C   UNL     1       4.945   6.605  17.030  0.00  0.00    +0.000 A 
ENDBRANCH   9  17
BRANCH   1  24
ATOM     24  O   UNL     1       3.016   5.247  20.676  0.00  0.00    +0.000 OA
BRANCH  24  25
ATOM     25  C   UNL     1       1.901   4.462  21.114  0.00  0.00    +0.000 C 
BRANCH  25  31
ATOM     26  C   UNL     1       3.995   2.304  20.230  0.00  0.00    +0.000 C 
ATOM     27  N   UNL     1       2.645   2.450  19.751  0.00  0.00    +0.000 N 
ATOM     28  N   UNL     1       2.174   1.616  18.803  0.00  0.00    +0.000 NA
ATOM     29  C   UNL     1       0.932   2.072  18.641  0.00  0.00    +0.000 A 
ATOM     30  N   UNL     1       0.599   3.136  19.423  0.00  0.00    +0.000 NA
ATOM     31  C   UNL     1       1.697   3.365  20.122  0.00  0.00    +0.000 A 
ENDBRANCH  25  31
ENDBRANCH  24  25
ENDBRANCH   1  24
TORSDOF 5
ENDMDL
MODEL 5
REMARK VINA RESULT:      -8.7      3.902      6.343
REMARK  Name = 
REMARK  6 active torsions:
REMARK  status: ('A' for Active; 'I' for Inactive)
REMARK    1  A    between atoms: C_1  and  N_2
REMARK    2  A    between atoms: C_6  and  C_7
REMARK    3  A    between atoms: C_7  and  O_8
REMARK    4  A    between atoms: O_8  and  C_9
REMARK    5  A    between atoms: C_12  and  C_13
REMARK    6  A    between atoms: C_24  and  C_25
REMARK                            x       y       z     vdW  Elec       q    Type
REMARK                         _______ _______ _______ _____ _____    ______ ____
ROOT
ATOM      1  C   UNL     1      -0.228  10.585  19.271  0.00  0.00    +0.000 A 
ATOM      2  N   UNL     1      -0.789  11.391  20.177  0.00  0.00    +0.000 NA
ATOM      3  N   UNL     1      -0.436  10.827  21.352  0.00  0.00    +0.000 N 
ATOM      4  C   UNL     1      -0.839  11.282  22.615  0.00  0.00    +0.000 A 
ATOM      5  N   UNL     1      -0.339  10.695  23.674  0.00  0.00    +0.000 NA
ATOM      6  N   UNL     1       0.531   9.586  23.559  0.00  0.00    +0.000 NA
ATOM      7  C   UNL     1       0.876   9.147  22.388  0.00  0.00    +0.000 A 
ATOM      8  C   UNL     1       0.430   9.788  21.199  0.00  0.00    +0.000 A 
ATOM      9  C   UNL     1       0.649   9.626  19.844  0.00  0.00    +0.000 A 
ENDROOT
BRANCH   4  10
ATOM     10  C   UNL     1      -1.786  12.401  22.858  0.00  0.00    +0.000 A 
ATOM     11  C   UNL     1      -3.160  12.114  22.930  0.00  0.00    +0.000 A 
ATOM     12  C   UNL     1      -4.091  13.145  23.068  0.00  0.00    +0.000 A 
ATOM     13  C   UNL     1      -3.659  14.468  23.139  0.00  0.00    +0.000 A 
ATOM     14  C   UNL     1      -2.298  14.761  23.057  0.00  0.00    +0.000 A 
ATOM     15  C   UNL     1      -1.370  13.730  22.903  0.00  0.00    +0.000 A 
ATOM     16  F   UNL     1      -0.086  14.067  22.722  0.00  0.00    +0.000 F 
ENDBRANCH   4  10
BRANCH   9  17
ATOM     17  C   UNL     1       1.541   8.643  19.245  0.00  0.00    +0.000 A 
ATOM     18  C   UNL     1       1.818   7.430  19.891  0.00  0.00    +0.000 A 
ATOM     19  C   UNL     1       2.678   6.495  19.304  0.00  0.00    +0.000 A 
ATOM     20  C   UNL     1       3.271   6.775  18.079  0.00  0.00    +0.000 A 
ATOM     21  F   UNL     1       4.104   5.886  17.525  0.00  0.00    +0.000 F 
ATOM     22  C   UNL     1       3.004   7.962  17.416  0.00  0.00    +0.000 A 
ATOM     23  C   UNL     1       2.126   8.885  17.989  0.00  0.00    +0.000 A 
ENDBRANCH   9  17
BRANCH   1  24
ATOM     24  O   UNL     1      -0.477  10.771  17.953  0.00  0.00    +0.000 OA
BRANCH  24  25
ATOM     25  C   UNL     1      -1.409   9.830  17.409  0.00  0.00    +0.000 C 
BRANCH  25  31
ATOM     26  C   UNL     1      -2.978  10.237  14.726  0.00  0.00    +0.000 C 
ATOM     27  N   UNL     1      -3.361  10.701  16.034  0.00  0.00    +0.000 N 
ATOM     28  N   UNL     1      -4.494  11.413  16.190  0.00  0.00    +0.000 NA
ATOM     29  C   UNL     1      -4.485  11.645  17.503  0.00  0.00    +0.000 A 
ATOM     30  N   UNL     1      -3.419  11.126  18.175  0.00  0.00    +0.000 NA
ATOM     31  C   UNL     1      -2.714  10.530  17.229  0.00  0.00    +0.000 A 
ENDBRANCH  25  31
ENDBRANCH  24  25
ENDBRANCH   1  24
TORSDOF 5
ENDMDL
MODEL 6
REMARK VINA RESULT:      -8.6      3.934      6.548
REMARK  Name = 
REMARK  6 active torsions:
REMARK  status: ('A' for Active; 'I' for Inactive)
REMARK    1  A    between atoms: C_1  and  N_2
REMARK    2  A    between atoms: C_6  and  C_7
REMARK    3  A    between atoms: C_7  and  O_8
REMARK    4  A    between atoms: O_8  and  C_9
REMARK    5  A    between atoms: C_12  and  C_13
REMARK    6  A    between atoms: C_24  and  C_25
REMARK                            x       y       z     vdW  Elec       q    Type
REMARK                         _______ _______ _______ _____ _____    ______ ____
ROOT
ATOM      1  C   UNL     1      -0.236  10.669  19.311  0.00  0.00    +0.000 A 
ATOM      2  N   UNL     1      -0.805  11.463  20.222  0.00  0.00    +0.000 NA
ATOM      3  N   UNL     1      -0.490  10.867  21.392  0.00  0.00    +0.000 N 
ATOM      4  C   UNL     1      -0.915  11.300  22.655  0.00  0.00    +0.000 A 
ATOM      5  N   UNL     1      -0.450  10.680  23.712  0.00  0.00    +0.000 NA
ATOM      6  N   UNL     1       0.403   9.559  23.591  0.00  0.00    +0.000 NA
ATOM      7  C   UNL     1       0.769   9.141  22.419  0.00  0.00    +0.000 A 
ATOM      8  C   UNL     1       0.363   9.817  21.235  0.00  0.00    +0.000 A 
ATOM      9  C   UNL     1       0.610   9.682  19.882  0.00  0.00    +0.000 A 
ENDROOT
BRANCH   4  10
ATOM     10  C   UNL     1      -1.849  12.429  22.902  0.00  0.00    +0.000 A 
ATOM     11  C   UNL     1      -3.226  12.159  22.967  0.00  0.00    +0.000 A 
ATOM     12  C   UNL     1      -4.145  13.201  23.108  0.00  0.00    +0.000 A 
ATOM     13  C   UNL     1      -3.696  14.519  23.189  0.00  0.00    +0.000 A 
ATOM     14  C   UNL     1      -2.331  14.794  23.115  0.00  0.00    +0.000 A 
ATOM     15  C   UNL     1      -1.416  13.753  22.957  0.00  0.00    +0.000 A 
ATOM     16  F   UNL     1      -0.127  14.074  22.784  0.00  0.00    +0.000 F 
ENDBRANCH   4  10
BRANCH   9  17
ATOM     17  C   UNL     1       1.500   8.698  19.282  0.00  0.00    +0.000 A 
ATOM     18  C   UNL     1       2.059   8.907  18.013  0.00  0.00    +0.000 A 
ATOM     19  C   UNL     1       2.912   7.952  17.448  0.00  0.00    +0.000 A 
ATOM     20  C   UNL     1       3.198   6.783  18.145  0.00  0.00    +0.000 A 
ATOM     21  F   UNL     1       4.004   5.865  17.598  0.00  0.00    +0.000 F 
ATOM     22  C   UNL     1       2.668   6.560  19.405  0.00  0.00    +0.000 A 
ATOM     23  C   UNL     1       1.836   7.524  19.979  0.00  0.00    +0.000 A 
ENDBRANCH   9  17
BRANCH   1  24
ATOM     24  O   UNL     1      -0.451  10.890  17.992  0.00  0.00    +0.000 OA
BRANCH  24  25
ATOM     25  C   UNL     1      -1.282  12.026  17.731  0.00  0.00    +0.000 C 
BRANCH  25  31
ATOM     26  C   UNL     1      -4.178  11.970  18.929  0.00  0.00    +0.000 C 
ATOM     27  N   UNL     1      -3.770  11.517  17.625  0.00  0.00    +0.000 N 
ATOM     28  N   UNL     1      -4.677  10.979  16.786  0.00  0.00    +0.000 NA
ATOM     29  C   UNL     1      -3.923  10.697  15.724  0.00  0.00    +0.000 A 
ATOM     30  N   UNL     1      -2.605  11.020  15.847  0.00  0.00    +0.000 NA
ATOM     31  C   UNL     1      -2.523  11.540  17.059  0.00  0.00    +0.000 A 
ENDBRANCH  25  31
ENDBRANCH  24  25
ENDBRANCH   1  24
TORSDOF 5
ENDMDL
MODEL 7
REMARK VINA RESULT:      -8.6      2.971      4.477
REMARK  Name = 
REMARK  6 active torsions:
REMARK  status: ('A' for Active; 'I' for Inactive)
REMARK    1  A    between atoms: C_1  and  N_2
REMARK    2  A    between atoms: C_6  and  C_7
REMARK    3  A    between atoms: C_7  and  O_8
REMARK    4  A    between atoms: O_8  and  C_9
REMARK    5  A    between atoms: C_12  and  C_13
REMARK    6  A    between atoms: C_24  and  C_25
REMARK                            x       y       z     vdW  Elec       q    Type
REMARK                         _______ _______ _______ _____ _____    ______ ____
ROOT
ATOM      1  C   UNL     1       2.956   7.599  17.873  0.00  0.00    +0.000 A 
ATOM      2  N   UNL     1       2.420   8.805  18.082  0.00  0.00    +0.000 NA
ATOM      3  N   UNL     1       1.700   8.631  19.211  0.00  0.00    +0.000 N 
ATOM      4  C   UNL     1       0.897   9.610  19.812  0.00  0.00    +0.000 A 
ATOM      5  N   UNL     1       0.332   9.331  20.960  0.00  0.00    +0.000 NA
ATOM      6  N   UNL     1       0.466   8.054  21.554  0.00  0.00    +0.000 NA
ATOM      7  C   UNL     1       1.184   7.140  20.980  0.00  0.00    +0.000 A 
ATOM      8  C   UNL     1       1.886   7.404  19.772  0.00  0.00    +0.000 A 
ATOM      9  C   UNL     1       2.757   6.704  18.957  0.00  0.00    +0.000 A 
ENDROOT
BRANCH   4  10
ATOM     10  C   UNL     1       0.641  10.964  19.255  0.00  0.00    +0.000 A 
ATOM     11  C   UNL     1       1.599  11.970  19.468  0.00  0.00    +0.000 A 
ATOM     12  C   UNL     1       1.358  13.277  19.040  0.00  0.00    +0.000 A 
ATOM     13  C   UNL     1       0.163  13.589  18.394  0.00  0.00    +0.000 A 
ATOM     14  C   UNL     1      -0.796  12.598  18.189  0.00  0.00    +0.000 A 
ATOM     15  C   UNL     1      -0.561  11.296  18.632  0.00  0.00    +0.000 A 
ATOM     16  F   UNL     1      -1.553  10.405  18.508  0.00  0.00    +0.000 F 
ENDBRANCH   4  10
BRANCH   9  17
ATOM     17  C   UNL     1       3.249   5.358  19.210  0.00  0.00    +0.000 A 
ATOM     18  C   UNL     1       4.614   5.113  19.416  0.00  0.00    +0.000 A 
ATOM     19  C   UNL     1       5.073   3.813  19.658  0.00  0.00    +0.000 A 
ATOM     20  C   UNL     1       4.171   2.756  19.682  0.00  0.00    +0.000 A 
ATOM     21  F   UNL     1       4.613   1.511  19.900  0.00  0.00    +0.000 F 
ATOM     22  C   UNL     1       2.816   2.974  19.493  0.00  0.00    +0.000 A 
ATOM     23  C   UNL     1       2.355   4.274  19.277  0.00  0.00    +0.000 A 
ENDBRANCH   9  17
BRANCH   1  24
ATOM     24  O   UNL     1       3.655   7.358  16.738  0.00  0.00    +0.000 OA
BRANCH  24  25
ATOM     25  C   UNL     1       5.055   7.632  16.860  0.00  0.00    +0.000 C 
BRANCH  25  31
ATOM     26  C   UNL     1       7.650   6.304  18.011  0.00  0.00    +0.000 C 
ATOM     27  N   UNL     1       6.942   5.931  16.814  0.00  0.00    +0.000 N 
ATOM     28  N   UNL     1       7.404   4.924  16.047  0.00  0.00    +0.000 NA
ATOM     29  C   UNL     1       6.498   4.898  15.069  0.00  0.00    +0.000 A 
ATOM     30  N   UNL     1       5.504   5.824  15.175  0.00  0.00    +0.000 NA
ATOM     31  C   UNL     1       5.800   6.472  16.288  0.00  0.00    +0.000 A 
ENDBRANCH  25  31
ENDBRANCH  24  25
ENDBRANCH   1  24
TORSDOF 5
ENDMDL
MODEL 8
REMARK VINA RESULT:      -8.4      3.943      6.411
REMARK  Name = 
REMARK  6 active torsions:
REMARK  status: ('A' for Active; 'I' for Inactive)
REMARK    1  A    between atoms: C_1  and  N_2
REMARK    2  A    between atoms: C_6  and  C_7
REMARK    3  A    between atoms: C_7  and  O_8
REMARK    4  A    between atoms: O_8  and  C_9
REMARK    5  A    between atoms: C_12  and  C_13
REMARK    6  A    between atoms: C_24  and  C_25
REMARK                            x       y       z     vdW  Elec       q    Type
REMARK                         _______ _______ _______ _____ _____    ______ ____
ROOT
ATOM      1  C   UNL     1      -0.244  10.503  19.130  0.00  0.00    +0.000 A 
ATOM      2  N   UNL     1      -0.829  11.354  19.978  0.00  0.00    +0.000 NA
ATOM      3  N   UNL     1      -0.491  10.864  21.189  0.00  0.00    +0.000 N 
ATOM      4  C   UNL     1      -0.920  11.387  22.416  0.00  0.00    +0.000 A 
ATOM      5  N   UNL     1      -0.434  10.868  23.516  0.00  0.00    +0.000 NA
ATOM      6  N   UNL     1       0.449   9.763  23.481  0.00  0.00    +0.000 NA
ATOM      7  C   UNL     1       0.818   9.260  22.344  0.00  0.00    +0.000 A 
ATOM      8  C   UNL     1       0.388   9.827  21.112  0.00  0.00    +0.000 A 
ATOM      9  C   UNL     1       0.631   9.588  19.772  0.00  0.00    +0.000 A 
ENDROOT
BRANCH   4  10
ATOM     10  C   UNL     1      -1.882  12.509  22.578  0.00  0.00    +0.000 A 
ATOM     11  C   UNL     1      -1.575  13.746  21.987  0.00  0.00    +0.000 A 
ATOM     12  C   UNL     1      -2.406  14.850  22.188  0.00  0.00    +0.000 A 
ATOM     13  C   UNL     1      -3.550  14.727  22.975  0.00  0.00    +0.000 A 
ATOM     14  C   UNL     1      -3.855  13.503  23.572  0.00  0.00    +0.000 A 
ATOM     15  C   UNL     1      -3.014  12.406  23.384  0.00  0.00    +0.000 A 
ATOM     16  F   UNL     1      -3.290  11.284  24.062  0.00  0.00    +0.000 F 
ENDBRANCH   4  10
BRANCH   9  17
ATOM     17  C   UNL     1       1.543   8.582  19.247  0.00  0.00    +0.000 A 
ATOM     18  C   UNL     1       2.173   8.753  18.007  0.00  0.00    +0.000 A 
ATOM     19  C   UNL     1       3.047   7.776  17.515  0.00  0.00    +0.000 A 
ATOM     20  C   UNL     1       3.282   6.624  18.255  0.00  0.00    +0.000 A 
ATOM     21  F   UNL     1       4.108   5.685  17.777  0.00  0.00    +0.000 F 
ATOM     22  C   UNL     1       2.681   6.438  19.489  0.00  0.00    +0.000 A 
ATOM     23  C   UNL     1       1.828   7.423  19.992  0.00  0.00    +0.000 A 
ENDBRANCH   9  17
BRANCH   1  24
ATOM     24  O   UNL     1      -0.472  10.610  17.799  0.00  0.00    +0.000 OA
BRANCH  24  25
ATOM     25  C   UNL     1      -1.452   9.687  17.311  0.00  0.00    +0.000 C 
BRANCH  25  31
ATOM     26  C   UNL     1      -2.972  10.194  14.618  0.00  0.00    +0.000 C 
ATOM     27  N   UNL     1      -3.357  10.646  15.929  0.00  0.00    +0.000 N 
ATOM     28  N   UNL     1      -4.468  11.392  16.084  0.00  0.00    +0.000 NA
ATOM     29  C   UNL     1      -4.469  11.599  17.401  0.00  0.00    +0.000 A 
ATOM     30  N   UNL     1      -3.429  11.034  18.077  0.00  0.00    +0.000 NA
ATOM     31  C   UNL     1      -2.732  10.432  17.129  0.00  0.00    +0.000 A 
ENDBRANCH  25  31
ENDBRANCH  24  25
ENDBRANCH   1  24
TORSDOF 5
ENDMDL
MODEL 9
REMARK VINA RESULT:      -8.2      3.990      6.422
REMARK  Name = 
REMARK  6 active torsions:
REMARK  status: ('A' for Active; 'I' for Inactive)
REMARK    1  A    between atoms: C_1  and  N_2
REMARK    2  A    between atoms: C_6  and  C_7
REMARK    3  A    between atoms: C_7  and  O_8
REMARK    4  A    between atoms: O_8  and  C_9
REMARK    5  A    between atoms: C_12  and  C_13
REMARK    6  A    between atoms: C_24  and  C_25
REMARK                            x       y       z     vdW  Elec       q    Type
REMARK                         _______ _______ _______ _____ _____    ______ ____
ROOT
ATOM      1  C   UNL     1      -0.355  10.470  19.141  0.00  0.00    +0.000 A 
ATOM      2  N   UNL     1      -0.955  11.326  19.972  0.00  0.00    +0.000 NA
ATOM      3  N   UNL     1      -0.595  10.875  21.193  0.00  0.00    +0.000 N 
ATOM      4  C   UNL     1      -1.028  11.418  22.410  0.00  0.00    +0.000 A 
ATOM      5  N   UNL     1      -0.519  10.940  23.518  0.00  0.00    +0.000 NA
ATOM      6  N   UNL     1       0.392   9.858  23.503  0.00  0.00    +0.000 NA
ATOM      7  C   UNL     1       0.766   9.337  22.376  0.00  0.00    +0.000 A 
ATOM      8  C   UNL     1       0.311   9.861  21.134  0.00  0.00    +0.000 A 
ATOM      9  C   UNL     1       0.550   9.595  19.798  0.00  0.00    +0.000 A 
ENDROOT
BRANCH   4  10
ATOM     10  C   UNL     1      -2.019  12.517  22.551  0.00  0.00    +0.000 A 
ATOM     11  C   UNL     1      -1.760  13.740  21.910  0.00  0.00    +0.000 A 
ATOM     12  C   UNL     1      -2.619  14.827  22.088  0.00  0.00    +0.000 A 
ATOM     13  C   UNL     1      -3.742  14.700  22.904  0.00  0.00    +0.000 A 
ATOM     14  C   UNL     1      -3.998  13.492  23.552  0.00  0.00    +0.000 A 
ATOM     15  C   UNL     1      -3.130  12.412  23.385  0.00  0.00    +0.000 A 
ATOM     16  F   UNL     1      -3.359  11.309  24.110  0.00  0.00    +0.000 F 
ENDBRANCH   4  10
BRANCH   9  17
ATOM     17  C   UNL     1       1.484   8.600  19.291  0.00  0.00    +0.000 A 
ATOM     18  C   UNL     1       2.141   8.784  18.067  0.00  0.00    +0.000 A 
ATOM     19  C   UNL     1       3.037   7.818  17.591  0.00  0.00    +0.000 A 
ATOM     20  C   UNL     1       3.267   6.665  18.332  0.00  0.00    +0.000 A 
ATOM     21  F   UNL     1       4.113   5.736  17.870  0.00  0.00    +0.000 F 
ATOM     22  C   UNL     1       2.638   6.467  19.551  0.00  0.00    +0.000 A 
ATOM     23  C   UNL     1       1.764   7.441  20.037  0.00  0.00    +0.000 A 
ENDBRANCH   9  17
BRANCH   1  24
ATOM     24  O   UNL     1      -0.596  10.537  17.810  0.00  0.00    +0.000 OA
BRANCH  24  25
ATOM     25  C   UNL     1      -1.493   9.524  17.340  0.00  0.00    +0.000 C 
BRANCH  25  31
ATOM     26  C   UNL     1      -3.910  11.256  18.329  0.00  0.00    +0.000 C 
ATOM     27  N   UNL     1      -3.581  10.923  16.967  0.00  0.00    +0.000 N 
ATOM     28  N   UNL     1      -4.368  11.352  15.962  0.00  0.00    +0.000 NA
ATOM     29  C   UNL     1      -3.742  10.846  14.899  0.00  0.00    +0.000 A 
ATOM     30  N   UNL     1      -2.617  10.128  15.176  0.00  0.00    +0.000 NA
ATOM     31  C   UNL     1      -2.528  10.186  16.494  0.00  0.00    +0.000 A 
ENDBRANCH  25  31
ENDBRANCH  24  25
ENDBRANCH   1  24
TORSDOF 5
ENDMDL
