MODEL 1
REMARK VINA RESULT:      -8.4      0.000      0.000
REMARK  Name = 
REMARK  4 active torsions:
REMARK  status: ('A' for Active; 'I' for Inactive)
REMARK    1  A    between atoms: N_1  and  C_2
REMARK    2  A    between atoms: C_4  and  C_5
REMARK    3  A    between atoms: C_12  and  C_13
REMARK    4  A    between atoms: N_18  and  C_19
REMARK                            x       y       z     vdW  Elec       q    Type
REMARK                         _______ _______ _______ _____ _____    ______ ____
ROOT
ATOM      1  C   UNL     1       6.049   4.972  18.267  0.00  0.00    +0.000 A 
ATOM      2  S   UNL     1       7.066   5.223  16.927  0.00  0.00    +0.000 S 
ATOM      3  C   UNL     1       5.914   4.601  15.821  0.00  0.00    +0.000 A 
ATOM      4  C   UNL     1       4.714   4.376  16.466  0.00  0.00    +0.000 A 
ATOM      5  C   UNL     1       4.763   4.624  17.888  0.00  0.00    +0.000 A 
ENDROOT
BRANCH   5   6
ATOM      6  C   UNL     1       3.620   4.378  18.777  0.00  0.00    +0.000 C 
ATOM      7  O   UNL     1       3.440   3.251  19.235  0.00  0.00    +0.000 OA
ATOM      8  N   UNL     1       2.783   5.438  19.116  0.00  0.00    +0.000 N 
ATOM      9  C   UNL     1       1.827   5.265  20.212  0.00  0.00    +0.000 C 
ATOM     10  C   UNL     1       1.796   6.524  21.102  0.00  0.00    +0.000 C 
ATOM     11  N   UNL     1       1.505   7.701  20.265  0.00  0.00    +0.000 N 
ATOM     12  C   UNL     1       2.426   7.904  19.125  0.00  0.00    +0.000 C 
ATOM     13  C   UNL     1       2.507   6.617  18.279  0.00  0.00    +0.000 C 
BRANCH  11  14
ATOM     14  C   UNL     1       0.749   8.760  20.737  0.00  0.00    +0.000 A 
ATOM     15  C   UNL     1       0.252   9.774  19.906  0.00  0.00    +0.000 A 
ATOM     16  C   UNL     1      -0.436  10.877  20.427  0.00  0.00    +0.000 A 
ATOM     17  C   UNL     1      -0.644  10.988  21.798  0.00  0.00    +0.000 A 
ATOM     18  C   UNL     1      -0.173   9.992  22.643  0.00  0.00    +0.000 A 
ATOM     19  C   UNL     1       0.513   8.896  22.113  0.00  0.00    +0.000 A 
ENDBRANCH  11  14
ENDBRANCH   5   6
BRANCH   3  20
ATOM     20  C   UNL     1       6.284   4.424  14.406  0.00  0.00    +0.000 A 
ATOM     21  C   UNL     1       5.558   3.560  13.567  0.00  0.00    +0.000 A 
ATOM     22  C   UNL     1       5.930   3.364  12.236  0.00  0.00    +0.000 A 
ATOM     23  C   UNL     1       7.026   4.044  11.714  0.00  0.00    +0.000 A 
ATOM     24  C   UNL     1       7.742   4.924  12.521  0.00  0.00    +0.000 A 
ATOM     25  C   UNL     1       7.371   5.117  13.857  0.00  0.00    +0.000 A 
ENDBRANCH   3  20
BRANCH   1  26
ATOM     26  N   UNL     1       6.569   5.129  19.507  0.00  0.00    +0.000 N 
ATOM     27  H   UNL     1       6.177   5.869  20.083  0.00  0.00    +0.000 HD
ATOM     28  H   UNL     1       7.576   5.031  19.623  0.00  0.00    +0.000 HD
ENDBRANCH   1  26
TORSDOF 4
ENDMDL
MODEL 2
REMARK VINA RESULT:      -8.4      0.166      1.339
REMARK  Name = 
REMARK  4 active torsions:
REMARK  status: ('A' for Active; 'I' for Inactive)
REMARK    1  A    between atoms: N_1  and  C_2
REMARK    2  A    between atoms: C_4  and  C_5
REMARK    3  A    between atoms: C_12  and  C_13
REMARK    4  A    between atoms: N_18  and  C_19
REMARK                            x       y       z     vdW  Elec       q    Type
REMARK                         _______ _______ _______ _____ _____    ______ ____
ROOT
ATOM      1  C   UNL     1       5.949   4.742  18.273  0.00  0.00    +0.000 A 
ATOM      2  S   UNL     1       7.029   4.987  16.981  0.00  0.00    +0.000 S 
ATOM      3  C   UNL     1       5.883   4.485  15.809  0.00  0.00    +0.000 A 
ATOM      4  C   UNL     1       4.649   4.307  16.401  0.00  0.00    +0.000 A 
ATOM      5  C   UNL     1       4.660   4.491  17.834  0.00  0.00    +0.000 A 
ENDROOT
BRANCH   5   6
ATOM      6  C   UNL     1       3.472   4.277  18.672  0.00  0.00    +0.000 C 
ATOM      7  O   UNL     1       3.198   3.143  19.058  0.00  0.00    +0.000 OA
ATOM      8  N   UNL     1       2.698   5.374  19.044  0.00  0.00    +0.000 N 
ATOM      9  C   UNL     1       1.695   5.209  20.098  0.00  0.00    +0.000 C 
ATOM     10  C   UNL     1       1.720   6.416  21.057  0.00  0.00    +0.000 C 
ATOM     11  N   UNL     1       1.540   7.656  20.280  0.00  0.00    +0.000 N 
ATOM     12  C   UNL     1       2.513   7.855  19.183  0.00  0.00    +0.000 C 
ATOM     13  C   UNL     1       2.534   6.613  18.267  0.00  0.00    +0.000 C 
BRANCH  11  14
ATOM     14  C   UNL     1       0.843   8.738  20.788  0.00  0.00    +0.000 A 
ATOM     15  C   UNL     1       0.429   8.821  22.125  0.00  0.00    +0.000 A 
ATOM     16  C   UNL     1      -0.349   9.890  22.587  0.00  0.00    +0.000 A 
ATOM     17  C   UNL     1      -0.731  10.904  21.715  0.00  0.00    +0.000 A 
ATOM     18  C   UNL     1      -0.326  10.854  20.388  0.00  0.00    +0.000 A 
ATOM     19  C   UNL     1       0.450   9.782  19.938  0.00  0.00    +0.000 A 
ENDBRANCH  11  14
ENDBRANCH   5   6
BRANCH   3  20
ATOM     20  C   UNL     1       6.294   4.346  14.401  0.00  0.00    +0.000 A 
ATOM     21  C   UNL     1       7.375   5.080  13.883  0.00  0.00    +0.000 A 
ATOM     22  C   UNL     1       7.742   4.976  12.540  0.00  0.00    +0.000 A 
ATOM     23  C   UNL     1       7.043   4.119  11.695  0.00  0.00    +0.000 A 
ATOM     24  C   UNL     1       5.987   3.364  12.194  0.00  0.00    +0.000 A 
ATOM     25  C   UNL     1       5.617   3.472  13.540  0.00  0.00    +0.000 A 
ENDBRANCH   3  20
BRANCH   1  26
ATOM     26  N   UNL     1       6.431   4.813  19.536  0.00  0.00    +0.000 N 
ATOM     27  H   UNL     1       5.760   4.993  20.278  0.00  0.00    +0.000 HD
ATOM     28  H   UNL     1       7.320   5.285  19.686  0.00  0.00    +0.000 HD
ENDBRANCH   1  26
TORSDOF 4
ENDMDL
MODEL 3
REMARK VINA RESULT:      -8.3      0.788      1.656
REMARK  Name = 
REMARK  4 active torsions:
REMARK  status: ('A' for Active; 'I' for Inactive)
REMARK    1  A    between atoms: N_1  and  C_2
REMARK    2  A    between atoms: C_4  and  C_5
REMARK    3  A    between atoms: C_12  and  C_13
REMARK    4  A    between atoms: N_18  and  C_19
REMARK                            x       y       z     vdW  Elec       q    Type
REMARK                         _______ _______ _______ _____ _____    ______ ____
ROOT
ATOM      1  C   UNL     1       6.303   5.090  18.437  0.00  0.00    +0.000 A 
ATOM      2  S   UNL     1       7.317   5.156  17.073  0.00  0.00    +0.000 S 
ATOM      3  C   UNL     1       6.048   4.741  15.997  0.00  0.00    +0.000 A 
ATOM      4  C   UNL     1       4.843   4.731  16.670  0.00  0.00    +0.000 A 
ATOM      5  C   UNL     1       4.968   4.972  18.089  0.00  0.00    +0.000 A 
ENDROOT
BRANCH   5   6
ATOM      6  C   UNL     1       3.820   4.932  19.006  0.00  0.00    +0.000 C 
ATOM      7  O   UNL     1       3.683   3.974  19.764  0.00  0.00    +0.000 OA
ATOM      8  N   UNL     1       2.928   6.001  19.023  0.00  0.00    +0.000 N 
ATOM      9  C   UNL     1       1.960   6.099  20.117  0.00  0.00    +0.000 C 
ATOM     10  C   UNL     1       1.853   7.556  20.610  0.00  0.00    +0.000 C 
ATOM     11  N   UNL     1       1.523   8.430  19.470  0.00  0.00    +0.000 N 
ATOM     12  C   UNL     1       2.457   8.346  18.325  0.00  0.00    +0.000 C 
ATOM     13  C   UNL     1       2.614   6.876  17.882  0.00  0.00    +0.000 C 
BRANCH  11  14
ATOM     14  C   UNL     1       0.710   9.540  19.616  0.00  0.00    +0.000 A 
ATOM     15  C   UNL     1       0.253   9.995  20.861  0.00  0.00    +0.000 A 
ATOM     16  C   UNL     1      -0.638  11.069  20.968  0.00  0.00    +0.000 A 
ATOM     17  C   UNL     1      -1.094  11.715  19.824  0.00  0.00    +0.000 A 
ATOM     18  C   UNL     1      -0.650  11.294  18.578  0.00  0.00    +0.000 A 
ATOM     19  C   UNL     1       0.240  10.221  18.483  0.00  0.00    +0.000 A 
ENDBRANCH  11  14
ENDBRANCH   5   6
BRANCH   3  20
ATOM     20  C   UNL     1       6.349   4.497  14.576  0.00  0.00    +0.000 A 
ATOM     21  C   UNL     1       7.430   5.133  13.941  0.00  0.00    +0.000 A 
ATOM     22  C   UNL     1       7.694   4.930  12.585  0.00  0.00    +0.000 A 
ATOM     23  C   UNL     1       6.888   4.072  11.843  0.00  0.00    +0.000 A 
ATOM     24  C   UNL     1       5.828   3.413  12.459  0.00  0.00    +0.000 A 
ATOM     25  C   UNL     1       5.562   3.620  13.817  0.00  0.00    +0.000 A 
ENDBRANCH   3  20
BRANCH   1  26
ATOM     26  N   UNL     1       6.871   5.158  19.664  0.00  0.00    +0.000 N 
ATOM     27  H   UNL     1       7.797   4.751  19.768  0.00  0.00    +0.000 HD
ATOM     28  H   UNL     1       6.280   5.002  20.478  0.00  0.00    +0.000 HD
ENDBRANCH   1  26
TORSDOF 4
ENDMDL
MODEL 4
REMARK VINA RESULT:      -8.2      1.024      1.486
REMARK  Name = 
REMARK  4 active torsions:
REMARK  status: ('A' for Active; 'I' for Inactive)
REMARK    1  A    between atoms: N_1  and  C_2
REMARK    2  A    between atoms: C_4  and  C_5
REMARK    3  A    between atoms: C_12  and  C_13
REMARK    4  A    between atoms: N_18  and  C_19
REMARK                            x       y       z     vdW  Elec       q    Type
REMARK                         _______ _______ _______ _____ _____    ______ ____
ROOT
ATOM      1  C   UNL     1       6.212   5.273  18.429  0.00  0.00    +0.000 A 
ATOM      2  S   UNL     1       7.233   5.283  17.067  0.00  0.00    +0.000 S 
ATOM      3  C   UNL     1       5.960   4.869  15.997  0.00  0.00    +0.000 A 
ATOM      4  C   UNL     1       4.752   4.902  16.664  0.00  0.00    +0.000 A 
ATOM      5  C   UNL     1       4.876   5.174  18.078  0.00  0.00    +0.000 A 
ENDROOT
BRANCH   5   6
ATOM      6  C   UNL     1       3.725   5.182  18.990  0.00  0.00    +0.000 C 
ATOM      7  O   UNL     1       3.571   4.253  19.781  0.00  0.00    +0.000 OA
ATOM      8  N   UNL     1       2.847   6.263  18.966  0.00  0.00    +0.000 N 
ATOM      9  C   UNL     1       1.876   6.412  20.052  0.00  0.00    +0.000 C 
ATOM     10  C   UNL     1       1.786   7.886  20.494  0.00  0.00    +0.000 C 
ATOM     11  N   UNL     1       1.473   8.725  19.323  0.00  0.00    +0.000 N 
ATOM     12  C   UNL     1       2.411   8.589  18.186  0.00  0.00    +0.000 C 
ATOM     13  C   UNL     1       2.549   7.103  17.794  0.00  0.00    +0.000 C 
BRANCH  11  14
ATOM     14  C   UNL     1       0.675   9.850  19.427  0.00  0.00    +0.000 A 
ATOM     15  C   UNL     1       0.742  10.737  20.510  0.00  0.00    +0.000 A 
ATOM     16  C   UNL     1      -0.140  11.820  20.628  0.00  0.00    +0.000 A 
ATOM     17  C   UNL     1      -1.111  12.037  19.657  0.00  0.00    +0.000 A 
ATOM     18  C   UNL     1      -1.194  11.182  18.568  0.00  0.00    +0.000 A 
ATOM     19  C   UNL     1      -0.310  10.105  18.460  0.00  0.00    +0.000 A 
ENDBRANCH  11  14
ENDBRANCH   5   6
BRANCH   3  20
ATOM     20  C   UNL     1       6.260   4.584  14.583  0.00  0.00    +0.000 A 
ATOM     21  C   UNL     1       5.447   3.722  13.826  0.00  0.00    +0.000 A 
ATOM     22  C   UNL     1       5.752   3.423  12.497  0.00  0.00    +0.000 A 
ATOM     23  C   UNL     1       6.868   3.997  11.895  0.00  0.00    +0.000 A 
ATOM     24  C   UNL     1       7.670   4.873  12.619  0.00  0.00    +0.000 A 
ATOM     25  C   UNL     1       7.367   5.169  13.953  0.00  0.00    +0.000 A 
ENDBRANCH   3  20
BRANCH   1  26
ATOM     26  N   UNL     1       6.777   5.359  19.656  0.00  0.00    +0.000 N 
ATOM     27  H   UNL     1       6.245   4.983  20.437  0.00  0.00    +0.000 HD
ATOM     28  H   UNL     1       7.281   6.210  19.897  0.00  0.00    +0.000 HD
ENDBRANCH   1  26
TORSDOF 4
ENDMDL
MODEL 5
REMARK VINA RESULT:      -7.3      0.966      1.378
REMARK  Name = 
REMARK  4 active torsions:
REMARK  status: ('A' for Active; 'I' for Inactive)
REMARK    1  A    between atoms: N_1  and  C_2
REMARK    2  A    between atoms: C_4  and  C_5
REMARK    3  A    between atoms: C_12  and  C_13
REMARK    4  A    between atoms: N_18  and  C_19
REMARK                            x       y       z     vdW  Elec       q    Type
REMARK                         _______ _______ _______ _____ _____    ______ ____
ROOT
ATOM      1  C   UNL     1       5.908   4.569  18.063  0.00  0.00    +0.000 A 
ATOM      2  S   UNL     1       7.028   4.960  16.843  0.00  0.00    +0.000 S 
ATOM      3  C   UNL     1       5.992   4.417  15.591  0.00  0.00    +0.000 A 
ATOM      4  C   UNL     1       4.748   4.110  16.107  0.00  0.00    +0.000 A 
ATOM      5  C   UNL     1       4.669   4.230  17.544  0.00  0.00    +0.000 A 
ENDROOT
BRANCH   5   6
ATOM      6  C   UNL     1       3.463   3.882  18.306  0.00  0.00    +0.000 C 
ATOM      7  O   UNL     1       3.143   2.701  18.428  0.00  0.00    +0.000 OA
ATOM      8  N   UNL     1       2.723   4.897  18.908  0.00  0.00    +0.000 N 
ATOM      9  C   UNL     1       1.699   4.540  19.892  0.00  0.00    +0.000 C 
ATOM     10  C   UNL     1       1.753   5.503  21.096  0.00  0.00    +0.000 C 
ATOM     11  N   UNL     1       1.629   6.889  20.613  0.00  0.00    +0.000 N 
ATOM     12  C   UNL     1       2.624   7.290  19.594  0.00  0.00    +0.000 C 
ATOM     13  C   UNL     1       2.615   6.283  18.425  0.00  0.00    +0.000 C 
BRANCH  11  14
ATOM     14  C   UNL     1       0.963   7.857  21.345  0.00  0.00    +0.000 A 
ATOM     15  C   UNL     1      -0.435   7.935  21.415  0.00  0.00    +0.000 A 
ATOM     16  C   UNL     1      -1.078   8.978  22.094  0.00  0.00    +0.000 A 
ATOM     17  C   UNL     1      -0.330   9.969  22.721  0.00  0.00    +0.000 A 
ATOM     18  C   UNL     1       1.056   9.911  22.678  0.00  0.00    +0.000 A 
ATOM     19  C   UNL     1       1.688   8.866  21.997  0.00  0.00    +0.000 A 
ENDBRANCH  11  14
ENDBRANCH   5   6
BRANCH   3  20
ATOM     20  C   UNL     1       6.485   4.375  14.203  0.00  0.00    +0.000 A 
ATOM     21  C   UNL     1       7.518   5.225  13.773  0.00  0.00    +0.000 A 
ATOM     22  C   UNL     1       7.961   5.211  12.449  0.00  0.00    +0.000 A 
ATOM     23  C   UNL     1       7.389   4.331  11.535  0.00  0.00    +0.000 A 
ATOM     24  C   UNL     1       6.383   3.463  11.948  0.00  0.00    +0.000 A 
ATOM     25  C   UNL     1       5.936   3.480  13.274  0.00  0.00    +0.000 A 
ENDBRANCH   3  20
BRANCH   1  26
ATOM     26  N   UNL     1       6.316   4.624  19.352  0.00  0.00    +0.000 N 
ATOM     27  H   UNL     1       6.934   3.883  19.674  0.00  0.00    +0.000 HD
ATOM     28  H   UNL     1       5.642   4.909  20.060  0.00  0.00    +0.000 HD
ENDBRANCH   1  26
TORSDOF 4
ENDMDL
MODEL 6
REMARK VINA RESULT:      -6.9      3.887      8.933
REMARK  Name = 
REMARK  4 active torsions:
REMARK  status: ('A' for Active; 'I' for Inactive)
REMARK    1  A    between atoms: N_1  and  C_2
REMARK    2  A    between atoms: C_4  and  C_5
REMARK    3  A    between atoms: C_12  and  C_13
REMARK    4  A    between atoms: N_18  and  C_19
REMARK                            x       y       z     vdW  Elec       q    Type
REMARK                         _______ _______ _______ _____ _____    ______ ____
ROOT
ATOM      1  C   UNL     1      -0.544  11.283  20.813  0.00  0.00    +0.000 A 
ATOM      2  S   UNL     1      -1.779  12.024  19.906  0.00  0.00    +0.000 S 
ATOM      3  C   UNL     1      -1.835  10.745  18.766  0.00  0.00    +0.000 A 
ATOM      4  C   UNL     1      -1.040   9.699  19.191  0.00  0.00    +0.000 A 
ATOM      5  C   UNL     1      -0.309   9.981  20.405  0.00  0.00    +0.000 A 
ENDROOT
BRANCH   5   6
ATOM      6  C   UNL     1       0.651   9.036  20.991  0.00  0.00    +0.000 C 
ATOM      7  O   UNL     1       0.624   8.815  22.200  0.00  0.00    +0.000 OA
ATOM      8  N   UNL     1       1.552   8.378  20.157  0.00  0.00    +0.000 N 
ATOM      9  C   UNL     1       2.306   7.239  20.685  0.00  0.00    +0.000 C 
ATOM     10  C   UNL     1       2.358   6.101  19.647  0.00  0.00    +0.000 C 
ATOM     11  N   UNL     1       2.911   6.621  18.384  0.00  0.00    +0.000 N 
ATOM     12  C   UNL     1       2.200   7.792  17.824  0.00  0.00    +0.000 C 
ATOM     13  C   UNL     1       2.090   8.901  18.891  0.00  0.00    +0.000 C 
BRANCH  11  14
ATOM     14  C   UNL     1       3.712   5.844  17.566  0.00  0.00    +0.000 A 
ATOM     15  C   UNL     1       3.670   4.443  17.564  0.00  0.00    +0.000 A 
ATOM     16  C   UNL     1       4.553   3.684  16.786  0.00  0.00    +0.000 A 
ATOM     17  C   UNL     1       5.501   4.315  15.989  0.00  0.00    +0.000 A 
ATOM     18  C   UNL     1       5.558   5.702  15.962  0.00  0.00    +0.000 A 
ATOM     19  C   UNL     1       4.673   6.450  16.742  0.00  0.00    +0.000 A 
ENDBRANCH  11  14
ENDBRANCH   5   6
BRANCH   3  20
ATOM     20  C   UNL     1      -2.687  10.871  17.571  0.00  0.00    +0.000 A 
ATOM     21  C   UNL     1      -2.296  10.320  16.338  0.00  0.00    +0.000 A 
ATOM     22  C   UNL     1      -3.085  10.470  15.196  0.00  0.00    +0.000 A 
ATOM     23  C   UNL     1      -4.292  11.159  15.273  0.00  0.00    +0.000 A 
ATOM     24  C   UNL     1      -4.709  11.689  16.491  0.00  0.00    +0.000 A 
ATOM     25  C   UNL     1      -3.915  11.542  17.634  0.00  0.00    +0.000 A 
ENDBRANCH   3  20
BRANCH   1  26
ATOM     26  N   UNL     1       0.054  12.001  21.792  0.00  0.00    +0.000 N 
ATOM     27  H   UNL     1       0.852  12.570  21.526  0.00  0.00    +0.000 HD
ATOM     28  H   UNL     1       0.166  11.569  22.707  0.00  0.00    +0.000 HD
ENDBRANCH   1  26
TORSDOF 4
ENDMDL
MODEL 7
REMARK VINA RESULT:      -6.7      3.890      8.958
REMARK  Name = 
REMARK  4 active torsions:
REMARK  status: ('A' for Active; 'I' for Inactive)
REMARK    1  A    between atoms: N_1  and  C_2
REMARK    2  A    between atoms: C_4  and  C_5
REMARK    3  A    between atoms: C_12  and  C_13
REMARK    4  A    between atoms: N_18  and  C_19
REMARK                            x       y       z     vdW  Elec       q    Type
REMARK                         _______ _______ _______ _____ _____    ______ ____
ROOT
ATOM      1  C   UNL     1      -0.242  11.447  20.533  0.00  0.00    +0.000 A 
ATOM      2  S   UNL     1      -1.440  12.274  19.652  0.00  0.00    +0.000 S 
ATOM      3  C   UNL     1      -1.804  10.904  18.687  0.00  0.00    +0.000 A 
ATOM      4  C   UNL     1      -1.133   9.797  19.167  0.00  0.00    +0.000 A 
ATOM      5  C   UNL     1      -0.245  10.088  20.269  0.00  0.00    +0.000 A 
ENDROOT
BRANCH   5   6
ATOM      6  C   UNL     1       0.620   9.071  20.882  0.00  0.00    +0.000 C 
ATOM      7  O   UNL     1       0.485   8.798  22.072  0.00  0.00    +0.000 OA
ATOM      8  N   UNL     1       1.554   8.408  20.089  0.00  0.00    +0.000 N 
ATOM      9  C   UNL     1       2.210   7.211  20.618  0.00  0.00    +0.000 C 
ATOM     10  C   UNL     1       2.293   6.119  19.532  0.00  0.00    +0.000 C 
ATOM     11  N   UNL     1       2.970   6.669  18.344  0.00  0.00    +0.000 N 
ATOM     12  C   UNL     1       2.361   7.897  17.788  0.00  0.00    +0.000 C 
ATOM     13  C   UNL     1       2.216   8.960  18.896  0.00  0.00    +0.000 C 
BRANCH  11  14
ATOM     14  C   UNL     1       3.798   5.891  17.554  0.00  0.00    +0.000 A 
ATOM     15  C   UNL     1       4.746   6.433  16.675  0.00  0.00    +0.000 A 
ATOM     16  C   UNL     1       5.508   5.621  15.826  0.00  0.00    +0.000 A 
ATOM     17  C   UNL     1       5.337   4.241  15.840  0.00  0.00    +0.000 A 
ATOM     18  C   UNL     1       4.413   3.675  16.708  0.00  0.00    +0.000 A 
ATOM     19  C   UNL     1       3.657   4.495  17.551  0.00  0.00    +0.000 A 
ENDBRANCH  11  14
ENDBRANCH   5   6
BRANCH   3  20
ATOM     20  C   UNL     1      -2.748  11.034  17.564  0.00  0.00    +0.000 A 
ATOM     21  C   UNL     1      -4.043  11.546  17.758  0.00  0.00    +0.000 A 
ATOM     22  C   UNL     1      -4.951  11.635  16.701  0.00  0.00    +0.000 A 
ATOM     23  C   UNL     1      -4.571  11.231  15.424  0.00  0.00    +0.000 A 
ATOM     24  C   UNL     1      -3.285  10.746  15.207  0.00  0.00    +0.000 A 
ATOM     25  C   UNL     1      -2.377  10.652  16.268  0.00  0.00    +0.000 A 
ENDBRANCH   3  20
BRANCH   1  26
ATOM     26  N   UNL     1       0.555  12.162  21.360  0.00  0.00    +0.000 N 
ATOM     27  H   UNL     1       0.813  13.098  21.060  0.00  0.00    +0.000 HD
ATOM     28  H   UNL     1       1.315  11.679  21.836  0.00  0.00    +0.000 HD
ENDBRANCH   1  26
TORSDOF 4
ENDMDL
MODEL 8
REMARK VINA RESULT:      -6.6      3.783      9.336
REMARK  Name = 
REMARK  4 active torsions:
REMARK  status: ('A' for Active; 'I' for Inactive)
REMARK    1  A    between atoms: N_1  and  C_2
REMARK    2  A    between atoms: C_4  and  C_5
REMARK    3  A    between atoms: C_12  and  C_13
REMARK    4  A    between atoms: N_18  and  C_19
REMARK                            x       y       z     vdW  Elec       q    Type
REMARK                         _______ _______ _______ _____ _____    ______ ____
ROOT
ATOM      1  C   UNL     1       0.372  11.606  20.129  0.00  0.00    +0.000 A 
ATOM      2  S   UNL     1      -0.849  12.594  19.475  0.00  0.00    +0.000 S 
ATOM      3  C   UNL     1      -1.853  11.257  19.096  0.00  0.00    +0.000 A 
ATOM      4  C   UNL     1      -1.321  10.100  19.629  0.00  0.00    +0.000 A 
ATOM      5  C   UNL     1      -0.040  10.291  20.270  0.00  0.00    +0.000 A 
ENDROOT
BRANCH   5   6
ATOM      6  C   UNL     1       0.737   9.182  20.839  0.00  0.00    +0.000 C 
ATOM      7  O   UNL     1       0.544   8.842  22.005  0.00  0.00    +0.000 OA
ATOM      8  N   UNL     1       1.653   8.512  20.033  0.00  0.00    +0.000 N 
ATOM      9  C   UNL     1       2.214   7.242  20.500  0.00  0.00    +0.000 C 
ATOM     10  C   UNL     1       2.264   6.220  19.346  0.00  0.00    +0.000 C 
ATOM     11  N   UNL     1       3.015   6.800  18.218  0.00  0.00    +0.000 N 
ATOM     12  C   UNL     1       2.504   8.099  17.727  0.00  0.00    +0.000 C 
ATOM     13  C   UNL     1       2.390   9.096  18.900  0.00  0.00    +0.000 C 
BRANCH  11  14
ATOM     14  C   UNL     1       3.817   6.022  17.402  0.00  0.00    +0.000 A 
ATOM     15  C   UNL     1       4.705   6.565  16.462  0.00  0.00    +0.000 A 
ATOM     16  C   UNL     1       5.440   5.750  15.592  0.00  0.00    +0.000 A 
ATOM     17  C   UNL     1       5.302   4.367  15.646  0.00  0.00    +0.000 A 
ATOM     18  C   UNL     1       4.439   3.802  16.575  0.00  0.00    +0.000 A 
ATOM     19  C   UNL     1       3.710   4.624  17.438  0.00  0.00    +0.000 A 
ENDBRANCH  11  14
ENDBRANCH   5   6
BRANCH   3  20
ATOM     20  C   UNL     1      -3.096  11.472  18.336  0.00  0.00    +0.000 A 
ATOM     21  C   UNL     1      -3.191  11.117  16.979  0.00  0.00    +0.000 A 
ATOM     22  C   UNL     1      -4.357  11.353  16.249  0.00  0.00    +0.000 A 
ATOM     23  C   UNL     1      -5.458  11.935  16.870  0.00  0.00    +0.000 A 
ATOM     24  C   UNL     1      -5.394  12.270  18.219  0.00  0.00    +0.000 A 
ATOM     25  C   UNL     1      -4.223  12.036  18.950  0.00  0.00    +0.000 A 
ENDBRANCH   3  20
BRANCH   1  26
ATOM     26  N   UNL     1       1.564  12.172  20.431  0.00  0.00    +0.000 N 
ATOM     27  H   UNL     1       2.349  11.545  20.586  0.00  0.00    +0.000 HD
ATOM     28  H   UNL     1       1.572  12.973  21.059  0.00  0.00    +0.000 HD
ENDBRANCH   1  26
TORSDOF 4
ENDMDL
MODEL 9
REMARK VINA RESULT:      -6.5      4.699      7.092
REMARK  Name = 
REMARK  4 active torsions:
REMARK  status: ('A' for Active; 'I' for Inactive)
REMARK    1  A    between atoms: N_1  and  C_2
REMARK    2  A    between atoms: C_4  and  C_5
REMARK    3  A    between atoms: C_12  and  C_13
REMARK    4  A    between atoms: N_18  and  C_19
REMARK                            x       y       z     vdW  Elec       q    Type
REMARK                         _______ _______ _______ _____ _____    ______ ____
ROOT
ATOM      1  C   UNL     1       0.760   9.159  20.212  0.00  0.00    +0.000 A 
ATOM      2  S   UNL     1       1.836   7.845  20.316  0.00  0.00    +0.000 S 
ATOM      3  C   UNL     1       2.149   7.851  18.631  0.00  0.00    +0.000 A 
ATOM      4  C   UNL     1       1.566   8.957  18.046  0.00  0.00    +0.000 A 
ATOM      5  C   UNL     1       0.783   9.754  18.962  0.00  0.00    +0.000 A 
ENDROOT
BRANCH   5   6
ATOM      6  C   UNL     1       0.017  10.933  18.535  0.00  0.00    +0.000 C 
ATOM      7  O   UNL     1      -1.095  10.785  18.033  0.00  0.00    +0.000 OA
ATOM      8  N   UNL     1       0.553  12.202  18.743  0.00  0.00    +0.000 N 
ATOM      9  C   UNL     1      -0.313  13.372  18.586  0.00  0.00    +0.000 C 
ATOM     10  C   UNL     1      -0.054  14.387  19.717  0.00  0.00    +0.000 C 
ATOM     11  N   UNL     1       1.379  14.731  19.741  0.00  0.00    +0.000 N 
ATOM     12  C   UNL     1       2.298  13.579  19.870  0.00  0.00    +0.000 C 
ATOM     13  C   UNL     1       1.987  12.534  18.777  0.00  0.00    +0.000 C 
BRANCH  11  14
ATOM     14  C   UNL     1       1.816  16.002  20.070  0.00  0.00    +0.000 A 
ATOM     15  C   UNL     1       2.888  16.239  20.943  0.00  0.00    +0.000 A 
ATOM     16  C   UNL     1       3.251  17.537  21.323  0.00  0.00    +0.000 A 
ATOM     17  C   UNL     1       2.546  18.631  20.835  0.00  0.00    +0.000 A 
ATOM     18  C   UNL     1       1.487  18.427  19.960  0.00  0.00    +0.000 A 
ATOM     19  C   UNL     1       1.132  17.128  19.588  0.00  0.00    +0.000 A 
ENDBRANCH  11  14
ENDBRANCH   5   6
BRANCH   3  20
ATOM     20  C   UNL     1       2.972   6.782  18.039  0.00  0.00    +0.000 A 
ATOM     21  C   UNL     1       4.186   7.073  17.393  0.00  0.00    +0.000 A 
ATOM     22  C   UNL     1       4.949   6.065  16.800  0.00  0.00    +0.000 A 
ATOM     23  C   UNL     1       4.518   4.743  16.860  0.00  0.00    +0.000 A 
ATOM     24  C   UNL     1       3.332   4.431  17.518  0.00  0.00    +0.000 A 
ATOM     25  C   UNL     1       2.566   5.443  18.108  0.00  0.00    +0.000 A 
ENDBRANCH   3  20
BRANCH   1  26
ATOM     26  N   UNL     1       0.025   9.476  21.304  0.00  0.00    +0.000 N 
ATOM     27  H   UNL     1      -0.770  10.093  21.164  0.00  0.00    +0.000 HD
ATOM     28  H   UNL     1       0.514   9.657  22.178  0.00  0.00    +0.000 HD
ENDBRANCH   1  26
TORSDOF 4
ENDMDL
