MODEL 1
REMARK VINA RESULT:      -8.5      0.000      0.000
REMARK  Name = 
REMARK  7 active torsions:
REMARK  status: ('A' for Active; 'I' for Inactive)
REMARK    1  A    between atoms: C_1  and  C_2
REMARK    2  A    between atoms: C_2  and  N_3
REMARK    3  A    between atoms: C_2  and  C_23
REMARK    4  A    between atoms: N_3  and  C_4
REMARK    5  A    between atoms: C_11  and  O_12
REMARK    6  A    between atoms: O_12  and  C_13
REMARK    7  A    between atoms: C_13  and  C_14
REMARK                            x       y       z     vdW  Elec       q    Type
REMARK                         _______ _______ _______ _____ _____    ______ ____
ROOT
ATOM      1  C   UNL     1       4.157   4.174  17.076  0.00  0.00    +0.000 A 
ATOM      2  C   UNL     1       4.128   2.890  17.462  0.00  0.00    +0.000 A 
ATOM      3  C   UNL     1       3.581   2.439  18.750  0.00  0.00    +0.000 A 
ATOM      4  O   UNL     1       3.667   1.263  19.086  0.00  0.00    +0.000 OA
ATOM      5  O   UNL     1       2.981   3.393  19.549  0.00  0.00    +0.000 OA
ATOM      6  C   UNL     1       2.970   4.749  19.171  0.00  0.00    +0.000 A 
ATOM      7  C   UNL     1       2.319   5.634  20.036  0.00  0.00    +0.000 A 
ATOM      8  C   UNL     1       2.250   6.985  19.708  0.00  0.00    +0.000 A 
ATOM      9  C   UNL     1       2.900   7.443  18.563  0.00  0.00    +0.000 A 
ATOM     10  C   UNL     1       3.549   6.546  17.710  0.00  0.00    +0.000 A 
ATOM     11  C   UNL     1       3.574   5.174  17.986  0.00  0.00    +0.000 A 
ENDROOT
BRANCH   1  12
ATOM     12  N   UNL     1       4.747   4.580  15.879  0.00  0.00    +0.000 N 
ATOM     13  H   UNL     1       4.067   4.586  15.119  0.00  0.00    +0.000 HD
BRANCH  12  15
ATOM     14  C   UNL     1       6.081   3.968  13.873  0.00  0.00    +0.000 C 
ATOM     15  C   UNL     1       6.035   3.983  15.403  0.00  0.00    +0.000 C 
BRANCH  15  16
ATOM     16  C   UNL     1       7.241   4.794  15.918  0.00  0.00    +0.000 C 
ATOM     17  N   UNL     1       7.829   4.299  17.047  0.00  0.00    +0.000 N 
ATOM     18  O   UNL     1       7.662   5.813  15.379  0.00  0.00    +0.000 OA
ATOM     19  H   UNL     1       7.468   3.438  17.446  0.00  0.00    +0.000 HD
ATOM     20  H   UNL     1       8.634   4.761  17.439  0.00  0.00    +0.000 HD
ENDBRANCH  15  16
ENDBRANCH  12  15
ENDBRANCH   1  12
BRANCH   8  21
ATOM     21  O   UNL     1       1.525   7.778  20.556  0.00  0.00    +0.000 OA
BRANCH  21  22
ATOM     22  C   UNL     1       1.205   9.074  20.038  0.00  0.00    +0.000 C 
BRANCH  22  23
ATOM     23  C   UNL     1       0.359   9.825  21.032  0.00  0.00    +0.000 A 
ATOM     24  C   UNL     1      -0.222  11.052  20.690  0.00  0.00    +0.000 A 
ATOM     25  C   UNL     1      -1.019  11.733  21.612  0.00  0.00    +0.000 A 
ATOM     26  C   UNL     1      -1.238  11.195  22.879  0.00  0.00    +0.000 A 
ATOM     27  C   UNL     1      -0.665   9.975  23.228  0.00  0.00    +0.000 A 
ATOM     28  C   UNL     1       0.131   9.293  22.309  0.00  0.00    +0.000 A 
ENDBRANCH  22  23
ENDBRANCH  21  22
ENDBRANCH   8  21
TORSDOF 6
ENDMDL
MODEL 2
REMARK VINA RESULT:      -8.5      1.103      1.186
REMARK  Name = 
REMARK  7 active torsions:
REMARK  status: ('A' for Active; 'I' for Inactive)
REMARK    1  A    between atoms: C_1  and  C_2
REMARK    2  A    between atoms: C_2  and  N_3
REMARK    3  A    between atoms: C_2  and  C_23
REMARK    4  A    between atoms: N_3  and  C_4
REMARK    5  A    between atoms: C_11  and  O_12
REMARK    6  A    between atoms: O_12  and  C_13
REMARK    7  A    between atoms: C_13  and  C_14
REMARK                            x       y       z     vdW  Elec       q    Type
REMARK                         _______ _______ _______ _____ _____    ______ ____
ROOT
ATOM      1  C   UNL     1       4.169   4.736  17.497  0.00  0.00    +0.000 A 
ATOM      2  C   UNL     1       4.170   3.624  18.247  0.00  0.00    +0.000 A 
ATOM      3  C   UNL     1       3.598   3.553  19.599  0.00  0.00    +0.000 A 
ATOM      4  O   UNL     1       3.712   2.534  20.272  0.00  0.00    +0.000 OA
ATOM      5  O   UNL     1       2.942   4.677  20.066  0.00  0.00    +0.000 OA
ATOM      6  C   UNL     1       2.898   5.858  19.302  0.00  0.00    +0.000 A 
ATOM      7  C   UNL     1       2.192   6.932  19.851  0.00  0.00    +0.000 A 
ATOM      8  C   UNL     1       2.089   8.121  19.134  0.00  0.00    +0.000 A 
ATOM      9  C   UNL     1       2.759   8.244  17.918  0.00  0.00    +0.000 A 
ATOM     10  C   UNL     1       3.463   7.162  17.384  0.00  0.00    +0.000 A 
ATOM     11  C   UNL     1       3.525   5.936  18.056  0.00  0.00    +0.000 A 
ENDROOT
BRANCH   1  12
ATOM     12  N   UNL     1       4.781   4.793  16.245  0.00  0.00    +0.000 N 
ATOM     13  H   UNL     1       4.105   4.634  15.499  0.00  0.00    +0.000 HD
BRANCH  12  15
ATOM     14  C   UNL     1       6.240   3.885  14.449  0.00  0.00    +0.000 C 
ATOM     15  C   UNL     1       6.040   4.033  15.959  0.00  0.00    +0.000 C 
BRANCH  15  16
ATOM     16  C   UNL     1       7.267   4.760  16.544  0.00  0.00    +0.000 C 
ATOM     17  N   UNL     1       7.348   6.089  16.242  0.00  0.00    +0.000 N 
ATOM     18  O   UNL     1       8.125   4.213  17.229  0.00  0.00    +0.000 OA
ATOM     19  H   UNL     1       6.603   6.510  15.695  0.00  0.00    +0.000 HD
ATOM     20  H   UNL     1       8.111   6.642  16.600  0.00  0.00    +0.000 HD
ENDBRANCH  15  16
ENDBRANCH  12  15
ENDBRANCH   1  12
BRANCH   8  21
ATOM     21  O   UNL     1       1.313   9.100  19.694  0.00  0.00    +0.000 OA
BRANCH  21  22
ATOM     22  C   UNL     1       0.814   8.796  21.000  0.00  0.00    +0.000 C 
BRANCH  22  23
ATOM     23  C   UNL     1      -0.073   9.915  21.480  0.00  0.00    +0.000 A 
ATOM     24  C   UNL     1      -0.453  10.945  20.610  0.00  0.00    +0.000 A 
ATOM     25  C   UNL     1      -1.289  11.969  21.058  0.00  0.00    +0.000 A 
ATOM     26  C   UNL     1      -1.749  11.972  22.374  0.00  0.00    +0.000 A 
ATOM     27  C   UNL     1      -1.377  10.951  23.246  0.00  0.00    +0.000 A 
ATOM     28  C   UNL     1      -0.543   9.927  22.801  0.00  0.00    +0.000 A 
ENDBRANCH  22  23
ENDBRANCH  21  22
ENDBRANCH   8  21
TORSDOF 6
ENDMDL
MODEL 3
REMARK VINA RESULT:      -8.4      1.770      2.262
REMARK  Name = 
REMARK  7 active torsions:
REMARK  status: ('A' for Active; 'I' for Inactive)
REMARK    1  A    between atoms: C_1  and  C_2
REMARK    2  A    between atoms: C_2  and  N_3
REMARK    3  A    between atoms: C_2  and  C_23
REMARK    4  A    between atoms: N_3  and  C_4
REMARK    5  A    between atoms: C_11  and  O_12
REMARK    6  A    between atoms: O_12  and  C_13
REMARK    7  A    between atoms: C_13  and  C_14
REMARK                            x       y       z     vdW  Elec       q    Type
REMARK                         _______ _______ _______ _____ _____    ______ ____
ROOT
ATOM      1  C   UNL     1       4.106   4.629  17.555  0.00  0.00    +0.000 A 
ATOM      2  C   UNL     1       4.128   3.540  18.337  0.00  0.00    +0.000 A 
ATOM      3  C   UNL     1       3.591   3.509  19.705  0.00  0.00    +0.000 A 
ATOM      4  O   UNL     1       3.723   2.510  20.405  0.00  0.00    +0.000 OA
ATOM      5  O   UNL     1       2.944   4.645  20.155  0.00  0.00    +0.000 OA
ATOM      6  C   UNL     1       2.878   5.803  19.357  0.00  0.00    +0.000 A 
ATOM      7  C   UNL     1       2.185   6.892  19.891  0.00  0.00    +0.000 A 
ATOM      8  C   UNL     1       2.061   8.059  19.142  0.00  0.00    +0.000 A 
ATOM      9  C   UNL     1       2.700   8.147  17.907  0.00  0.00    +0.000 A 
ATOM     10  C   UNL     1       3.392   7.050  17.388  0.00  0.00    +0.000 A 
ATOM     11  C   UNL     1       3.473   5.845  18.094  0.00  0.00    +0.000 A 
ENDROOT
BRANCH   1  12
ATOM     12  N   UNL     1       4.686   4.649  16.287  0.00  0.00    +0.000 N 
ATOM     13  H   UNL     1       4.032   4.318  15.579  0.00  0.00    +0.000 HD
BRANCH  12  15
ATOM     14  C   UNL     1       6.331   4.001  14.540  0.00  0.00    +0.000 C 
ATOM     15  C   UNL     1       6.041   4.059  16.041  0.00  0.00    +0.000 C 
BRANCH  15  16
ATOM     16  C   UNL     1       7.140   4.902  16.718  0.00  0.00    +0.000 C 
ATOM     17  N   UNL     1       7.722   4.324  17.809  0.00  0.00    +0.000 N 
ATOM     18  O   UNL     1       7.485   6.015  16.331  0.00  0.00    +0.000 OA
ATOM     19  H   UNL     1       7.427   3.391  18.080  0.00  0.00    +0.000 HD
ATOM     20  H   UNL     1       8.461   4.803  18.299  0.00  0.00    +0.000 HD
ENDBRANCH  15  16
ENDBRANCH  12  15
ENDBRANCH   1  12
BRANCH   8  21
ATOM     21  O   UNL     1       1.297   9.053  19.692  0.00  0.00    +0.000 OA
BRANCH  21  22
ATOM     22  C   UNL     1       1.189  10.236  18.893  0.00  0.00    +0.000 C 
BRANCH  22  23
ATOM     23  C   UNL     1      -0.261  10.526  18.607  0.00  0.00    +0.000 A 
ATOM     24  C   UNL     1      -0.958   9.789  17.641  0.00  0.00    +0.000 A 
ATOM     25  C   UNL     1      -2.306  10.053  17.394  0.00  0.00    +0.000 A 
ATOM     26  C   UNL     1      -2.965  11.053  18.107  0.00  0.00    +0.000 A 
ATOM     27  C   UNL     1      -2.281  11.790  19.071  0.00  0.00    +0.000 A 
ATOM     28  C   UNL     1      -0.935  11.528  19.319  0.00  0.00    +0.000 A 
ENDBRANCH  22  23
ENDBRANCH  21  22
ENDBRANCH   8  21
TORSDOF 6
ENDMDL
MODEL 4
REMARK VINA RESULT:      -8.4      0.854      1.286
REMARK  Name = 
REMARK  7 active torsions:
REMARK  status: ('A' for Active; 'I' for Inactive)
REMARK    1  A    between atoms: C_1  and  C_2
REMARK    2  A    between atoms: C_2  and  N_3
REMARK    3  A    between atoms: C_2  and  C_23
REMARK    4  A    between atoms: N_3  and  C_4
REMARK    5  A    between atoms: C_11  and  O_12
REMARK    6  A    between atoms: O_12  and  C_13
REMARK    7  A    between atoms: C_13  and  C_14
REMARK                            x       y       z     vdW  Elec       q    Type
REMARK                         _______ _______ _______ _____ _____    ______ ____
ROOT
ATOM      1  C   UNL     1       4.197   4.430  17.508  0.00  0.00    +0.000 A 
ATOM      2  C   UNL     1       4.269   3.348  18.297  0.00  0.00    +0.000 A 
ATOM      3  C   UNL     1       3.819   3.327  19.695  0.00  0.00    +0.000 A 
ATOM      4  O   UNL     1       3.996   2.334  20.393  0.00  0.00    +0.000 OA
ATOM      5  O   UNL     1       3.200   4.466  20.176  0.00  0.00    +0.000 OA
ATOM      6  C   UNL     1       3.084   5.618  19.374  0.00  0.00    +0.000 A 
ATOM      7  C   UNL     1       2.424   6.711  19.942  0.00  0.00    +0.000 A 
ATOM      8  C   UNL     1       2.251   7.871  19.193  0.00  0.00    +0.000 A 
ATOM      9  C   UNL     1       2.812   7.950  17.919  0.00  0.00    +0.000 A 
ATOM     10  C   UNL     1       3.472   6.849  17.367  0.00  0.00    +0.000 A 
ATOM     11  C   UNL     1       3.598   5.650  18.076  0.00  0.00    +0.000 A 
ENDROOT
BRANCH   1  12
ATOM     12  N   UNL     1       4.697   4.440  16.206  0.00  0.00    +0.000 N 
ATOM     13  H   UNL     1       4.025   4.040  15.552  0.00  0.00    +0.000 HD
BRANCH  12  15
ATOM     14  C   UNL     1       6.300   3.907  14.382  0.00  0.00    +0.000 C 
ATOM     15  C   UNL     1       6.071   3.932  15.895  0.00  0.00    +0.000 C 
BRANCH  15  16
ATOM     16  C   UNL     1       7.148   4.830  16.536  0.00  0.00    +0.000 C 
ATOM     17  N   UNL     1       7.786   4.287  17.615  0.00  0.00    +0.000 N 
ATOM     18  O   UNL     1       7.431   5.954  16.134  0.00  0.00    +0.000 OA
ATOM     19  H   UNL     1       7.542   3.343  17.899  0.00  0.00    +0.000 HD
ATOM     20  H   UNL     1       8.516   4.802  18.081  0.00  0.00    +0.000 HD
ENDBRANCH  15  16
ENDBRANCH  12  15
ENDBRANCH   1  12
BRANCH   8  21
ATOM     21  O   UNL     1       1.523   8.870  19.781  0.00  0.00    +0.000 OA
BRANCH  21  22
ATOM     22  C   UNL     1       0.748   8.459  20.913  0.00  0.00    +0.000 C 
BRANCH  22  23
ATOM     23  C   UNL     1      -0.082   9.615  21.408  0.00  0.00    +0.000 A 
ATOM     24  C   UNL     1      -0.420   9.720  22.763  0.00  0.00    +0.000 A 
ATOM     25  C   UNL     1      -1.175  10.803  23.216  0.00  0.00    +0.000 A 
ATOM     26  C   UNL     1      -1.597  11.785  22.321  0.00  0.00    +0.000 A 
ATOM     27  C   UNL     1      -1.265  11.689  20.971  0.00  0.00    +0.000 A 
ATOM     28  C   UNL     1      -0.511  10.609  20.517  0.00  0.00    +0.000 A 
ENDBRANCH  22  23
ENDBRANCH  21  22
ENDBRANCH   8  21
TORSDOF 6
ENDMDL
MODEL 5
REMARK VINA RESULT:      -8.4      0.667      1.171
REMARK  Name = 
REMARK  7 active torsions:
REMARK  status: ('A' for Active; 'I' for Inactive)
REMARK    1  A    between atoms: C_1  and  C_2
REMARK    2  A    between atoms: C_2  and  N_3
REMARK    3  A    between atoms: C_2  and  C_23
REMARK    4  A    between atoms: N_3  and  C_4
REMARK    5  A    between atoms: C_11  and  O_12
REMARK    6  A    between atoms: O_12  and  C_13
REMARK    7  A    between atoms: C_13  and  C_14
REMARK                            x       y       z     vdW  Elec       q    Type
REMARK                         _______ _______ _______ _____ _____    ______ ____
ROOT
ATOM      1  C   UNL     1       4.106   4.102  17.059  0.00  0.00    +0.000 A 
ATOM      2  C   UNL     1       4.009   2.812  17.413  0.00  0.00    +0.000 A 
ATOM      3  C   UNL     1       3.418   2.357  18.679  0.00  0.00    +0.000 A 
ATOM      4  O   UNL     1       3.442   1.171  18.988  0.00  0.00    +0.000 OA
ATOM      5  O   UNL     1       2.848   3.320  19.491  0.00  0.00    +0.000 OA
ATOM      6  C   UNL     1       2.907   4.684  19.146  0.00  0.00    +0.000 A 
ATOM      7  C   UNL     1       2.283   5.578  20.020  0.00  0.00    +0.000 A 
ATOM      8  C   UNL     1       2.283   6.938  19.724  0.00  0.00    +0.000 A 
ATOM      9  C   UNL     1       2.975   7.391  18.602  0.00  0.00    +0.000 A 
ATOM     10  C   UNL     1       3.597   6.484  17.739  0.00  0.00    +0.000 A 
ATOM     11  C   UNL     1       3.553   5.107  17.982  0.00  0.00    +0.000 A 
ENDROOT
BRANCH   1  12
ATOM     12  N   UNL     1       4.735   4.508  15.882  0.00  0.00    +0.000 N 
ATOM     13  H   UNL     1       4.114   4.407  15.080  0.00  0.00    +0.000 HD
BRANCH  12  15
ATOM     14  C   UNL     1       6.363   4.209  14.028  0.00  0.00    +0.000 C 
ATOM     15  C   UNL     1       6.107   4.023  15.525  0.00  0.00    +0.000 C 
BRANCH  15  16
ATOM     16  C   UNL     1       7.185   4.801  16.305  0.00  0.00    +0.000 C 
ATOM     17  N   UNL     1       7.415   6.072  15.861  0.00  0.00    +0.000 N 
ATOM     18  O   UNL     1       7.811   4.340  17.255  0.00  0.00    +0.000 OA
ATOM     19  H   UNL     1       6.857   6.426  15.089  0.00  0.00    +0.000 HD
ATOM     20  H   UNL     1       8.093   6.654  16.326  0.00  0.00    +0.000 HD
ENDBRANCH  15  16
ENDBRANCH  12  15
ENDBRANCH   1  12
BRANCH   8  21
ATOM     21  O   UNL     1       1.581   7.745  20.578  0.00  0.00    +0.000 OA
BRANCH  21  22
ATOM     22  C   UNL     1       1.124   8.973  20.003  0.00  0.00    +0.000 C 
BRANCH  22  23
ATOM     23  C   UNL     1       0.326   9.746  21.021  0.00  0.00    +0.000 A 
ATOM     24  C   UNL     1       0.016   9.178  22.263  0.00  0.00    +0.000 A 
ATOM     25  C   UNL     1      -0.710   9.907  23.206  0.00  0.00    +0.000 A 
ATOM     26  C   UNL     1      -1.130  11.204  22.915  0.00  0.00    +0.000 A 
ATOM     27  C   UNL     1      -0.824  11.778  21.683  0.00  0.00    +0.000 A 
ATOM     28  C   UNL     1      -0.100  11.051  20.740  0.00  0.00    +0.000 A 
ENDBRANCH  22  23
ENDBRANCH  21  22
ENDBRANCH   8  21
TORSDOF 6
ENDMDL
MODEL 6
REMARK VINA RESULT:      -8.3      1.840      2.402
REMARK  Name = 
REMARK  7 active torsions:
REMARK  status: ('A' for Active; 'I' for Inactive)
REMARK    1  A    between atoms: C_1  and  C_2
REMARK    2  A    between atoms: C_2  and  N_3
REMARK    3  A    between atoms: C_2  and  C_23
REMARK    4  A    between atoms: N_3  and  C_4
REMARK    5  A    between atoms: C_11  and  O_12
REMARK    6  A    between atoms: O_12  and  C_13
REMARK    7  A    between atoms: C_13  and  C_14
REMARK                            x       y       z     vdW  Elec       q    Type
REMARK                         _______ _______ _______ _____ _____    ______ ____
ROOT
ATOM      1  C   UNL     1       4.151   5.219  17.503  0.00  0.00    +0.000 A 
ATOM      2  C   UNL     1       4.236   4.079  18.203  0.00  0.00    +0.000 A 
ATOM      3  C   UNL     1       3.670   3.905  19.548  0.00  0.00    +0.000 A 
ATOM      4  O   UNL     1       3.861   2.868  20.175  0.00  0.00    +0.000 OA
ATOM      5  O   UNL     1       2.929   4.953  20.061  0.00  0.00    +0.000 OA
ATOM      6  C   UNL     1       2.796   6.160  19.349  0.00  0.00    +0.000 A 
ATOM      7  C   UNL     1       2.009   7.152  19.942  0.00  0.00    +0.000 A 
ATOM      8  C   UNL     1       1.815   8.359  19.278  0.00  0.00    +0.000 A 
ATOM      9  C   UNL     1       2.476   8.587  18.071  0.00  0.00    +0.000 A 
ATOM     10  C   UNL     1       3.261   7.587  17.493  0.00  0.00    +0.000 A 
ATOM     11  C   UNL     1       3.416   6.341  18.111  0.00  0.00    +0.000 A 
ENDROOT
BRANCH   1  12
ATOM     12  N   UNL     1       4.758   5.378  16.257  0.00  0.00    +0.000 N 
ATOM     13  H   UNL     1       4.072   5.617  15.542  0.00  0.00    +0.000 HD
BRANCH  12  15
ATOM     14  C   UNL     1       5.451   4.112  14.233  0.00  0.00    +0.000 C 
ATOM     15  C   UNL     1       5.714   4.357  15.721  0.00  0.00    +0.000 C 
BRANCH  15  16
ATOM     16  C   UNL     1       7.172   4.828  15.887  0.00  0.00    +0.000 C 
ATOM     17  N   UNL     1       7.814   4.343  16.990  0.00  0.00    +0.000 N 
ATOM     18  O   UNL     1       7.741   5.584  15.105  0.00  0.00    +0.000 OA
ATOM     19  H   UNL     1       7.317   3.698  17.597  0.00  0.00    +0.000 HD
ATOM     20  H   UNL     1       8.776   4.590  17.164  0.00  0.00    +0.000 HD
ENDBRANCH  15  16
ENDBRANCH  12  15
ENDBRANCH   1  12
BRANCH   8  21
ATOM     21  O   UNL     1       0.966   9.251  19.876  0.00  0.00    +0.000 OA
BRANCH  21  22
ATOM     22  C   UNL     1       0.829  10.500  19.190  0.00  0.00    +0.000 C 
BRANCH  22  23
ATOM     23  C   UNL     1      -0.595  10.673  18.729  0.00  0.00    +0.000 A 
ATOM     24  C   UNL     1      -1.442  11.593  19.360  0.00  0.00    +0.000 A 
ATOM     25  C   UNL     1      -2.754  11.759  18.915  0.00  0.00    +0.000 A 
ATOM     26  C   UNL     1      -3.229  11.008  17.841  0.00  0.00    +0.000 A 
ATOM     27  C   UNL     1      -2.394  10.091  17.207  0.00  0.00    +0.000 A 
ATOM     28  C   UNL     1      -1.083   9.924  17.649  0.00  0.00    +0.000 A 
ENDBRANCH  22  23
ENDBRANCH  21  22
ENDBRANCH   8  21
TORSDOF 6
ENDMDL
MODEL 7
REMARK VINA RESULT:      -8.2      3.567      8.385
REMARK  Name = 
REMARK  7 active torsions:
REMARK  status: ('A' for Active; 'I' for Inactive)
REMARK    1  A    between atoms: C_1  and  C_2
REMARK    2  A    between atoms: C_2  and  N_3
REMARK    3  A    between atoms: C_2  and  C_23
REMARK    4  A    between atoms: N_3  and  C_4
REMARK    5  A    between atoms: C_11  and  O_12
REMARK    6  A    between atoms: O_12  and  C_13
REMARK    7  A    between atoms: C_13  and  C_14
REMARK                            x       y       z     vdW  Elec       q    Type
REMARK                         _______ _______ _______ _____ _____    ______ ____
ROOT
ATOM      1  C   UNL     1       0.788  10.467  19.738  0.00  0.00    +0.000 A 
ATOM      2  C   UNL     1       0.540  10.671  21.040  0.00  0.00    +0.000 A 
ATOM      3  C   UNL     1       0.754   9.655  22.079  0.00  0.00    +0.000 A 
ATOM      4  O   UNL     1       0.422   9.870  23.240  0.00  0.00    +0.000 OA
ATOM      5  O   UNL     1       1.336   8.464  21.687  0.00  0.00    +0.000 OA
ATOM      6  C   UNL     1       1.634   8.217  20.333  0.00  0.00    +0.000 A 
ATOM      7  C   UNL     1       2.240   6.993  20.039  0.00  0.00    +0.000 A 
ATOM      8  C   UNL     1       2.584   6.697  18.723  0.00  0.00    +0.000 A 
ATOM      9  C   UNL     1       2.243   7.594  17.712  0.00  0.00    +0.000 A 
ATOM     10  C   UNL     1       1.634   8.813  18.022  0.00  0.00    +0.000 A 
ATOM     11  C   UNL     1       1.340   9.159  19.345  0.00  0.00    +0.000 A 
ENDROOT
BRANCH   1  12
ATOM     12  N   UNL     1       0.508  11.426  18.765  0.00  0.00    +0.000 N 
ATOM     13  H   UNL     1       1.352  11.927  18.491  0.00  0.00    +0.000 HD
BRANCH  12  15
ATOM     14  C   UNL     1      -0.244  13.760  18.353  0.00  0.00    +0.000 C 
ATOM     15  C   UNL     1      -0.625  12.393  18.926  0.00  0.00    +0.000 C 
BRANCH  15  16
ATOM     16  C   UNL     1      -1.884  11.891  18.193  0.00  0.00    +0.000 C 
ATOM     17  N   UNL     1      -1.765  11.800  16.836  0.00  0.00    +0.000 N 
ATOM     18  O   UNL     1      -2.932  11.590  18.757  0.00  0.00    +0.000 OA
ATOM     19  H   UNL     1      -0.873  12.032  16.409  0.00  0.00    +0.000 HD
ATOM     20  H   UNL     1      -2.538  11.464  16.282  0.00  0.00    +0.000 HD
ENDBRANCH  15  16
ENDBRANCH  12  15
ENDBRANCH   1  12
BRANCH   8  21
ATOM     21  O   UNL     1       3.251   5.519  18.521  0.00  0.00    +0.000 OA
BRANCH  21  22
ATOM     22  C   UNL     1       4.123   5.512  17.386  0.00  0.00    +0.000 C 
BRANCH  22  23
ATOM     23  C   UNL     1       5.503   5.948  17.802  0.00  0.00    +0.000 A 
ATOM     24  C   UNL     1       6.151   6.995  17.135  0.00  0.00    +0.000 A 
ATOM     25  C   UNL     1       7.423   7.404  17.538  0.00  0.00    +0.000 A 
ATOM     26  C   UNL     1       8.056   6.769  18.606  0.00  0.00    +0.000 A 
ATOM     27  C   UNL     1       7.419   5.727  19.276  0.00  0.00    +0.000 A 
ATOM     28  C   UNL     1       6.149   5.318  18.876  0.00  0.00    +0.000 A 
ENDBRANCH  22  23
ENDBRANCH  21  22
ENDBRANCH   8  21
TORSDOF 6
ENDMDL
MODEL 8
REMARK VINA RESULT:      -8.1      3.567      8.257
REMARK  Name = 
REMARK  7 active torsions:
REMARK  status: ('A' for Active; 'I' for Inactive)
REMARK    1  A    between atoms: C_1  and  C_2
REMARK    2  A    between atoms: C_2  and  N_3
REMARK    3  A    between atoms: C_2  and  C_23
REMARK    4  A    between atoms: N_3  and  C_4
REMARK    5  A    between atoms: C_11  and  O_12
REMARK    6  A    between atoms: O_12  and  C_13
REMARK    7  A    between atoms: C_13  and  C_14
REMARK                            x       y       z     vdW  Elec       q    Type
REMARK                         _______ _______ _______ _____ _____    ______ ____
ROOT
ATOM      1  C   UNL     1       0.882  10.285  19.657  0.00  0.00    +0.000 A 
ATOM      2  C   UNL     1       0.641  10.490  20.960  0.00  0.00    +0.000 A 
ATOM      3  C   UNL     1       0.858   9.474  21.999  0.00  0.00    +0.000 A 
ATOM      4  O   UNL     1       0.531   9.690  23.161  0.00  0.00    +0.000 OA
ATOM      5  O   UNL     1       1.437   8.282  21.604  0.00  0.00    +0.000 OA
ATOM      6  C   UNL     1       1.727   8.034  20.249  0.00  0.00    +0.000 A 
ATOM      7  C   UNL     1       2.331   6.809  19.953  0.00  0.00    +0.000 A 
ATOM      8  C   UNL     1       2.668   6.512  18.635  0.00  0.00    +0.000 A 
ATOM      9  C   UNL     1       2.323   7.409  17.625  0.00  0.00    +0.000 A 
ATOM     10  C   UNL     1       1.718   8.629  17.937  0.00  0.00    +0.000 A 
ATOM     11  C   UNL     1       1.430   8.977  19.262  0.00  0.00    +0.000 A 
ENDROOT
BRANCH   1  12
ATOM     12  N   UNL     1       0.599  11.244  18.685  0.00  0.00    +0.000 N 
ATOM     13  H   UNL     1       1.344  11.938  18.626  0.00  0.00    +0.000 HD
BRANCH  12  15
ATOM     14  C   UNL     1      -0.574  13.364  18.129  0.00  0.00    +0.000 C 
ATOM     15  C   UNL     1      -0.733  11.926  18.627  0.00  0.00    +0.000 C 
BRANCH  15  16
ATOM     16  C   UNL     1      -1.690  11.183  17.673  0.00  0.00    +0.000 C 
ATOM     17  N   UNL     1      -2.769  11.909  17.257  0.00  0.00    +0.000 N 
ATOM     18  O   UNL     1      -1.524  10.026  17.300  0.00  0.00    +0.000 OA
ATOM     19  H   UNL     1      -2.855  12.872  17.566  0.00  0.00    +0.000 HD
ATOM     20  H   UNL     1      -3.434  11.502  16.618  0.00  0.00    +0.000 HD
ENDBRANCH  15  16
ENDBRANCH  12  15
ENDBRANCH   1  12
BRANCH   8  21
ATOM     21  O   UNL     1       3.332   5.333  18.430  0.00  0.00    +0.000 OA
BRANCH  21  22
ATOM     22  C   UNL     1       4.250   5.346  17.332  0.00  0.00    +0.000 C 
BRANCH  22  23
ATOM     23  C   UNL     1       5.585   5.873  17.791  0.00  0.00    +0.000 A 
ATOM     24  C   UNL     1       6.243   5.292  18.882  0.00  0.00    +0.000 A 
ATOM     25  C   UNL     1       7.487   5.775  19.290  0.00  0.00    +0.000 A 
ATOM     26  C   UNL     1       8.080   6.841  18.614  0.00  0.00    +0.000 A 
ATOM     27  C   UNL     1       7.433   7.424  17.527  0.00  0.00    +0.000 A 
ATOM     28  C   UNL     1       6.191   6.943  17.118  0.00  0.00    +0.000 A 
ENDBRANCH  22  23
ENDBRANCH  21  22
ENDBRANCH   8  21
TORSDOF 6
ENDMDL
MODEL 9
REMARK VINA RESULT:      -8.0      5.209      7.124
REMARK  Name = 
REMARK  7 active torsions:
REMARK  status: ('A' for Active; 'I' for Inactive)
REMARK    1  A    between atoms: C_1  and  C_2
REMARK    2  A    between atoms: C_2  and  N_3
REMARK    3  A    between atoms: C_2  and  C_23
REMARK    4  A    between atoms: N_3  and  C_4
REMARK    5  A    between atoms: C_11  and  O_12
REMARK    6  A    between atoms: O_12  and  C_13
REMARK    7  A    between atoms: C_13  and  C_14
REMARK                            x       y       z     vdW  Elec       q    Type
REMARK                         _______ _______ _______ _____ _____    ______ ____
ROOT
ATOM      1  C   UNL     1       5.425   3.765  16.913  0.00  0.00    +0.000 A 
ATOM      2  C   UNL     1       5.233   3.723  15.587  0.00  0.00    +0.000 A 
ATOM      3  C   UNL     1       5.708   4.761  14.661  0.00  0.00    +0.000 A 
ATOM      4  O   UNL     1       5.422   4.713  13.470  0.00  0.00    +0.000 OA
ATOM      5  O   UNL     1       6.476   5.779  15.196  0.00  0.00    +0.000 OA
ATOM      6  C   UNL     1       6.720   5.848  16.581  0.00  0.00    +0.000 A 
ATOM      7  C   UNL     1       7.525   6.902  17.021  0.00  0.00    +0.000 A 
ATOM      8  C   UNL     1       7.827   7.014  18.376  0.00  0.00    +0.000 A 
ATOM      9  C   UNL     1       7.253   6.119  19.278  0.00  0.00    +0.000 A 
ATOM     10  C   UNL     1       6.447   5.073  18.822  0.00  0.00    +0.000 A 
ATOM     11  C   UNL     1       6.185   4.902  17.458  0.00  0.00    +0.000 A 
ENDROOT
BRANCH   1  12
ATOM     12  N   UNL     1       4.901   2.800  17.774  0.00  0.00    +0.000 N 
ATOM     13  H   UNL     1       4.848   1.891  17.317  0.00  0.00    +0.000 HD
BRANCH  12  15
ATOM     14  C   UNL     1       2.480   2.267  17.948  0.00  0.00    +0.000 C 
ATOM     15  C   UNL     1       3.647   3.050  18.554  0.00  0.00    +0.000 C 
BRANCH  15  16
ATOM     16  C   UNL     1       3.816   2.615  20.023  0.00  0.00    +0.000 C 
ATOM     17  N   UNL     1       4.967   1.932  20.294  0.00  0.00    +0.000 N 
ATOM     18  O   UNL     1       2.995   2.846  20.905  0.00  0.00    +0.000 OA
ATOM     19  H   UNL     1       5.634   1.786  19.542  0.00  0.00    +0.000 HD
ATOM     20  H   UNL     1       5.163   1.627  21.234  0.00  0.00    +0.000 HD
ENDBRANCH  15  16
ENDBRANCH  12  15
ENDBRANCH   1  12
BRANCH   8  21
ATOM     21  O   UNL     1       8.689   8.019  18.724  0.00  0.00    +0.000 OA
BRANCH  21  22
ATOM     22  C   UNL     1       8.363   9.302  18.181  0.00  0.00    +0.000 C 
BRANCH  22  23
ATOM     23  C   UNL     1       9.301  10.342  18.736  0.00  0.00    +0.000 A 
ATOM     24  C   UNL     1      10.155  11.058  17.887  0.00  0.00    +0.000 A 
ATOM     25  C   UNL     1      11.008  12.031  18.407  0.00  0.00    +0.000 A 
ATOM     26  C   UNL     1      11.017  12.295  19.776  0.00  0.00    +0.000 A 
ATOM     27  C   UNL     1      10.170  11.590  20.628  0.00  0.00    +0.000 A 
ATOM     28  C   UNL     1       9.317  10.617  20.110  0.00  0.00    +0.000 A 
ENDBRANCH  22  23
ENDBRANCH  21  22
ENDBRANCH   8  21
TORSDOF 6
ENDMDL
