MODEL 1
REMARK VINA RESULT:      -9.1      0.000      0.000
REMARK  Name = 
REMARK  6 active torsions:
REMARK  status: ('A' for Active; 'I' for Inactive)
REMARK    1  A    between atoms: C_2  and  O_3
REMARK    2  A    between atoms: C_2  and  C_4
REMARK    3  A    between atoms: C_5  and  N_6
REMARK    4  A    between atoms: C_7  and  C_9
REMARK    5  A    between atoms: C_9  and  C_10
REMARK    6  A    between atoms: C_9  and  C_16
REMARK                            x       y       z     vdW  Elec       q    Type
REMARK                         _______ _______ _______ _____ _____    ______ ____
ROOT
ATOM      1  N   UNL     1       1.782   8.136  20.199  0.00  0.00    +0.000 N 
ATOM      2  C   UNL     1       2.196   7.445  19.036  0.00  0.00    +0.000 C 
ATOM      3  O   UNL     1       1.898   7.778  17.901  0.00  0.00    +0.000 OA
ATOM      4  H   UNL     1       1.933   7.717  21.108  0.00  0.00    +0.000 HD
ENDROOT
BRANCH   1   6
ATOM      5  C   UNL     1       0.222   9.894  21.152  0.00  0.00    +0.000 A 
ATOM      6  C   UNL     1       1.037   9.330  20.168  0.00  0.00    +0.000 A 
ATOM      7  S   UNL     1       1.112  10.326  18.782  0.00  0.00    +0.000 S 
ATOM      8  C   UNL     1       0.011  11.439  19.401  0.00  0.00    +0.000 A 
ATOM      9  C   UNL     1      -0.416  11.115  20.668  0.00  0.00    +0.000 A 
ATOM     10  C   UNL     1      -1.382  12.015  21.394  0.00  0.00    +0.000 C 
ATOM     11  C   UNL     1      -2.150  12.927  20.432  0.00  0.00    +0.000 C 
ATOM     12  C   UNL     1      -1.203  13.622  19.454  0.00  0.00    +0.000 C 
ATOM     13  C   UNL     1      -0.443  12.613  18.585  0.00  0.00    +0.000 C 
BRANCH   5  15
ATOM     14  O   UNL     1       0.531   9.729  23.486  0.00  0.00    +0.000 OA
ATOM     15  C   UNL     1      -0.002   9.305  22.463  0.00  0.00    +0.000 C 
BRANCH  15  16
ATOM     16  O   UNL     1      -0.808   8.220  22.483  0.00  0.00    +0.000 OA
ATOM     17  H   UNL     1      -0.300   7.424  22.713  0.00  0.00    +0.000 HD
ENDBRANCH  15  16
ENDBRANCH   5  15
ENDBRANCH   1   6
BRANCH   2  18
ATOM     18  C   UNL     1       3.110   6.205  19.299  0.00  0.00    +0.000 C 
BRANCH  18  19
ATOM     19  C   UNL     1       2.345   4.991  19.861  0.00  0.00    +0.000 A 
ATOM     20  C   UNL     1       2.575   4.514  21.160  0.00  0.00    +0.000 A 
ATOM     21  C   UNL     1       1.966   3.341  21.617  0.00  0.00    +0.000 A 
ATOM     22  C   UNL     1       1.109   2.624  20.784  0.00  0.00    +0.000 A 
ATOM     23  C   UNL     1       0.826   3.106  19.511  0.00  0.00    +0.000 A 
ATOM     24  C   UNL     1       1.417   4.293  19.060  0.00  0.00    +0.000 A 
ENDBRANCH  18  19
BRANCH  18  25
ATOM     25  C   UNL     1       3.927   5.852  18.052  0.00  0.00    +0.000 A 
ATOM     26  C   UNL     1       4.499   6.873  17.268  0.00  0.00    +0.000 A 
ATOM     27  C   UNL     1       5.161   6.578  16.075  0.00  0.00    +0.000 A 
ATOM     28  C   UNL     1       5.316   5.256  15.668  0.00  0.00    +0.000 A 
ATOM     29  C   UNL     1       4.814   4.231  16.468  0.00  0.00    +0.000 A 
ATOM     30  C   UNL     1       4.131   4.526  17.635  0.00  0.00    +0.000 A 
ENDBRANCH  18  25
ENDBRANCH   2  18
TORSDOF 6
ENDMDL
MODEL 2
REMARK VINA RESULT:      -9.0      1.471      3.764
REMARK  Name = 
REMARK  6 active torsions:
REMARK  status: ('A' for Active; 'I' for Inactive)
REMARK    1  A    between atoms: C_2  and  O_3
REMARK    2  A    between atoms: C_2  and  C_4
REMARK    3  A    between atoms: C_5  and  N_6
REMARK    4  A    between atoms: C_7  and  C_9
REMARK    5  A    between atoms: C_9  and  C_10
REMARK    6  A    between atoms: C_9  and  C_16
REMARK                            x       y       z     vdW  Elec       q    Type
REMARK                         _______ _______ _______ _____ _____    ______ ____
ROOT
ATOM      1  N   UNL     1       1.795   7.578  18.438  0.00  0.00    +0.000 N 
ATOM      2  C   UNL     1       3.082   7.133  18.057  0.00  0.00    +0.000 C 
ATOM      3  O   UNL     1       4.066   7.852  18.001  0.00  0.00    +0.000 OA
ATOM      4  H   UNL     1       0.998   6.967  18.311  0.00  0.00    +0.000 HD
ENDROOT
BRANCH   1   6
ATOM      5  C   UNL     1       1.034   9.343  20.092  0.00  0.00    +0.000 A 
ATOM      6  C   UNL     1       1.524   8.892  18.865  0.00  0.00    +0.000 A 
ATOM      7  S   UNL     1       1.852  10.198  17.813  0.00  0.00    +0.000 S 
ATOM      8  C   UNL     1       1.265  11.346  18.895  0.00  0.00    +0.000 A 
ATOM      9  C   UNL     1       0.840  10.791  20.079  0.00  0.00    +0.000 A 
ATOM     10  C   UNL     1       0.311  11.672  21.181  0.00  0.00    +0.000 C 
ATOM     11  C   UNL     1      -0.147  13.036  20.654  0.00  0.00    +0.000 C 
ATOM     12  C   UNL     1       0.915  13.665  19.753  0.00  0.00    +0.000 C 
ATOM     13  C   UNL     1       1.203  12.797  18.523  0.00  0.00    +0.000 C 
BRANCH   5  15
ATOM     14  O   UNL     1      -0.431   8.359  21.660  0.00  0.00    +0.000 OA
ATOM     15  C   UNL     1       0.707   8.474  21.211  0.00  0.00    +0.000 C 
BRANCH  15  16
ATOM     16  O   UNL     1       1.754   7.823  21.766  0.00  0.00    +0.000 OA
ATOM     17  H   UNL     1       2.583   8.300  21.589  0.00  0.00    +0.000 HD
ENDBRANCH  15  16
ENDBRANCH   5  15
ENDBRANCH   1   6
BRANCH   2  18
ATOM     18  C   UNL     1       3.179   5.608  17.727  0.00  0.00    +0.000 C 
BRANCH  18  19
ATOM     19  C   UNL     1       4.613   5.140  17.416  0.00  0.00    +0.000 A 
ATOM     20  C   UNL     1       5.606   5.103  18.407  0.00  0.00    +0.000 A 
ATOM     21  C   UNL     1       6.932   4.793  18.089  0.00  0.00    +0.000 A 
ATOM     22  C   UNL     1       7.291   4.509  16.772  0.00  0.00    +0.000 A 
ATOM     23  C   UNL     1       6.315   4.490  15.782  0.00  0.00    +0.000 A 
ATOM     24  C   UNL     1       4.982   4.777  16.104  0.00  0.00    +0.000 A 
ENDBRANCH  18  19
BRANCH  18  25
ATOM     25  C   UNL     1       2.516   4.767  18.822  0.00  0.00    +0.000 A 
ATOM     26  C   UNL     1       1.588   3.763  18.480  0.00  0.00    +0.000 A 
ATOM     27  C   UNL     1       0.899   3.055  19.465  0.00  0.00    +0.000 A 
ATOM     28  C   UNL     1       1.161   3.291  20.811  0.00  0.00    +0.000 A 
ATOM     29  C   UNL     1       2.126   4.233  21.164  0.00  0.00    +0.000 A 
ATOM     30  C   UNL     1       2.787   4.957  20.187  0.00  0.00    +0.000 A 
ENDBRANCH  18  25
ENDBRANCH   2  18
TORSDOF 6
ENDMDL
MODEL 3
REMARK VINA RESULT:      -9.0      0.210      1.109
REMARK  Name = 
REMARK  6 active torsions:
REMARK  status: ('A' for Active; 'I' for Inactive)
REMARK    1  A    between atoms: C_2  and  O_3
REMARK    2  A    between atoms: C_2  and  C_4
REMARK    3  A    between atoms: C_5  and  N_6
REMARK    4  A    between atoms: C_7  and  C_9
REMARK    5  A    between atoms: C_9  and  C_10
REMARK    6  A    between atoms: C_9  and  C_16
REMARK                            x       y       z     vdW  Elec       q    Type
REMARK                         _______ _______ _______ _____ _____    ______ ____
ROOT
ATOM      1  N   UNL     1       1.946   8.124  20.053  0.00  0.00    +0.000 N 
ATOM      2  C   UNL     1       2.229   7.336  18.913  0.00  0.00    +0.000 C 
ATOM      3  O   UNL     1       1.786   7.561  17.799  0.00  0.00    +0.000 OA
ATOM      4  H   UNL     1       2.218   7.791  20.970  0.00  0.00    +0.000 HD
ENDROOT
BRANCH   1   6
ATOM      5  C   UNL     1       0.283   9.814  20.953  0.00  0.00    +0.000 A 
ATOM      6  C   UNL     1       1.177   9.302  20.010  0.00  0.00    +0.000 A 
ATOM      7  S   UNL     1       1.324  10.348  18.667  0.00  0.00    +0.000 S 
ATOM      8  C   UNL     1       0.157  11.415  19.245  0.00  0.00    +0.000 A 
ATOM      9  C   UNL     1      -0.349  11.038  20.467  0.00  0.00    +0.000 A 
ATOM     10  C   UNL     1      -1.384  11.890  21.153  0.00  0.00    +0.000 C 
ATOM     11  C   UNL     1      -2.105  12.820  20.171  0.00  0.00    +0.000 C 
ATOM     12  C   UNL     1      -1.108  13.568  19.286  0.00  0.00    +0.000 C 
ATOM     13  C   UNL     1      -0.267  12.607  18.439  0.00  0.00    +0.000 C 
BRANCH   5  15
ATOM     14  O   UNL     1      -0.788   8.223  22.331  0.00  0.00    +0.000 OA
ATOM     15  C   UNL     1      -0.017   9.175  22.225  0.00  0.00    +0.000 C 
BRANCH  15  16
ATOM     16  O   UNL     1       0.575   9.728  23.307  0.00  0.00    +0.000 OA
ATOM     17  H   UNL     1       0.404  10.685  23.335  0.00  0.00    +0.000 HD
ENDBRANCH  15  16
ENDBRANCH   5  15
ENDBRANCH   1   6
BRANCH   2  18
ATOM     18  C   UNL     1       3.195   6.134  19.168  0.00  0.00    +0.000 C 
BRANCH  18  19
ATOM     19  C   UNL     1       2.487   4.893  19.746  0.00  0.00    +0.000 A 
ATOM     20  C   UNL     1       1.456   4.244  19.052  0.00  0.00    +0.000 A 
ATOM     21  C   UNL     1       0.740   3.195  19.637  0.00  0.00    +0.000 A 
ATOM     22  C   UNL     1       1.046   2.771  20.929  0.00  0.00    +0.000 A 
ATOM     23  C   UNL     1       2.098   3.365  21.617  0.00  0.00    +0.000 A 
ATOM     24  C   UNL     1       2.831   4.400  21.023  0.00  0.00    +0.000 A 
ENDBRANCH  18  19
BRANCH  18  25
ATOM     25  C   UNL     1       4.008   5.808  17.912  0.00  0.00    +0.000 A 
ATOM     26  C   UNL     1       4.622   6.842  17.178  0.00  0.00    +0.000 A 
ATOM     27  C   UNL     1       5.282   6.577  15.977  0.00  0.00    +0.000 A 
ATOM     28  C   UNL     1       5.393   5.271  15.511  0.00  0.00    +0.000 A 
ATOM     29  C   UNL     1       4.849   4.230  16.261  0.00  0.00    +0.000 A 
ATOM     30  C   UNL     1       4.169   4.496  17.437  0.00  0.00    +0.000 A 
ENDBRANCH  18  25
ENDBRANCH   2  18
TORSDOF 6
ENDMDL
MODEL 4
REMARK VINA RESULT:      -9.0      3.052      8.100
REMARK  Name = 
REMARK  6 active torsions:
REMARK  status: ('A' for Active; 'I' for Inactive)
REMARK    1  A    between atoms: C_2  and  O_3
REMARK    2  A    between atoms: C_2  and  C_4
REMARK    3  A    between atoms: C_5  and  N_6
REMARK    4  A    between atoms: C_7  and  C_9
REMARK    5  A    between atoms: C_9  and  C_10
REMARK    6  A    between atoms: C_9  and  C_16
REMARK                            x       y       z     vdW  Elec       q    Type
REMARK                         _______ _______ _______ _____ _____    ______ ____
ROOT
ATOM      1  N   UNL     1       4.532   5.246  17.901  0.00  0.00    +0.000 N 
ATOM      2  C   UNL     1       3.743   6.392  18.153  0.00  0.00    +0.000 C 
ATOM      3  O   UNL     1       3.608   7.316  17.368  0.00  0.00    +0.000 OA
ATOM      4  H   UNL     1       4.724   4.597  18.654  0.00  0.00    +0.000 HD
ENDROOT
BRANCH   1   6
ATOM      5  C   UNL     1       6.446   5.455  16.250  0.00  0.00    +0.000 A 
ATOM      6  C   UNL     1       5.193   5.013  16.680  0.00  0.00    +0.000 A 
ATOM      7  S   UNL     1       4.452   4.018  15.505  0.00  0.00    +0.000 S 
ATOM      8  C   UNL     1       5.696   4.237  14.392  0.00  0.00    +0.000 A 
ATOM      9  C   UNL     1       6.710   5.029  14.878  0.00  0.00    +0.000 A 
ATOM     10  C   UNL     1       7.923   5.309  14.031  0.00  0.00    +0.000 C 
ATOM     11  C   UNL     1       7.649   5.077  12.541  0.00  0.00    +0.000 C 
ATOM     12  C   UNL     1       6.974   3.725  12.308  0.00  0.00    +0.000 C 
ATOM     13  C   UNL     1       5.620   3.636  13.020  0.00  0.00    +0.000 C 
BRANCH   5  15
ATOM     14  O   UNL     1       7.788   7.354  16.657  0.00  0.00    +0.000 OA
ATOM     15  C   UNL     1       7.340   6.279  17.048  0.00  0.00    +0.000 C 
BRANCH  15  16
ATOM     16  O   UNL     1       7.691   5.762  18.247  0.00  0.00    +0.000 OA
ATOM     17  H   UNL     1       7.295   6.280  18.969  0.00  0.00    +0.000 HD
ENDBRANCH  15  16
ENDBRANCH   5  15
ENDBRANCH   1   6
BRANCH   2  18
ATOM     18  C   UNL     1       3.008   6.394  19.533  0.00  0.00    +0.000 C 
BRANCH  18  19
ATOM     19  C   UNL     1       2.097   7.619  19.738  0.00  0.00    +0.000 A 
ATOM     20  C   UNL     1       1.429   7.844  20.951  0.00  0.00    +0.000 A 
ATOM     21  C   UNL     1       0.512   8.891  21.087  0.00  0.00    +0.000 A 
ATOM     22  C   UNL     1       0.247   9.737  20.011  0.00  0.00    +0.000 A 
ATOM     23  C   UNL     1       0.935   9.565  18.816  0.00  0.00    +0.000 A 
ATOM     24  C   UNL     1       1.872   8.531  18.686  0.00  0.00    +0.000 A 
ENDBRANCH  18  19
BRANCH  18  25
ATOM     25  C   UNL     1       2.268   5.073  19.762  0.00  0.00    +0.000 A 
ATOM     26  C   UNL     1       2.262   4.476  21.038  0.00  0.00    +0.000 A 
ATOM     27  C   UNL     1       1.680   3.225  21.245  0.00  0.00    +0.000 A 
ATOM     28  C   UNL     1       1.043   2.567  20.197  0.00  0.00    +0.000 A 
ATOM     29  C   UNL     1       0.982   3.175  18.944  0.00  0.00    +0.000 A 
ATOM     30  C   UNL     1       1.586   4.402  18.733  0.00  0.00    +0.000 A 
ENDBRANCH  18  25
ENDBRANCH   2  18
TORSDOF 6
ENDMDL
MODEL 5
REMARK VINA RESULT:      -9.0      0.161      1.292
REMARK  Name = 
REMARK  6 active torsions:
REMARK  status: ('A' for Active; 'I' for Inactive)
REMARK    1  A    between atoms: C_2  and  O_3
REMARK    2  A    between atoms: C_2  and  C_4
REMARK    3  A    between atoms: C_5  and  N_6
REMARK    4  A    between atoms: C_7  and  C_9
REMARK    5  A    between atoms: C_9  and  C_10
REMARK    6  A    between atoms: C_9  and  C_16
REMARK                            x       y       z     vdW  Elec       q    Type
REMARK                         _______ _______ _______ _____ _____    ______ ____
ROOT
ATOM      1  N   UNL     1       1.877   8.128  20.129  0.00  0.00    +0.000 N 
ATOM      2  C   UNL     1       2.172   7.375  18.970  0.00  0.00    +0.000 C 
ATOM      3  O   UNL     1       1.733   7.628  17.860  0.00  0.00    +0.000 OA
ATOM      4  H   UNL     1       2.146   7.772  21.038  0.00  0.00    +0.000 HD
ENDROOT
BRANCH   1   6
ATOM      5  C   UNL     1       0.295   9.845  21.120  0.00  0.00    +0.000 A 
ATOM      6  C   UNL     1       1.097   9.300  20.115  0.00  0.00    +0.000 A 
ATOM      7  S   UNL     1       1.104  10.293  18.724  0.00  0.00    +0.000 S 
ATOM      8  C   UNL     1      -0.010  11.376  19.370  0.00  0.00    +0.000 A 
ATOM      9  C   UNL     1      -0.392  11.046  20.650  0.00  0.00    +0.000 A 
ATOM     10  C   UNL     1      -1.362  11.921  21.400  0.00  0.00    +0.000 C 
ATOM     11  C   UNL     1      -2.183  12.807  20.457  0.00  0.00    +0.000 C 
ATOM     12  C   UNL     1      -1.284  13.524  19.450  0.00  0.00    +0.000 C 
ATOM     13  C   UNL     1      -0.520  12.533  18.563  0.00  0.00    +0.000 C 
BRANCH   5  15
ATOM     14  O   UNL     1       0.799   9.588  23.412  0.00  0.00    +0.000 OA
ATOM     15  C   UNL     1       0.125   9.257  22.439  0.00  0.00    +0.000 C 
BRANCH  15  16
ATOM     16  O   UNL     1      -0.803   8.276  22.523  0.00  0.00    +0.000 OA
ATOM     17  H   UNL     1      -0.624   7.583  21.864  0.00  0.00    +0.000 HD
ENDBRANCH  15  16
ENDBRANCH   5  15
ENDBRANCH   1   6
BRANCH   2  18
ATOM     18  C   UNL     1       3.148   6.175  19.196  0.00  0.00    +0.000 C 
BRANCH  18  19
ATOM     19  C   UNL     1       2.458   4.929  19.783  0.00  0.00    +0.000 A 
ATOM     20  C   UNL     1       1.428   4.267  19.098  0.00  0.00    +0.000 A 
ATOM     21  C   UNL     1       0.727   3.212  19.692  0.00  0.00    +0.000 A 
ATOM     22  C   UNL     1       1.047   2.796  20.983  0.00  0.00    +0.000 A 
ATOM     23  C   UNL     1       2.098   3.403  21.661  0.00  0.00    +0.000 A 
ATOM     24  C   UNL     1       2.816   4.444  21.058  0.00  0.00    +0.000 A 
ENDBRANCH  18  19
BRANCH  18  25
ATOM     25  C   UNL     1       3.934   5.859  17.920  0.00  0.00    +0.000 A 
ATOM     26  C   UNL     1       4.012   4.534  17.447  0.00  0.00    +0.000 A 
ATOM     27  C   UNL     1       4.804   4.209  16.345  0.00  0.00    +0.000 A 
ATOM     28  C   UNL     1       5.491   5.206  15.658  0.00  0.00    +0.000 A 
ATOM     29  C   UNL     1       5.369   6.531  16.073  0.00  0.00    +0.000 A 
ATOM     30  C   UNL     1       4.607   6.847  17.184  0.00  0.00    +0.000 A 
ENDBRANCH  18  25
ENDBRANCH   2  18
TORSDOF 6
ENDMDL
MODEL 6
REMARK VINA RESULT:      -9.0      1.070      1.565
REMARK  Name = 
REMARK  6 active torsions:
REMARK  status: ('A' for Active; 'I' for Inactive)
REMARK    1  A    between atoms: C_2  and  O_3
REMARK    2  A    between atoms: C_2  and  C_4
REMARK    3  A    between atoms: C_5  and  N_6
REMARK    4  A    between atoms: C_7  and  C_9
REMARK    5  A    between atoms: C_9  and  C_10
REMARK    6  A    between atoms: C_9  and  C_16
REMARK                            x       y       z     vdW  Elec       q    Type
REMARK                         _______ _______ _______ _____ _____    ______ ____
ROOT
ATOM      1  N   UNL     1       1.919   7.964  20.314  0.00  0.00    +0.000 N 
ATOM      2  C   UNL     1       2.283   7.188  19.189  0.00  0.00    +0.000 C 
ATOM      3  O   UNL     1       1.957   7.450  18.043  0.00  0.00    +0.000 OA
ATOM      4  H   UNL     1       2.090   7.604  21.245  0.00  0.00    +0.000 HD
ENDROOT
BRANCH   1   6
ATOM      5  C   UNL     1       0.381   9.788  21.174  0.00  0.00    +0.000 A 
ATOM      6  C   UNL     1       1.197   9.169  20.225  0.00  0.00    +0.000 A 
ATOM      7  S   UNL     1       1.306  10.105  18.800  0.00  0.00    +0.000 S 
ATOM      8  C   UNL     1       0.219  11.263  19.359  0.00  0.00    +0.000 A 
ATOM      9  C   UNL     1      -0.228  11.000  20.632  0.00  0.00    +0.000 A 
ATOM     10  C   UNL     1      -1.185  11.946  21.309  0.00  0.00    +0.000 C 
ATOM     11  C   UNL     1      -1.925  12.832  20.300  0.00  0.00    +0.000 C 
ATOM     12  C   UNL     1      -0.954  13.468  19.306  0.00  0.00    +0.000 C 
ATOM     13  C   UNL     1      -0.203  12.410  18.489  0.00  0.00    +0.000 C 
BRANCH   5  15
ATOM     14  O   UNL     1       0.786   9.592  23.492  0.00  0.00    +0.000 OA
ATOM     15  C   UNL     1       0.131   9.259  22.506  0.00  0.00    +0.000 C 
BRANCH  15  16
ATOM     16  O   UNL     1      -0.849   8.332  22.588  0.00  0.00    +0.000 OA
ATOM     17  H   UNL     1      -1.660   8.727  22.951  0.00  0.00    +0.000 HD
ENDBRANCH  15  16
ENDBRANCH   5  15
ENDBRANCH   1   6
BRANCH   2  18
ATOM     18  C   UNL     1       3.180   5.949  19.508  0.00  0.00    +0.000 C 
BRANCH  18  19
ATOM     19  C   UNL     1       2.454   4.604  19.316  0.00  0.00    +0.000 A 
ATOM     20  C   UNL     1       2.689   3.794  18.196  0.00  0.00    +0.000 A 
ATOM     21  C   UNL     1       1.937   2.636  17.971  0.00  0.00    +0.000 A 
ATOM     22  C   UNL     1       0.937   2.263  18.868  0.00  0.00    +0.000 A 
ATOM     23  C   UNL     1       0.721   3.022  20.012  0.00  0.00    +0.000 A 
ATOM     24  C   UNL     1       1.489   4.169  20.250  0.00  0.00    +0.000 A 
ENDBRANCH  18  19
BRANCH  18  25
ATOM     25  C   UNL     1       4.500   6.013  18.734  0.00  0.00    +0.000 A 
ATOM     26  C   UNL     1       5.655   5.394  19.251  0.00  0.00    +0.000 A 
ATOM     27  C   UNL     1       6.889   5.525  18.612  0.00  0.00    +0.000 A 
ATOM     28  C   UNL     1       6.987   6.230  17.416  0.00  0.00    +0.000 A 
ATOM     29  C   UNL     1       5.841   6.791  16.857  0.00  0.00    +0.000 A 
ATOM     30  C   UNL     1       4.623   6.685  17.507  0.00  0.00    +0.000 A 
ENDBRANCH  18  25
ENDBRANCH   2  18
TORSDOF 6
ENDMDL
MODEL 7
REMARK VINA RESULT:      -8.9      3.012      8.118
REMARK  Name = 
REMARK  6 active torsions:
REMARK  status: ('A' for Active; 'I' for Inactive)
REMARK    1  A    between atoms: C_2  and  O_3
REMARK    2  A    between atoms: C_2  and  C_4
REMARK    3  A    between atoms: C_5  and  N_6
REMARK    4  A    between atoms: C_7  and  C_9
REMARK    5  A    between atoms: C_9  and  C_10
REMARK    6  A    between atoms: C_9  and  C_16
REMARK                            x       y       z     vdW  Elec       q    Type
REMARK                         _______ _______ _______ _____ _____    ______ ____
ROOT
ATOM      1  N   UNL     1       4.602   5.326  18.034  0.00  0.00    +0.000 N 
ATOM      2  C   UNL     1       3.655   6.358  18.226  0.00  0.00    +0.000 C 
ATOM      3  O   UNL     1       3.341   7.166  17.367  0.00  0.00    +0.000 OA
ATOM      4  H   UNL     1       4.929   4.794  18.831  0.00  0.00    +0.000 HD
ENDROOT
BRANCH   1   6
ATOM      5  C   UNL     1       6.476   5.511  16.335  0.00  0.00    +0.000 A 
ATOM      6  C   UNL     1       5.235   5.073  16.803  0.00  0.00    +0.000 A 
ATOM      7  S   UNL     1       4.471   4.054  15.663  0.00  0.00    +0.000 S 
ATOM      8  C   UNL     1       5.688   4.256  14.518  0.00  0.00    +0.000 A 
ATOM      9  C   UNL     1       6.710   5.061  14.965  0.00  0.00    +0.000 A 
ATOM     10  C   UNL     1       7.902   5.330  14.085  0.00  0.00    +0.000 C 
ATOM     11  C   UNL     1       7.594   5.069  12.606  0.00  0.00    +0.000 C 
ATOM     12  C   UNL     1       6.919   3.711  12.414  0.00  0.00    +0.000 C 
ATOM     13  C   UNL     1       5.581   3.631  13.159  0.00  0.00    +0.000 C 
BRANCH   5  15
ATOM     14  O   UNL     1       7.813   7.426  16.679  0.00  0.00    +0.000 OA
ATOM     15  C   UNL     1       7.386   6.352  17.097  0.00  0.00    +0.000 C 
BRANCH  15  16
ATOM     16  O   UNL     1       7.775   5.853  18.292  0.00  0.00    +0.000 OA
ATOM     17  H   UNL     1       7.885   6.570  18.940  0.00  0.00    +0.000 HD
ENDBRANCH  15  16
ENDBRANCH   5  15
ENDBRANCH   1   6
BRANCH   2  18
ATOM     18  C   UNL     1       2.993   6.389  19.641  0.00  0.00    +0.000 C 
BRANCH  18  19
ATOM     19  C   UNL     1       2.007   7.557  19.829  0.00  0.00    +0.000 A 
ATOM     20  C   UNL     1       1.845   8.548  18.850  0.00  0.00    +0.000 A 
ATOM     21  C   UNL     1       1.039   9.667  19.081  0.00  0.00    +0.000 A 
ATOM     22  C   UNL     1       0.374   9.814  20.298  0.00  0.00    +0.000 A 
ATOM     23  C   UNL     1       0.478   8.819  21.263  0.00  0.00    +0.000 A 
ATOM     24  C   UNL     1       1.267   7.687  21.023  0.00  0.00    +0.000 A 
ENDBRANCH  18  19
BRANCH  18  25
ATOM     25  C   UNL     1       2.364   5.034  19.981  0.00  0.00    +0.000 A 
ATOM     26  C   UNL     1       1.548   4.376  19.040  0.00  0.00    +0.000 A 
ATOM     27  C   UNL     1       0.885   3.193  19.366  0.00  0.00    +0.000 A 
ATOM     28  C   UNL     1       1.064   2.610  20.617  0.00  0.00    +0.000 A 
ATOM     29  C   UNL     1       1.920   3.215  21.536  0.00  0.00    +0.000 A 
ATOM     30  C   UNL     1       2.555   4.404  21.222  0.00  0.00    +0.000 A 
ENDBRANCH  18  25
ENDBRANCH   2  18
TORSDOF 6
ENDMDL
MODEL 8
REMARK VINA RESULT:      -8.9      0.953      1.085
REMARK  Name = 
REMARK  6 active torsions:
REMARK  status: ('A' for Active; 'I' for Inactive)
REMARK    1  A    between atoms: C_2  and  O_3
REMARK    2  A    between atoms: C_2  and  C_4
REMARK    3  A    between atoms: C_5  and  N_6
REMARK    4  A    between atoms: C_7  and  C_9
REMARK    5  A    between atoms: C_9  and  C_10
REMARK    6  A    between atoms: C_9  and  C_16
REMARK                            x       y       z     vdW  Elec       q    Type
REMARK                         _______ _______ _______ _____ _____    ______ ____
ROOT
ATOM      1  N   UNL     1       1.797   8.070  20.359  0.00  0.00    +0.000 N 
ATOM      2  C   UNL     1       2.189   7.334  19.217  0.00  0.00    +0.000 C 
ATOM      3  O   UNL     1       1.924   7.658  18.071  0.00  0.00    +0.000 OA
ATOM      4  H   UNL     1       1.914   7.663  21.279  0.00  0.00    +0.000 HD
ENDROOT
BRANCH   1   6
ATOM      5  C   UNL     1       0.286   9.908  21.237  0.00  0.00    +0.000 A 
ATOM      6  C   UNL     1       1.117   9.301  20.293  0.00  0.00    +0.000 A 
ATOM      7  S   UNL     1       1.308  10.289  18.912  0.00  0.00    +0.000 S 
ATOM      8  C   UNL     1       0.238  11.458  19.479  0.00  0.00    +0.000 A 
ATOM      9  C   UNL     1      -0.264  11.160  20.724  0.00  0.00    +0.000 A 
ATOM     10  C   UNL     1      -1.216  12.109  21.403  0.00  0.00    +0.000 C 
ATOM     11  C   UNL     1      -1.890  13.058  20.406  0.00  0.00    +0.000 C 
ATOM     12  C   UNL     1      -0.863  13.700  19.475  0.00  0.00    +0.000 C 
ATOM     13  C   UNL     1      -0.116  12.652  18.642  0.00  0.00    +0.000 C 
BRANCH   5  15
ATOM     14  O   UNL     1       0.415   9.783  23.592  0.00  0.00    +0.000 OA
ATOM     15  C   UNL     1      -0.029   9.335  22.537  0.00  0.00    +0.000 C 
BRANCH  15  16
ATOM     16  O   UNL     1      -0.816   8.236  22.511  0.00  0.00    +0.000 OA
ATOM     17  H   UNL     1      -0.456   7.575  21.896  0.00  0.00    +0.000 HD
ENDBRANCH  15  16
ENDBRANCH   5  15
ENDBRANCH   1   6
BRANCH   2  18
ATOM     18  C   UNL     1       3.032   6.053  19.518  0.00  0.00    +0.000 C 
BRANCH  18  19
ATOM     19  C   UNL     1       2.239   4.744  19.344  0.00  0.00    +0.000 A 
ATOM     20  C   UNL     1       1.470   4.206  20.386  0.00  0.00    +0.000 A 
ATOM     21  C   UNL     1       0.852   2.957  20.258  0.00  0.00    +0.000 A 
ATOM     22  C   UNL     1       0.988   2.225  19.079  0.00  0.00    +0.000 A 
ATOM     23  C   UNL     1       1.702   2.762  18.014  0.00  0.00    +0.000 A 
ATOM     24  C   UNL     1       2.301   4.022  18.133  0.00  0.00    +0.000 A 
ENDBRANCH  18  19
BRANCH  18  25
ATOM     25  C   UNL     1       4.337   6.054  18.716  0.00  0.00    +0.000 A 
ATOM     26  C   UNL     1       4.414   6.743  17.489  0.00  0.00    +0.000 A 
ATOM     27  C   UNL     1       5.559   6.673  16.696  0.00  0.00    +0.000 A 
ATOM     28  C   UNL     1       6.673   5.962  17.133  0.00  0.00    +0.000 A 
ATOM     29  C   UNL     1       6.636   5.331  18.375  0.00  0.00    +0.000 A 
ATOM     30  C   UNL     1       5.489   5.376  19.148  0.00  0.00    +0.000 A 
ENDBRANCH  18  25
ENDBRANCH   2  18
TORSDOF 6
ENDMDL
MODEL 9
REMARK VINA RESULT:      -8.9      2.043      4.154
REMARK  Name = 
REMARK  6 active torsions:
REMARK  status: ('A' for Active; 'I' for Inactive)
REMARK    1  A    between atoms: C_2  and  O_3
REMARK    2  A    between atoms: C_2  and  C_4
REMARK    3  A    between atoms: C_5  and  N_6
REMARK    4  A    between atoms: C_7  and  C_9
REMARK    5  A    between atoms: C_9  and  C_10
REMARK    6  A    between atoms: C_9  and  C_16
REMARK                            x       y       z     vdW  Elec       q    Type
REMARK                         _______ _______ _______ _____ _____    ______ ____
ROOT
ATOM      1  N   UNL     1       1.951   8.020  18.909  0.00  0.00    +0.000 N 
ATOM      2  C   UNL     1       2.552   6.822  19.358  0.00  0.00    +0.000 C 
ATOM      3  O   UNL     1       2.573   6.462  20.524  0.00  0.00    +0.000 OA
ATOM      4  H   UNL     1       2.107   8.332  17.959  0.00  0.00    +0.000 HD
ENDROOT
BRANCH   1   6
ATOM      5  C   UNL     1       1.001  10.265  19.610  0.00  0.00    +0.000 A 
ATOM      6  C   UNL     1       1.245   8.898  19.754  0.00  0.00    +0.000 A 
ATOM      7  S   UNL     1       0.504   8.283  21.166  0.00  0.00    +0.000 S 
ATOM      8  C   UNL     1      -0.048   9.797  21.654  0.00  0.00    +0.000 A 
ATOM      9  C   UNL     1       0.277  10.793  20.764  0.00  0.00    +0.000 A 
ATOM     10  C   UNL     1      -0.161  12.211  21.022  0.00  0.00    +0.000 C 
ATOM     11  C   UNL     1      -0.494  12.450  22.499  0.00  0.00    +0.000 C 
ATOM     12  C   UNL     1      -1.420  11.359  23.038  0.00  0.00    +0.000 C 
ATOM     13  C   UNL     1      -0.773   9.972  22.955  0.00  0.00    +0.000 C 
BRANCH   5  15
ATOM     14  O   UNL     1       1.495  12.291  18.504  0.00  0.00    +0.000 OA
ATOM     15  C   UNL     1       1.460  11.063  18.484  0.00  0.00    +0.000 C 
BRANCH  15  16
ATOM     16  O   UNL     1       1.810  10.364  17.381  0.00  0.00    +0.000 OA
ATOM     17  H   UNL     1       2.133  10.964  16.687  0.00  0.00    +0.000 HD
ENDBRANCH  15  16
ENDBRANCH   5  15
ENDBRANCH   1   6
BRANCH   2  18
ATOM     18  C   UNL     1       3.186   5.943  18.232  0.00  0.00    +0.000 C 
BRANCH  18  19
ATOM     19  C   UNL     1       4.726   5.980  18.223  0.00  0.00    +0.000 A 
ATOM     20  C   UNL     1       5.483   5.361  19.229  0.00  0.00    +0.000 A 
ATOM     21  C   UNL     1       6.874   5.503  19.277  0.00  0.00    +0.000 A 
ATOM     22  C   UNL     1       7.536   6.264  18.315  0.00  0.00    +0.000 A 
ATOM     23  C   UNL     1       6.812   6.844  17.279  0.00  0.00    +0.000 A 
ATOM     24  C   UNL     1       5.422   6.683  17.217  0.00  0.00    +0.000 A 
ENDBRANCH  18  19
BRANCH  18  25
ATOM     25  C   UNL     1       2.638   4.513  18.278  0.00  0.00    +0.000 A 
ATOM     26  C   UNL     1       1.458   4.230  18.993  0.00  0.00    +0.000 A 
ATOM     27  C   UNL     1       0.997   2.920  19.130  0.00  0.00    +0.000 A 
ATOM     28  C   UNL     1       1.671   1.871  18.512  0.00  0.00    +0.000 A 
ATOM     29  C   UNL     1       2.803   2.144  17.746  0.00  0.00    +0.000 A 
ATOM     30  C   UNL     1       3.276   3.440  17.634  0.00  0.00    +0.000 A 
ENDBRANCH  18  25
ENDBRANCH   2  18
TORSDOF 6
ENDMDL
