MODEL 1
REMARK VINA RESULT:      -7.6      0.000      0.000
REMARK  Name = 
REMARK  7 active torsions:
REMARK  status: ('A' for Active; 'I' for Inactive)
REMARK    1  A    between atoms: N_1  and  C_2
REMARK    2  A    between atoms: C_2  and  C_3
REMARK    3  A    between atoms: C_2  and  C_24
REMARK    4  A    between atoms: C_3  and  O_4
REMARK    5  A    between atoms: O_4  and  C_5
REMARK    6  A    between atoms: C_7  and  C_8
REMARK    7  A    between atoms: C_24  and  C_25
REMARK                            x       y       z     vdW  Elec       q    Type
REMARK                         _______ _______ _______ _____ _____    ______ ____
ROOT
ATOM      1  C   UNL     1       2.880   6.176  19.948  0.00  0.00    +0.000 A 
ATOM      2  N   UNL     1       3.829   5.658  19.141  0.00  0.00    +0.000 NA
ATOM      3  C   UNL     1       4.173   6.315  18.023  0.00  0.00    +0.000 A 
ATOM      4  N   UNL     1       3.615   7.454  17.588  0.00  0.00    +0.000 NA
ATOM      5  C   UNL     1       2.682   7.941  18.419  0.00  0.00    +0.000 A 
ATOM      6  S   UNL     1       1.848   9.372  18.020  0.00  0.00    +0.000 S 
ATOM      7  C   UNL     1       0.972   9.336  19.473  0.00  0.00    +0.000 A 
ATOM      8  C   UNL     1       1.317   8.261  20.281  0.00  0.00    +0.000 A 
ATOM      9  C   UNL     1       2.277   7.399  19.633  0.00  0.00    +0.000 A 
ATOM     10  C   UNL     1       0.738   8.117  21.659  0.00  0.00    +0.000 C 
ATOM     11  C   UNL     1      -0.559   8.929  21.823  0.00  0.00    +0.000 C 
ATOM     12  C   UNL     1      -0.403  10.359  21.285  0.00  0.00    +0.000 C 
ATOM     13  C   UNL     1      -0.067  10.367  19.788  0.00  0.00    +0.000 C 
ENDROOT
BRANCH   3  14
ATOM     14  C   UNL     1       5.268   5.737  17.224  0.00  0.00    +0.000 A 
ATOM     15  C   UNL     1       6.342   5.067  17.837  0.00  0.00    +0.000 A 
ATOM     16  C   UNL     1       7.362   4.548  17.052  0.00  0.00    +0.000 A 
ATOM     17  N   UNL     1       7.395   4.646  15.709  0.00  0.00    +0.000 NA
ATOM     18  C   UNL     1       6.365   5.292  15.126  0.00  0.00    +0.000 A 
ATOM     19  C   UNL     1       5.301   5.842  15.827  0.00  0.00    +0.000 A 
ENDBRANCH   3  14
BRANCH   1  20
ATOM     20  O   UNL     1       2.539   5.468  21.088  0.00  0.00    +0.000 OA
BRANCH  20  21
ATOM     21  C   UNL     1       1.402   4.615  20.848  0.00  0.00    +0.000 C 
BRANCH  21  22
ATOM     22  C   UNL     1       1.727   3.148  21.197  0.00  0.00    +0.000 C 
BRANCH  22  23
ATOM     23  N   UNL     1       1.049   2.751  22.449  0.00  0.00    +0.000 NA
ATOM     24  H   UNL     1       1.284   3.406  23.191  0.00  0.00    +0.000 HD
ATOM     25  H   UNL     1       1.395   1.836  22.739  0.00  0.00    +0.000 HD
ENDBRANCH  22  23
BRANCH  22  26
ATOM     26  C   UNL     1       1.363   2.179  20.053  0.00  0.00    +0.000 C 
BRANCH  26  27
ATOM     27  C   UNL     1       2.216   2.367  18.819  0.00  0.00    +0.000 A 
ATOM     28  C   UNL     1       3.457   1.727  18.708  0.00  0.00    +0.000 A 
ATOM     29  C   UNL     1       4.255   1.911  17.579  0.00  0.00    +0.000 A 
ATOM     30  C   UNL     1       3.815   2.732  16.545  0.00  0.00    +0.000 A 
ATOM     31  C   UNL     1       2.578   3.368  16.639  0.00  0.00    +0.000 A 
ATOM     32  C   UNL     1       1.783   3.191  17.773  0.00  0.00    +0.000 A 
ENDBRANCH  26  27
ENDBRANCH  22  26
ENDBRANCH  21  22
ENDBRANCH  20  21
ENDBRANCH   1  20
TORSDOF 7
ENDMDL
MODEL 2
REMARK VINA RESULT:      -7.4      2.520      6.105
REMARK  Name = 
REMARK  7 active torsions:
REMARK  status: ('A' for Active; 'I' for Inactive)
REMARK    1  A    between atoms: N_1  and  C_2
REMARK    2  A    between atoms: C_2  and  C_3
REMARK    3  A    between atoms: C_2  and  C_24
REMARK    4  A    between atoms: C_3  and  O_4
REMARK    5  A    between atoms: O_4  and  C_5
REMARK    6  A    between atoms: C_7  and  C_8
REMARK    7  A    between atoms: C_24  and  C_25
REMARK                            x       y       z     vdW  Elec       q    Type
REMARK                         _______ _______ _______ _____ _____    ______ ____
ROOT
ATOM      1  C   UNL     1       4.352   5.764  17.344  0.00  0.00    +0.000 A 
ATOM      2  N   UNL     1       5.089   5.688  16.217  0.00  0.00    +0.000 NA
ATOM      3  C   UNL     1       5.314   4.491  15.657  0.00  0.00    +0.000 A 
ATOM      4  N   UNL     1       4.903   3.314  16.149  0.00  0.00    +0.000 NA
ATOM      5  C   UNL     1       4.168   3.430  17.265  0.00  0.00    +0.000 A 
ATOM      6  S   UNL     1       3.576   2.037  18.045  0.00  0.00    +0.000 S 
ATOM      7  C   UNL     1       2.782   2.963  19.225  0.00  0.00    +0.000 A 
ATOM      8  C   UNL     1       2.936   4.328  19.027  0.00  0.00    +0.000 A 
ATOM      9  C   UNL     1       3.808   4.606  17.911  0.00  0.00    +0.000 A 
ATOM     10  C   UNL     1       2.214   5.318  19.896  0.00  0.00    +0.000 C 
ATOM     11  C   UNL     1       1.769   4.691  21.229  0.00  0.00    +0.000 C 
ATOM     12  C   UNL     1       1.086   3.332  21.015  0.00  0.00    +0.000 C 
ATOM     13  C   UNL     1       2.030   2.323  20.350  0.00  0.00    +0.000 C 
ENDROOT
BRANCH   3  14
ATOM     14  C   UNL     1       6.061   4.482  14.387  0.00  0.00    +0.000 A 
ATOM     15  C   UNL     1       5.661   3.669  13.311  0.00  0.00    +0.000 A 
ATOM     16  C   UNL     1       6.397   3.677  12.136  0.00  0.00    +0.000 A 
ATOM     17  N   UNL     1       7.500   4.429  11.950  0.00  0.00    +0.000 NA
ATOM     18  C   UNL     1       7.882   5.205  12.985  0.00  0.00    +0.000 A 
ATOM     19  C   UNL     1       7.209   5.264  14.196  0.00  0.00    +0.000 A 
ENDBRANCH   3  14
BRANCH   1  20
ATOM     20  O   UNL     1       4.149   7.015  17.905  0.00  0.00    +0.000 OA
BRANCH  20  21
ATOM     21  C   UNL     1       3.120   7.738  17.200  0.00  0.00    +0.000 C 
BRANCH  21  22
ATOM     22  C   UNL     1       2.481   8.813  18.104  0.00  0.00    +0.000 C 
BRANCH  22  23
ATOM     23  N   UNL     1       2.387  10.102  17.389  0.00  0.00    +0.000 NA
ATOM     24  H   UNL     1       2.770  10.006  16.451  0.00  0.00    +0.000 HD
ATOM     25  H   UNL     1       2.958  10.795  17.873  0.00  0.00    +0.000 HD
ENDBRANCH  22  23
BRANCH  22  26
ATOM     26  C   UNL     1       1.096   8.384  18.633  0.00  0.00    +0.000 C 
BRANCH  26  27
ATOM     27  C   UNL     1       0.735   9.032  19.950  0.00  0.00    +0.000 A 
ATOM     28  C   UNL     1      -0.148  10.119  19.990  0.00  0.00    +0.000 A 
ATOM     29  C   UNL     1      -0.471  10.730  21.201  0.00  0.00    +0.000 A 
ATOM     30  C   UNL     1       0.080  10.254  22.387  0.00  0.00    +0.000 A 
ATOM     31  C   UNL     1       0.954   9.168  22.363  0.00  0.00    +0.000 A 
ATOM     32  C   UNL     1       1.284   8.561  21.150  0.00  0.00    +0.000 A 
ENDBRANCH  26  27
ENDBRANCH  22  26
ENDBRANCH  21  22
ENDBRANCH  20  21
ENDBRANCH   1  20
TORSDOF 7
ENDMDL
MODEL 3
REMARK VINA RESULT:      -7.2      2.491      6.575
REMARK  Name = 
REMARK  7 active torsions:
REMARK  status: ('A' for Active; 'I' for Inactive)
REMARK    1  A    between atoms: N_1  and  C_2
REMARK    2  A    between atoms: C_2  and  C_3
REMARK    3  A    between atoms: C_2  and  C_24
REMARK    4  A    between atoms: C_3  and  O_4
REMARK    5  A    between atoms: O_4  and  C_5
REMARK    6  A    between atoms: C_7  and  C_8
REMARK    7  A    between atoms: C_24  and  C_25
REMARK                            x       y       z     vdW  Elec       q    Type
REMARK                         _______ _______ _______ _____ _____    ______ ____
ROOT
ATOM      1  C   UNL     1       3.418   6.899  17.845  0.00  0.00    +0.000 A 
ATOM      2  N   UNL     1       2.927   8.155  17.797  0.00  0.00    +0.000 NA
ATOM      3  C   UNL     1       2.069   8.563  18.743  0.00  0.00    +0.000 A 
ATOM      4  N   UNL     1       1.598   7.805  19.744  0.00  0.00    +0.000 NA
ATOM      5  C   UNL     1       2.113   6.567  19.763  0.00  0.00    +0.000 A 
ATOM      6  S   UNL     1       1.615   5.454  20.952  0.00  0.00    +0.000 S 
ATOM      7  C   UNL     1       2.674   4.264  20.365  0.00  0.00    +0.000 A 
ATOM      8  C   UNL     1       3.429   4.703  19.287  0.00  0.00    +0.000 A 
ATOM      9  C   UNL     1       3.053   6.038  18.886  0.00  0.00    +0.000 A 
ATOM     10  C   UNL     1       4.507   3.838  18.699  0.00  0.00    +0.000 C 
ATOM     11  C   UNL     1       4.310   2.355  19.059  0.00  0.00    +0.000 C 
ATOM     12  C   UNL     1       4.016   2.171  20.555  0.00  0.00    +0.000 C 
ATOM     13  C   UNL     1       2.731   2.897  20.972  0.00  0.00    +0.000 C 
ENDROOT
BRANCH   3  14
ATOM     14  C   UNL     1       1.628   9.967  18.678  0.00  0.00    +0.000 A 
ATOM     15  C   UNL     1       0.363  10.358  19.153  0.00  0.00    +0.000 A 
ATOM     16  C   UNL     1      -0.021  11.687  19.062  0.00  0.00    +0.000 A 
ATOM     17  N   UNL     1       0.753  12.655  18.535  0.00  0.00    +0.000 NA
ATOM     18  C   UNL     1       1.964  12.276  18.077  0.00  0.00    +0.000 A 
ATOM     19  C   UNL     1       2.436  10.972  18.127  0.00  0.00    +0.000 A 
ENDBRANCH   3  14
BRANCH   1  20
ATOM     20  O   UNL     1       4.292   6.504  16.845  0.00  0.00    +0.000 OA
BRANCH  20  21
ATOM     21  C   UNL     1       5.645   6.888  17.158  0.00  0.00    +0.000 C 
BRANCH  21  22
ATOM     22  C   UNL     1       6.658   5.913  16.521  0.00  0.00    +0.000 C 
BRANCH  22  23
ATOM     23  N   UNL     1       7.645   5.463  17.525  0.00  0.00    +0.000 NA
ATOM     24  H   UNL     1       8.513   5.204  17.062  0.00  0.00    +0.000 HD
ATOM     25  H   UNL     1       7.292   4.625  17.986  0.00  0.00    +0.000 HD
ENDBRANCH  22  23
BRANCH  22  26
ATOM     26  C   UNL     1       5.968   4.702  15.859  0.00  0.00    +0.000 C 
BRANCH  26  27
ATOM     27  C   UNL     1       6.359   4.510  14.412  0.00  0.00    +0.000 A 
ATOM     28  C   UNL     1       5.660   3.609  13.599  0.00  0.00    +0.000 A 
ATOM     29  C   UNL     1       6.029   3.417  12.268  0.00  0.00    +0.000 A 
ATOM     30  C   UNL     1       7.098   4.130  11.734  0.00  0.00    +0.000 A 
ATOM     31  C   UNL     1       7.798   5.036  12.530  0.00  0.00    +0.000 A 
ATOM     32  C   UNL     1       7.433   5.223  13.865  0.00  0.00    +0.000 A 
ENDBRANCH  26  27
ENDBRANCH  22  26
ENDBRANCH  21  22
ENDBRANCH  20  21
ENDBRANCH   1  20
TORSDOF 7
ENDMDL
MODEL 4
REMARK VINA RESULT:      -7.2      2.539      6.015
REMARK  Name = 
REMARK  7 active torsions:
REMARK  status: ('A' for Active; 'I' for Inactive)
REMARK    1  A    between atoms: N_1  and  C_2
REMARK    2  A    between atoms: C_2  and  C_3
REMARK    3  A    between atoms: C_2  and  C_24
REMARK    4  A    between atoms: C_3  and  O_4
REMARK    5  A    between atoms: O_4  and  C_5
REMARK    6  A    between atoms: C_7  and  C_8
REMARK    7  A    between atoms: C_24  and  C_25
REMARK                            x       y       z     vdW  Elec       q    Type
REMARK                         _______ _______ _______ _____ _____    ______ ____
ROOT
ATOM      1  C   UNL     1       4.273   5.948  17.224  0.00  0.00    +0.000 A 
ATOM      2  N   UNL     1       5.024   5.830  16.110  0.00  0.00    +0.000 NA
ATOM      3  C   UNL     1       5.302   4.609  15.630  0.00  0.00    +0.000 A 
ATOM      4  N   UNL     1       4.933   3.450  16.194  0.00  0.00    +0.000 NA
ATOM      5  C   UNL     1       4.183   3.608  17.295  0.00  0.00    +0.000 A 
ATOM      6  S   UNL     1       3.639   2.245  18.159  0.00  0.00    +0.000 S 
ATOM      7  C   UNL     1       2.798   3.213  19.271  0.00  0.00    +0.000 A 
ATOM      8  C   UNL     1       2.898   4.567  18.986  0.00  0.00    +0.000 A 
ATOM      9  C   UNL     1       3.770   4.808  17.861  0.00  0.00    +0.000 A 
ATOM     10  C   UNL     1       2.129   5.581  19.784  0.00  0.00    +0.000 C 
ATOM     11  C   UNL     1       1.696   5.024  21.151  0.00  0.00    +0.000 C 
ATOM     12  C   UNL     1       1.070   3.627  21.021  0.00  0.00    +0.000 C 
ATOM     13  C   UNL     1       2.060   2.616  20.429  0.00  0.00    +0.000 C 
ENDROOT
BRANCH   3  14
ATOM     14  C   UNL     1       6.062   4.548  14.369  0.00  0.00    +0.000 A 
ATOM     15  C   UNL     1       7.173   5.381  14.146  0.00  0.00    +0.000 A 
ATOM     16  C   UNL     1       7.855   5.305  12.940  0.00  0.00    +0.000 A 
ATOM     17  N   UNL     1       7.514   4.469  11.941  0.00  0.00    +0.000 NA
ATOM     18  C   UNL     1       6.446   3.675  12.157  0.00  0.00    +0.000 A 
ATOM     19  C   UNL     1       5.704   3.678  13.329  0.00  0.00    +0.000 A 
ENDBRANCH   3  14
BRANCH   1  20
ATOM     20  O   UNL     1       4.014   7.223  17.701  0.00  0.00    +0.000 OA
BRANCH  20  21
ATOM     21  C   UNL     1       2.682   7.647  17.351  0.00  0.00    +0.000 C 
BRANCH  21  22
ATOM     22  C   UNL     1       2.310   8.957  18.076  0.00  0.00    +0.000 C 
BRANCH  22  23
ATOM     23  N   UNL     1       2.711  10.128  17.269  0.00  0.00    +0.000 NA
ATOM     24  H   UNL     1       1.933  10.780  17.196  0.00  0.00    +0.000 HD
ATOM     25  H   UNL     1       2.930   9.820  16.322  0.00  0.00    +0.000 HD
ENDBRANCH  22  23
BRANCH  22  26
ATOM     26  C   UNL     1       0.808   9.027  18.423  0.00  0.00    +0.000 C 
BRANCH  26  27
ATOM     27  C   UNL     1       0.546   9.372  19.871  0.00  0.00    +0.000 A 
ATOM     28  C   UNL     1       1.243   8.719  20.896  0.00  0.00    +0.000 A 
ATOM     29  C   UNL     1       0.993   9.022  22.234  0.00  0.00    +0.000 A 
ATOM     30  C   UNL     1       0.045   9.987  22.561  0.00  0.00    +0.000 A 
ATOM     31  C   UNL     1      -0.651  10.651  21.551  0.00  0.00    +0.000 A 
ATOM     32  C   UNL     1      -0.405  10.342  20.212  0.00  0.00    +0.000 A 
ENDBRANCH  26  27
ENDBRANCH  22  26
ENDBRANCH  21  22
ENDBRANCH  20  21
ENDBRANCH   1  20
TORSDOF 7
ENDMDL
MODEL 5
REMARK VINA RESULT:      -7.2      2.507      6.539
REMARK  Name = 
REMARK  7 active torsions:
REMARK  status: ('A' for Active; 'I' for Inactive)
REMARK    1  A    between atoms: N_1  and  C_2
REMARK    2  A    between atoms: C_2  and  C_3
REMARK    3  A    between atoms: C_2  and  C_24
REMARK    4  A    between atoms: C_3  and  O_4
REMARK    5  A    between atoms: O_4  and  C_5
REMARK    6  A    between atoms: C_7  and  C_8
REMARK    7  A    between atoms: C_24  and  C_25
REMARK                            x       y       z     vdW  Elec       q    Type
REMARK                         _______ _______ _______ _____ _____    ______ ____
ROOT
ATOM      1  C   UNL     1       3.389   7.020  17.860  0.00  0.00    +0.000 A 
ATOM      2  N   UNL     1       2.914   8.280  17.782  0.00  0.00    +0.000 NA
ATOM      3  C   UNL     1       2.048   8.717  18.709  0.00  0.00    +0.000 A 
ATOM      4  N   UNL     1       1.556   7.983  19.718  0.00  0.00    +0.000 NA
ATOM      5  C   UNL     1       2.056   6.740  19.767  0.00  0.00    +0.000 A 
ATOM      6  S   UNL     1       1.529   5.656  20.970  0.00  0.00    +0.000 S 
ATOM      7  C   UNL     1       2.581   4.443  20.420  0.00  0.00    +0.000 A 
ATOM      8  C   UNL     1       3.355   4.853  19.343  0.00  0.00    +0.000 A 
ATOM      9  C   UNL     1       3.000   6.184  18.913  0.00  0.00    +0.000 A 
ATOM     10  C   UNL     1       4.430   3.963  18.786  0.00  0.00    +0.000 C 
ATOM     11  C   UNL     1       4.211   2.490  19.171  0.00  0.00    +0.000 C 
ATOM     12  C   UNL     1       3.894   2.337  20.667  0.00  0.00    +0.000 C 
ATOM     13  C   UNL     1       2.613   3.087  21.053  0.00  0.00    +0.000 C 
ENDROOT
BRANCH   3  14
ATOM     14  C   UNL     1       1.626  10.125  18.612  0.00  0.00    +0.000 A 
ATOM     15  C   UNL     1       2.500  11.117  18.130  0.00  0.00    +0.000 A 
ATOM     16  C   UNL     1       2.070  12.434  18.066  0.00  0.00    +0.000 A 
ATOM     17  N   UNL     1       0.843  12.840  18.446  0.00  0.00    +0.000 NA
ATOM     18  C   UNL     1       0.010  11.887  18.911  0.00  0.00    +0.000 A 
ATOM     19  C   UNL     1       0.349  10.545  19.009  0.00  0.00    +0.000 A 
ENDBRANCH   3  14
BRANCH   1  20
ATOM     20  O   UNL     1       4.271   6.596  16.880  0.00  0.00    +0.000 OA
BRANCH  20  21
ATOM     21  C   UNL     1       5.633   6.902  17.240  0.00  0.00    +0.000 C 
BRANCH  21  22
ATOM     22  C   UNL     1       6.620   5.954  16.527  0.00  0.00    +0.000 C 
BRANCH  22  23
ATOM     23  N   UNL     1       7.659   5.485  17.467  0.00  0.00    +0.000 NA
ATOM     24  H   UNL     1       8.279   6.255  17.708  0.00  0.00    +0.000 HD
ATOM     25  H   UNL     1       8.230   4.777  17.006  0.00  0.00    +0.000 HD
ENDBRANCH  22  23
BRANCH  22  26
ATOM     26  C   UNL     1       5.906   4.756  15.866  0.00  0.00    +0.000 C 
BRANCH  26  27
ATOM     27  C   UNL     1       6.324   4.531  14.432  0.00  0.00    +0.000 A 
ATOM     28  C   UNL     1       7.408   5.231  13.887  0.00  0.00    +0.000 A 
ATOM     29  C   UNL     1       7.785   5.039  12.559  0.00  0.00    +0.000 A 
ATOM     30  C   UNL     1       7.086   4.137  11.762  0.00  0.00    +0.000 A 
ATOM     31  C   UNL     1       6.010   3.427  12.293  0.00  0.00    +0.000 A 
ATOM     32  C   UNL     1       5.627   3.626  13.621  0.00  0.00    +0.000 A 
ENDBRANCH  26  27
ENDBRANCH  22  26
ENDBRANCH  21  22
ENDBRANCH  20  21
ENDBRANCH   1  20
TORSDOF 7
ENDMDL
MODEL 6
REMARK VINA RESULT:      -7.1      2.599      6.276
REMARK  Name = 
REMARK  7 active torsions:
REMARK  status: ('A' for Active; 'I' for Inactive)
REMARK    1  A    between atoms: N_1  and  C_2
REMARK    2  A    between atoms: C_2  and  C_3
REMARK    3  A    between atoms: C_2  and  C_24
REMARK    4  A    between atoms: C_3  and  O_4
REMARK    5  A    between atoms: O_4  and  C_5
REMARK    6  A    between atoms: C_7  and  C_8
REMARK    7  A    between atoms: C_24  and  C_25
REMARK                            x       y       z     vdW  Elec       q    Type
REMARK                         _______ _______ _______ _____ _____    ______ ____
ROOT
ATOM      1  C   UNL     1       4.309   5.533  17.525  0.00  0.00    +0.000 A 
ATOM      2  N   UNL     1       5.029   5.502  16.385  0.00  0.00    +0.000 NA
ATOM      3  C   UNL     1       5.249   4.327  15.777  0.00  0.00    +0.000 A 
ATOM      4  N   UNL     1       4.849   3.130  16.232  0.00  0.00    +0.000 NA
ATOM      5  C   UNL     1       4.132   3.202  17.363  0.00  0.00    +0.000 A 
ATOM      6  S   UNL     1       3.557   1.779  18.100  0.00  0.00    +0.000 S 
ATOM      7  C   UNL     1       2.779   2.658  19.326  0.00  0.00    +0.000 A 
ATOM      8  C   UNL     1       2.925   4.030  19.176  0.00  0.00    +0.000 A 
ATOM      9  C   UNL     1       3.778   4.353  18.057  0.00  0.00    +0.000 A 
ATOM     10  C   UNL     1       2.213   4.984  20.092  0.00  0.00    +0.000 C 
ATOM     11  C   UNL     1       1.791   4.307  21.408  0.00  0.00    +0.000 C 
ATOM     12  C   UNL     1       1.110   2.954  21.155  0.00  0.00    +0.000 C 
ATOM     13  C   UNL     1       2.047   1.974  20.438  0.00  0.00    +0.000 C 
ENDROOT
BRANCH   3  14
ATOM     14  C   UNL     1       5.976   4.368  14.496  0.00  0.00    +0.000 A 
ATOM     15  C   UNL     1       5.563   3.591  13.398  0.00  0.00    +0.000 A 
ATOM     16  C   UNL     1       6.281   3.647  12.213  0.00  0.00    +0.000 A 
ATOM     17  N   UNL     1       7.376   4.411  12.037  0.00  0.00    +0.000 NA
ATOM     18  C   UNL     1       7.771   5.151  13.093  0.00  0.00    +0.000 A 
ATOM     19  C   UNL     1       7.117   5.163  14.317  0.00  0.00    +0.000 A 
ENDBRANCH   3  14
BRANCH   1  20
ATOM     20  O   UNL     1       4.110   6.762  18.135  0.00  0.00    +0.000 OA
BRANCH  20  21
ATOM     21  C   UNL     1       3.347   7.643  17.288  0.00  0.00    +0.000 C 
BRANCH  21  22
ATOM     22  C   UNL     1       2.132   8.221  18.044  0.00  0.00    +0.000 C 
BRANCH  22  23
ATOM     23  N   UNL     1       2.210   7.889  19.482  0.00  0.00    +0.000 NA
ATOM     24  H   UNL     1       2.967   7.229  19.643  0.00  0.00    +0.000 HD
ATOM     25  H   UNL     1       1.347   7.426  19.764  0.00  0.00    +0.000 HD
ENDBRANCH  22  23
BRANCH  22  26
ATOM     26  C   UNL     1       1.992   9.745  17.847  0.00  0.00    +0.000 C 
BRANCH  26  27
ATOM     27  C   UNL     1       0.721  10.309  18.439  0.00  0.00    +0.000 A 
ATOM     28  C   UNL     1      -0.527   9.968  17.901  0.00  0.00    +0.000 A 
ATOM     29  C   UNL     1      -1.701  10.499  18.434  0.00  0.00    +0.000 A 
ATOM     30  C   UNL     1      -1.640  11.372  19.516  0.00  0.00    +0.000 A 
ATOM     31  C   UNL     1      -0.405  11.714  20.066  0.00  0.00    +0.000 A 
ATOM     32  C   UNL     1       0.771  11.189  19.528  0.00  0.00    +0.000 A 
ENDBRANCH  26  27
ENDBRANCH  22  26
ENDBRANCH  21  22
ENDBRANCH  20  21
ENDBRANCH   1  20
TORSDOF 7
ENDMDL
MODEL 7
REMARK VINA RESULT:      -7.1      2.417      6.961
REMARK  Name = 
REMARK  7 active torsions:
REMARK  status: ('A' for Active; 'I' for Inactive)
REMARK    1  A    between atoms: N_1  and  C_2
REMARK    2  A    between atoms: C_2  and  C_3
REMARK    3  A    between atoms: C_2  and  C_24
REMARK    4  A    between atoms: C_3  and  O_4
REMARK    5  A    between atoms: O_4  and  C_5
REMARK    6  A    between atoms: C_7  and  C_8
REMARK    7  A    between atoms: C_24  and  C_25
REMARK                            x       y       z     vdW  Elec       q    Type
REMARK                         _______ _______ _______ _____ _____    ______ ____
ROOT
ATOM      1  C   UNL     1       2.984   6.575  18.482  0.00  0.00    +0.000 A 
ATOM      2  N   UNL     1       2.482   7.699  19.032  0.00  0.00    +0.000 NA
ATOM      3  C   UNL     1       1.631   7.605  20.065  0.00  0.00    +0.000 A 
ATOM      4  N   UNL     1       1.178   6.460  20.595  0.00  0.00    +0.000 NA
ATOM      5  C   UNL     1       1.704   5.365  20.028  0.00  0.00    +0.000 A 
ATOM      6  S   UNL     1       1.228   3.818  20.558  0.00  0.00    +0.000 S 
ATOM      7  C   UNL     1       2.291   3.056  19.476  0.00  0.00    +0.000 A 
ATOM      8  C   UNL     1       3.029   3.959  18.725  0.00  0.00    +0.000 A 
ATOM      9  C   UNL     1       2.638   5.321  19.000  0.00  0.00    +0.000 A 
ATOM     10  C   UNL     1       4.108   3.485  17.793  0.00  0.00    +0.000 C 
ATOM     11  C   UNL     1       3.928   2.004  17.416  0.00  0.00    +0.000 C 
ATOM     12  C   UNL     1       3.651   1.135  18.652  0.00  0.00    +0.000 C 
ATOM     13  C   UNL     1       2.365   1.564  19.369  0.00  0.00    +0.000 C 
ENDROOT
BRANCH   3  14
ATOM     14  C   UNL     1       1.179   8.870  20.669  0.00  0.00    +0.000 A 
ATOM     15  C   UNL     1       1.140  10.062  19.923  0.00  0.00    +0.000 A 
ATOM     16  C   UNL     1       0.721  11.236  20.531  0.00  0.00    +0.000 A 
ATOM     17  N   UNL     1       0.341  11.316  21.821  0.00  0.00    +0.000 NA
ATOM     18  C   UNL     1       0.383  10.172  22.534  0.00  0.00    +0.000 A 
ATOM     19  C   UNL     1       0.786   8.951  22.013  0.00  0.00    +0.000 A 
ENDBRANCH   3  14
BRANCH   1  20
ATOM     20  O   UNL     1       3.850   6.706  17.409  0.00  0.00    +0.000 OA
BRANCH  20  21
ATOM     21  C   UNL     1       5.216   6.812  17.855  0.00  0.00    +0.000 C 
BRANCH  21  22
ATOM     22  C   UNL     1       6.196   6.712  16.667  0.00  0.00    +0.000 C 
BRANCH  22  23
ATOM     23  N   UNL     1       7.342   7.624  16.862  0.00  0.00    +0.000 NA
ATOM     24  H   UNL     1       8.213   7.106  16.780  0.00  0.00    +0.000 HD
ATOM     25  H   UNL     1       7.309   8.003  17.808  0.00  0.00    +0.000 HD
ENDBRANCH  22  23
BRANCH  22  26
ATOM     26  C   UNL     1       6.687   5.268  16.434  0.00  0.00    +0.000 C 
BRANCH  26  27
ATOM     27  C   UNL     1       6.686   4.866  14.977  0.00  0.00    +0.000 A 
ATOM     28  C   UNL     1       5.729   3.968  14.487  0.00  0.00    +0.000 A 
ATOM     29  C   UNL     1       5.735   3.582  13.147  0.00  0.00    +0.000 A 
ATOM     30  C   UNL     1       6.696   4.095  12.281  0.00  0.00    +0.000 A 
ATOM     31  C   UNL     1       7.650   4.995  12.754  0.00  0.00    +0.000 A 
ATOM     32  C   UNL     1       7.649   5.376  14.097  0.00  0.00    +0.000 A 
ENDBRANCH  26  27
ENDBRANCH  22  26
ENDBRANCH  21  22
ENDBRANCH  20  21
ENDBRANCH   1  20
TORSDOF 7
ENDMDL
MODEL 8
REMARK VINA RESULT:      -7.0      2.605      6.239
REMARK  Name = 
REMARK  7 active torsions:
REMARK  status: ('A' for Active; 'I' for Inactive)
REMARK    1  A    between atoms: N_1  and  C_2
REMARK    2  A    between atoms: C_2  and  C_3
REMARK    3  A    between atoms: C_2  and  C_24
REMARK    4  A    between atoms: C_3  and  O_4
REMARK    5  A    between atoms: O_4  and  C_5
REMARK    6  A    between atoms: C_7  and  C_8
REMARK    7  A    between atoms: C_24  and  C_25
REMARK                            x       y       z     vdW  Elec       q    Type
REMARK                         _______ _______ _______ _____ _____    ______ ____
ROOT
ATOM      1  C   UNL     1       4.343   5.532  17.510  0.00  0.00    +0.000 A 
ATOM      2  N   UNL     1       5.069   5.502  16.374  0.00  0.00    +0.000 NA
ATOM      3  C   UNL     1       5.295   4.327  15.768  0.00  0.00    +0.000 A 
ATOM      4  N   UNL     1       4.895   3.130  16.221  0.00  0.00    +0.000 NA
ATOM      5  C   UNL     1       4.171   3.201  17.347  0.00  0.00    +0.000 A 
ATOM      6  S   UNL     1       3.595   1.777  18.082  0.00  0.00    +0.000 S 
ATOM      7  C   UNL     1       2.808   2.655  19.303  0.00  0.00    +0.000 A 
ATOM      8  C   UNL     1       2.951   4.027  19.153  0.00  0.00    +0.000 A 
ATOM      9  C   UNL     1       3.811   4.351  18.039  0.00  0.00    +0.000 A 
ATOM     10  C   UNL     1       2.233   4.980  20.065  0.00  0.00    +0.000 C 
ATOM     11  C   UNL     1       1.804   4.302  21.378  0.00  0.00    +0.000 C 
ATOM     12  C   UNL     1       1.127   2.948  21.121  0.00  0.00    +0.000 C 
ATOM     13  C   UNL     1       2.070   1.969  20.410  0.00  0.00    +0.000 C 
ENDROOT
BRANCH   3  14
ATOM     14  C   UNL     1       6.030   4.369  14.491  0.00  0.00    +0.000 A 
ATOM     15  C   UNL     1       7.153   5.199  14.323  0.00  0.00    +0.000 A 
ATOM     16  C   UNL     1       7.810   5.222  13.102  0.00  0.00    +0.000 A 
ATOM     17  N   UNL     1       7.434   4.487  12.037  0.00  0.00    +0.000 NA
ATOM     18  C   UNL     1       6.355   3.695  12.201  0.00  0.00    +0.000 A 
ATOM     19  C   UNL     1       5.636   3.604  13.384  0.00  0.00    +0.000 A 
ENDBRANCH   3  14
BRANCH   1  20
ATOM     20  O   UNL     1       4.138   6.760  18.119  0.00  0.00    +0.000 OA
BRANCH  20  21
ATOM     21  C   UNL     1       3.391   7.645  17.261  0.00  0.00    +0.000 C 
BRANCH  21  22
ATOM     22  C   UNL     1       2.166   8.226  17.998  0.00  0.00    +0.000 C 
BRANCH  22  23
ATOM     23  N   UNL     1       2.209   7.873  19.432  0.00  0.00    +0.000 NA
ATOM     24  H   UNL     1       2.710   8.592  19.949  0.00  0.00    +0.000 HD
ATOM     25  H   UNL     1       2.732   7.005  19.546  0.00  0.00    +0.000 HD
ENDBRANCH  22  23
BRANCH  22  26
ATOM     26  C   UNL     1       2.045   9.754  17.819  0.00  0.00    +0.000 C 
BRANCH  26  27
ATOM     27  C   UNL     1       0.792  10.329  18.436  0.00  0.00    +0.000 A 
ATOM     28  C   UNL     1       0.874  11.229  19.506  0.00  0.00    +0.000 A 
ATOM     29  C   UNL     1      -0.281  11.750  20.089  0.00  0.00    +0.000 A 
ATOM     30  C   UNL     1      -1.531  11.381  19.602  0.00  0.00    +0.000 A 
ATOM     31  C   UNL     1      -1.627  10.492  18.532  0.00  0.00    +0.000 A 
ATOM     32  C   UNL     1      -0.472   9.965  17.953  0.00  0.00    +0.000 A 
ENDBRANCH  26  27
ENDBRANCH  22  26
ENDBRANCH  21  22
ENDBRANCH  20  21
ENDBRANCH   1  20
TORSDOF 7
ENDMDL
MODEL 9
REMARK VINA RESULT:      -7.0      2.588      6.275
REMARK  Name = 
REMARK  7 active torsions:
REMARK  status: ('A' for Active; 'I' for Inactive)
REMARK    1  A    between atoms: N_1  and  C_2
REMARK    2  A    between atoms: C_2  and  C_3
REMARK    3  A    between atoms: C_2  and  C_24
REMARK    4  A    between atoms: C_3  and  O_4
REMARK    5  A    between atoms: O_4  and  C_5
REMARK    6  A    between atoms: C_7  and  C_8
REMARK    7  A    between atoms: C_24  and  C_25
REMARK                            x       y       z     vdW  Elec       q    Type
REMARK                         _______ _______ _______ _____ _____    ______ ____
ROOT
ATOM      1  C   UNL     1       4.309   5.744  17.373  0.00  0.00    +0.000 A 
ATOM      2  N   UNL     1       5.048   5.674  16.247  0.00  0.00    +0.000 NA
ATOM      3  C   UNL     1       5.277   4.479  15.682  0.00  0.00    +0.000 A 
ATOM      4  N   UNL     1       4.867   3.299  16.169  0.00  0.00    +0.000 NA
ATOM      5  C   UNL     1       4.130   3.409  17.284  0.00  0.00    +0.000 A 
ATOM      6  S   UNL     1       3.540   2.011  18.058  0.00  0.00    +0.000 S 
ATOM      7  C   UNL     1       2.742   2.932  19.240  0.00  0.00    +0.000 A 
ATOM      8  C   UNL     1       2.893   4.297  19.048  0.00  0.00    +0.000 A 
ATOM      9  C   UNL     1       3.767   4.582  17.934  0.00  0.00    +0.000 A 
ATOM     10  C   UNL     1       2.167   5.282  19.920  0.00  0.00    +0.000 C 
ATOM     11  C   UNL     1       1.722   4.649  21.249  0.00  0.00    +0.000 C 
ATOM     12  C   UNL     1       1.042   3.289  21.029  0.00  0.00    +0.000 C 
ATOM     13  C   UNL     1       1.990   2.285  20.361  0.00  0.00    +0.000 C 
ENDROOT
BRANCH   3  14
ATOM     14  C   UNL     1       6.025   4.477  14.413  0.00  0.00    +0.000 A 
ATOM     15  C   UNL     1       5.627   3.669  13.333  0.00  0.00    +0.000 A 
ATOM     16  C   UNL     1       6.366   3.684  12.159  0.00  0.00    +0.000 A 
ATOM     17  N   UNL     1       7.468   4.438  11.979  0.00  0.00    +0.000 NA
ATOM     18  C   UNL     1       7.848   5.209  13.018  0.00  0.00    +0.000 A 
ATOM     19  C   UNL     1       7.173   5.261  14.228  0.00  0.00    +0.000 A 
ENDBRANCH   3  14
BRANCH   1  20
ATOM     20  O   UNL     1       4.102   6.992  17.939  0.00  0.00    +0.000 OA
BRANCH  20  21
ATOM     21  C   UNL     1       2.939   7.630  17.375  0.00  0.00    +0.000 C 
BRANCH  21  22
ATOM     22  C   UNL     1       2.532   8.868  18.200  0.00  0.00    +0.000 C 
BRANCH  22  23
ATOM     23  N   UNL     1       2.089   9.961  17.311  0.00  0.00    +0.000 NA
ATOM     24  H   UNL     1       2.875  10.570  17.094  0.00  0.00    +0.000 HD
ATOM     25  H   UNL     1       1.399  10.531  17.801  0.00  0.00    +0.000 HD
ENDBRANCH  22  23
BRANCH  22  26
ATOM     26  C   UNL     1       1.443   8.543  19.244  0.00  0.00    +0.000 C 
BRANCH  26  27
ATOM     27  C   UNL     1       0.602   9.741  19.621  0.00  0.00    +0.000 A 
ATOM     28  C   UNL     1       0.967  10.557  20.699  0.00  0.00    +0.000 A 
ATOM     29  C   UNL     1       0.185  11.653  21.060  0.00  0.00    +0.000 A 
ATOM     30  C   UNL     1      -0.970  11.949  20.340  0.00  0.00    +0.000 A 
ATOM     31  C   UNL     1      -1.341  11.150  19.260  0.00  0.00    +0.000 A 
ATOM     32  C   UNL     1      -0.562  10.048  18.904  0.00  0.00    +0.000 A 
ENDBRANCH  26  27
ENDBRANCH  22  26
ENDBRANCH  21  22
ENDBRANCH  20  21
ENDBRANCH   1  20
TORSDOF 7
ENDMDL
