MODEL 1
REMARK VINA RESULT:      -7.7      0.000      0.000
REMARK  Name = 
REMARK  9 active torsions:
REMARK  status: ('A' for Active; 'I' for Inactive)
REMARK    1  A    between atoms: C_1  and  C_2
REMARK    2  A    between atoms: C_2  and  S_3
REMARK    3  A    between atoms: S_3  and  C_4
REMARK    4  A    between atoms: C_13  and  C_15
REMARK    5  A    between atoms: C_16  and  C_17
REMARK    6  A    between atoms: C_20  and  O_21
REMARK    7  A    between atoms: O_21  and  C_22
REMARK    8  A    between atoms: C_23  and  O_24
REMARK    9  A    between atoms: O_24  and  C_25
REMARK                            x       y       z     vdW  Elec       q    Type
REMARK                         _______ _______ _______ _____ _____    ______ ____
ROOT
ATOM      1  C   UNL     1       4.514   3.641  18.850  0.00  0.00    +0.000 A 
ATOM      2  N   UNL     1       5.802   3.744  19.076  0.00  0.00    +0.000 NA
ATOM      3  C   UNL     1       6.164   4.948  18.555  0.00  0.00    +0.000 A 
ATOM      4  C   UNL     1       7.441   5.530  18.516  0.00  0.00    +0.000 A 
ATOM      5  C   UNL     1       7.598   6.780  17.912  0.00  0.00    +0.000 A 
ATOM      6  C   UNL     1       6.506   7.429  17.341  0.00  0.00    +0.000 A 
ATOM      7  C   UNL     1       5.227   6.858  17.362  0.00  0.00    +0.000 A 
ATOM      8  C   UNL     1       5.069   5.617  18.007  0.00  0.00    +0.000 A 
ATOM      9  N   UNL     1       3.981   4.757  18.216  0.00  0.00    +0.000 N 
ATOM     10  C   UNL     1       2.638   4.958  17.854  0.00  0.00    +0.000 C 
ATOM     11  O   UNL     1       1.920   4.012  17.556  0.00  0.00    +0.000 OA
ENDROOT
BRANCH  10  12
ATOM     12  C   UNL     1       2.138   6.350  17.947  0.00  0.00    +0.000 C 
ATOM     13  C   UNL     1       2.031   6.945  19.147  0.00  0.00    +0.000 C 
BRANCH  13  14
ATOM     14  C   UNL     1       1.679   8.360  19.230  0.00  0.00    +0.000 A 
ATOM     15  C   UNL     1       1.874   9.214  18.146  0.00  0.00    +0.000 A 
ATOM     16  C   UNL     1       1.633  10.586  18.283  0.00  0.00    +0.000 A 
ATOM     17  C   UNL     1       1.209  11.112  19.507  0.00  0.00    +0.000 A 
ATOM     18  C   UNL     1       0.983  10.246  20.597  0.00  0.00    +0.000 A 
ATOM     19  C   UNL     1       1.211   8.874  20.444  0.00  0.00    +0.000 A 
BRANCH  17  20
ATOM     20  O   UNL     1       0.995  12.447  19.746  0.00  0.00    +0.000 OA
ATOM     21  C   UNL     1       0.409  13.221  18.710  0.00  0.00    +0.000 C 
ENDBRANCH  17  20
BRANCH  18  22
ATOM     22  O   UNL     1       0.567  10.834  21.766  0.00  0.00    +0.000 OA
ATOM     23  C   UNL     1      -0.237  10.060  22.644  0.00  0.00    +0.000 C 
ENDBRANCH  18  22
ENDBRANCH  13  14
ENDBRANCH  10  12
BRANCH   1  24
ATOM     24  S   UNL     1       3.568   2.307  19.451  0.00  0.00    +0.000 S 
BRANCH  24  26
ATOM     25  C   UNL     1       1.411   3.154  20.910  0.00  0.00    +0.000 C 
ATOM     26  C   UNL     1       2.922   3.026  20.990  0.00  0.00    +0.000 C 
ENDBRANCH  24  26
ENDBRANCH   1  24
TORSDOF 6
ENDMDL
MODEL 2
REMARK VINA RESULT:      -7.6      2.141      3.823
REMARK  Name = 
REMARK  9 active torsions:
REMARK  status: ('A' for Active; 'I' for Inactive)
REMARK    1  A    between atoms: C_1  and  C_2
REMARK    2  A    between atoms: C_2  and  S_3
REMARK    3  A    between atoms: S_3  and  C_4
REMARK    4  A    between atoms: C_13  and  C_15
REMARK    5  A    between atoms: C_16  and  C_17
REMARK    6  A    between atoms: C_20  and  O_21
REMARK    7  A    between atoms: O_21  and  C_22
REMARK    8  A    between atoms: C_23  and  O_24
REMARK    9  A    between atoms: O_24  and  C_25
REMARK                            x       y       z     vdW  Elec       q    Type
REMARK                         _______ _______ _______ _____ _____    ______ ____
ROOT
ATOM      1  C   UNL     1       4.281   4.494  17.073  0.00  0.00    +0.000 A 
ATOM      2  N   UNL     1       3.984   3.242  17.328  0.00  0.00    +0.000 NA
ATOM      3  C   UNL     1       3.043   3.288  18.310  0.00  0.00    +0.000 A 
ATOM      4  C   UNL     1       2.408   2.216  18.956  0.00  0.00    +0.000 A 
ATOM      5  C   UNL     1       1.473   2.485  19.959  0.00  0.00    +0.000 A 
ATOM      6  C   UNL     1       1.193   3.800  20.324  0.00  0.00    +0.000 A 
ATOM      7  C   UNL     1       1.824   4.881  19.698  0.00  0.00    +0.000 A 
ATOM      8  C   UNL     1       2.734   4.603  18.661  0.00  0.00    +0.000 A 
ATOM      9  N   UNL     1       3.544   5.394  17.833  0.00  0.00    +0.000 N 
ATOM     10  C   UNL     1       3.617   6.797  17.782  0.00  0.00    +0.000 C 
ATOM     11  O   UNL     1       4.665   7.360  17.495  0.00  0.00    +0.000 OA
ENDROOT
BRANCH  10  12
ATOM     12  C   UNL     1       2.346   7.527  18.002  0.00  0.00    +0.000 C 
ATOM     13  C   UNL     1       2.230   8.372  19.041  0.00  0.00    +0.000 C 
BRANCH  13  14
ATOM     14  C   UNL     1       1.034   9.200  19.176  0.00  0.00    +0.000 A 
ATOM     15  C   UNL     1       0.331   9.637  18.054  0.00  0.00    +0.000 A 
ATOM     16  C   UNL     1      -0.745  10.518  18.202  0.00  0.00    +0.000 A 
ATOM     17  C   UNL     1      -1.117  10.977  19.470  0.00  0.00    +0.000 A 
ATOM     18  C   UNL     1      -0.427  10.513  20.608  0.00  0.00    +0.000 A 
ATOM     19  C   UNL     1       0.638   9.619  20.450  0.00  0.00    +0.000 A 
BRANCH  17  20
ATOM     20  O   UNL     1      -2.127  11.877  19.705  0.00  0.00    +0.000 OA
ATOM     21  C   UNL     1      -3.256  11.846  18.844  0.00  0.00    +0.000 C 
ENDBRANCH  17  20
BRANCH  18  22
ATOM     22  O   UNL     1      -0.848  11.007  21.818  0.00  0.00    +0.000 OA
ATOM     23  C   UNL     1      -0.664  10.188  22.965  0.00  0.00    +0.000 C 
ENDBRANCH  18  22
ENDBRANCH  13  14
ENDBRANCH  10  12
BRANCH   1  24
ATOM     24  S   UNL     1       5.363   4.950  15.786  0.00  0.00    +0.000 S 
BRANCH  24  26
ATOM     25  C   UNL     1       7.231   4.997  17.787  0.00  0.00    +0.000 C 
ATOM     26  C   UNL     1       6.942   4.343  16.448  0.00  0.00    +0.000 C 
ENDBRANCH  24  26
ENDBRANCH   1  24
TORSDOF 6
ENDMDL
MODEL 3
REMARK VINA RESULT:      -7.3      2.442      3.991
REMARK  Name = 
REMARK  9 active torsions:
REMARK  status: ('A' for Active; 'I' for Inactive)
REMARK    1  A    between atoms: C_1  and  C_2
REMARK    2  A    between atoms: C_2  and  S_3
REMARK    3  A    between atoms: S_3  and  C_4
REMARK    4  A    between atoms: C_13  and  C_15
REMARK    5  A    between atoms: C_16  and  C_17
REMARK    6  A    between atoms: C_20  and  O_21
REMARK    7  A    between atoms: O_21  and  C_22
REMARK    8  A    between atoms: C_23  and  O_24
REMARK    9  A    between atoms: O_24  and  C_25
REMARK                            x       y       z     vdW  Elec       q    Type
REMARK                         _______ _______ _______ _____ _____    ______ ____
ROOT
ATOM      1  C   UNL     1       4.586   4.650  16.597  0.00  0.00    +0.000 A 
ATOM      2  N   UNL     1       4.217   3.391  16.585  0.00  0.00    +0.000 NA
ATOM      3  C   UNL     1       3.173   3.314  17.454  0.00  0.00    +0.000 A 
ATOM      4  C   UNL     1       2.431   2.181  17.822  0.00  0.00    +0.000 A 
ATOM      5  C   UNL     1       1.398   2.320  18.754  0.00  0.00    +0.000 A 
ATOM      6  C   UNL     1       1.126   3.561  19.323  0.00  0.00    +0.000 A 
ATOM      7  C   UNL     1       1.863   4.700  18.976  0.00  0.00    +0.000 A 
ATOM      8  C   UNL     1       2.874   4.561  18.007  0.00  0.00    +0.000 A 
ATOM      9  N   UNL     1       3.801   5.440  17.428  0.00  0.00    +0.000 N 
ATOM     10  C   UNL     1       3.930   6.823  17.643  0.00  0.00    +0.000 C 
ATOM     11  O   UNL     1       5.024   7.369  17.576  0.00  0.00    +0.000 OA
ENDROOT
BRANCH  10  12
ATOM     12  C   UNL     1       2.669   7.572  17.859  0.00  0.00    +0.000 C 
ATOM     13  C   UNL     1       2.408   8.110  19.063  0.00  0.00    +0.000 C 
BRANCH  13  14
ATOM     14  C   UNL     1       1.240   8.970  19.237  0.00  0.00    +0.000 A 
ATOM     15  C   UNL     1       0.593   9.536  18.141  0.00  0.00    +0.000 A 
ATOM     16  C   UNL     1      -0.454  10.443  18.336  0.00  0.00    +0.000 A 
ATOM     17  C   UNL     1      -0.852  10.798  19.630  0.00  0.00    +0.000 A 
ATOM     18  C   UNL     1      -0.218  10.204  20.741  0.00  0.00    +0.000 A 
ATOM     19  C   UNL     1       0.817   9.286  20.533  0.00  0.00    +0.000 A 
BRANCH  17  20
ATOM     20  O   UNL     1      -1.834  11.714  19.916  0.00  0.00    +0.000 OA
ATOM     21  C   UNL     1      -1.530  13.089  19.737  0.00  0.00    +0.000 C 
ENDBRANCH  17  20
BRANCH  18  22
ATOM     22  O   UNL     1      -0.662  10.601  21.978  0.00  0.00    +0.000 OA
ATOM     23  C   UNL     1      -0.362   9.764  23.086  0.00  0.00    +0.000 C 
ENDBRANCH  18  22
ENDBRANCH  13  14
ENDBRANCH  10  12
BRANCH   1  24
ATOM     24  S   UNL     1       5.823   5.267  15.536  0.00  0.00    +0.000 S 
BRANCH  24  26
ATOM     25  C   UNL     1       5.708   3.818  13.216  0.00  0.00    +0.000 C 
ATOM     26  C   UNL     1       6.265   3.757  14.627  0.00  0.00    +0.000 C 
ENDBRANCH  24  26
ENDBRANCH   1  24
TORSDOF 6
ENDMDL
MODEL 4
REMARK VINA RESULT:      -7.3      2.855      4.549
REMARK  Name = 
REMARK  9 active torsions:
REMARK  status: ('A' for Active; 'I' for Inactive)
REMARK    1  A    between atoms: C_1  and  C_2
REMARK    2  A    between atoms: C_2  and  S_3
REMARK    3  A    between atoms: S_3  and  C_4
REMARK    4  A    between atoms: C_13  and  C_15
REMARK    5  A    between atoms: C_16  and  C_17
REMARK    6  A    between atoms: C_20  and  O_21
REMARK    7  A    between atoms: O_21  and  C_22
REMARK    8  A    between atoms: C_23  and  O_24
REMARK    9  A    between atoms: O_24  and  C_25
REMARK                            x       y       z     vdW  Elec       q    Type
REMARK                         _______ _______ _______ _____ _____    ______ ____
ROOT
ATOM      1  C   UNL     1       4.133   4.842  17.066  0.00  0.00    +0.000 A 
ATOM      2  N   UNL     1       3.834   3.579  17.260  0.00  0.00    +0.000 NA
ATOM      3  C   UNL     1       2.896   3.578  18.245  0.00  0.00    +0.000 A 
ATOM      4  C   UNL     1       2.261   2.476  18.839  0.00  0.00    +0.000 A 
ATOM      5  C   UNL     1       1.330   2.697  19.857  0.00  0.00    +0.000 A 
ATOM      6  C   UNL     1       1.053   3.992  20.289  0.00  0.00    +0.000 A 
ATOM      7  C   UNL     1       1.684   5.102  19.714  0.00  0.00    +0.000 A 
ATOM      8  C   UNL     1       2.591   4.875  18.662  0.00  0.00    +0.000 A 
ATOM      9  N   UNL     1       3.399   5.704  17.872  0.00  0.00    +0.000 N 
ATOM     10  C   UNL     1       3.475   7.108  17.891  0.00  0.00    +0.000 C 
ATOM     11  O   UNL     1       4.523   7.683  17.628  0.00  0.00    +0.000 OA
ENDROOT
BRANCH  10  12
ATOM     12  C   UNL     1       2.206   7.828  18.151  0.00  0.00    +0.000 C 
ATOM     13  C   UNL     1       2.216   9.159  18.338  0.00  0.00    +0.000 C 
BRANCH  13  14
ATOM     14  C   UNL     1       0.956   9.889  18.448  0.00  0.00    +0.000 A 
ATOM     15  C   UNL     1       0.803  10.924  19.368  0.00  0.00    +0.000 A 
ATOM     16  C   UNL     1      -0.445  11.535  19.533  0.00  0.00    +0.000 A 
ATOM     17  C   UNL     1      -1.549  11.105  18.787  0.00  0.00    +0.000 A 
ATOM     18  C   UNL     1      -1.388  10.078  17.835  0.00  0.00    +0.000 A 
ATOM     19  C   UNL     1      -0.132   9.485  17.667  0.00  0.00    +0.000 A 
BRANCH  17  20
ATOM     20  O   UNL     1      -2.818  11.612  18.917  0.00  0.00    +0.000 OA
ATOM     21  C   UNL     1      -3.064  12.518  19.983  0.00  0.00    +0.000 C 
ENDBRANCH  17  20
BRANCH  18  22
ATOM     22  O   UNL     1      -2.515   9.710  17.142  0.00  0.00    +0.000 OA
ATOM     23  C   UNL     1      -2.619  10.120  15.786  0.00  0.00    +0.000 C 
ENDBRANCH  18  22
ENDBRANCH  13  14
ENDBRANCH  10  12
BRANCH   1  24
ATOM     24  S   UNL     1       5.211   5.359  15.800  0.00  0.00    +0.000 S 
BRANCH  24  26
ATOM     25  C   UNL     1       6.248   3.820  13.787  0.00  0.00    +0.000 C 
ATOM     26  C   UNL     1       5.882   3.760  15.259  0.00  0.00    +0.000 C 
ENDBRANCH  24  26
ENDBRANCH   1  24
TORSDOF 6
ENDMDL
MODEL 5
REMARK VINA RESULT:      -7.3      2.661      4.229
REMARK  Name = 
REMARK  9 active torsions:
REMARK  status: ('A' for Active; 'I' for Inactive)
REMARK    1  A    between atoms: C_1  and  C_2
REMARK    2  A    between atoms: C_2  and  S_3
REMARK    3  A    between atoms: S_3  and  C_4
REMARK    4  A    between atoms: C_13  and  C_15
REMARK    5  A    between atoms: C_16  and  C_17
REMARK    6  A    between atoms: C_20  and  O_21
REMARK    7  A    between atoms: O_21  and  C_22
REMARK    8  A    between atoms: C_23  and  O_24
REMARK    9  A    between atoms: O_24  and  C_25
REMARK                            x       y       z     vdW  Elec       q    Type
REMARK                         _______ _______ _______ _____ _____    ______ ____
ROOT
ATOM      1  C   UNL     1       4.299   4.774  16.784  0.00  0.00    +0.000 A 
ATOM      2  N   UNL     1       4.010   3.494  16.809  0.00  0.00    +0.000 NA
ATOM      3  C   UNL     1       3.010   3.368  17.724  0.00  0.00    +0.000 A 
ATOM      4  C   UNL     1       2.358   2.198  18.142  0.00  0.00    +0.000 A 
ATOM      5  C   UNL     1       1.360   2.290  19.116  0.00  0.00    +0.000 A 
ATOM      6  C   UNL     1       1.034   3.523  19.677  0.00  0.00    +0.000 A 
ATOM      7  C   UNL     1       1.682   4.698  19.279  0.00  0.00    +0.000 A 
ATOM      8  C   UNL     1       2.658   4.604  18.269  0.00  0.00    +0.000 A 
ATOM      9  N   UNL     1       3.501   5.529  17.636  0.00  0.00    +0.000 N 
ATOM     10  C   UNL     1       3.552   6.921  17.823  0.00  0.00    +0.000 C 
ATOM     11  O   UNL     1       4.605   7.532  17.699  0.00  0.00    +0.000 OA
ENDROOT
BRANCH  10  12
ATOM     12  C   UNL     1       2.256   7.593  18.082  0.00  0.00    +0.000 C 
ATOM     13  C   UNL     1       2.222   8.918  18.310  0.00  0.00    +0.000 C 
BRANCH  13  14
ATOM     14  C   UNL     1       0.938   9.605  18.419  0.00  0.00    +0.000 A 
ATOM     15  C   UNL     1      -0.100   9.334  17.530  0.00  0.00    +0.000 A 
ATOM     16  C   UNL     1      -1.281  10.082  17.585  0.00  0.00    +0.000 A 
ATOM     17  C   UNL     1      -1.426  11.112  18.520  0.00  0.00    +0.000 A 
ATOM     18  C   UNL     1      -0.388  11.368  19.440  0.00  0.00    +0.000 A 
ATOM     19  C   UNL     1       0.783  10.603  19.387  0.00  0.00    +0.000 A 
BRANCH  17  20
ATOM     20  O   UNL     1      -2.527  11.927  18.614  0.00  0.00    +0.000 OA
ATOM     21  C   UNL     1      -3.788  11.381  18.257  0.00  0.00    +0.000 C 
ENDBRANCH  17  20
BRANCH  18  22
ATOM     22  O   UNL     1      -0.600  12.394  20.327  0.00  0.00    +0.000 OA
ATOM     23  C   UNL     1      -0.244  12.175  21.685  0.00  0.00    +0.000 C 
ENDBRANCH  18  22
ENDBRANCH  13  14
ENDBRANCH  10  12
BRANCH   1  24
ATOM     24  S   UNL     1       5.448   5.446  15.661  0.00  0.00    +0.000 S 
BRANCH  24  26
ATOM     25  C   UNL     1       5.990   3.806  13.537  0.00  0.00    +0.000 C 
ATOM     26  C   UNL     1       6.226   3.930  15.032  0.00  0.00    +0.000 C 
ENDBRANCH  24  26
ENDBRANCH   1  24
TORSDOF 6
ENDMDL
MODEL 6
REMARK VINA RESULT:      -7.2      2.270      4.047
REMARK  Name = 
REMARK  9 active torsions:
REMARK  status: ('A' for Active; 'I' for Inactive)
REMARK    1  A    between atoms: C_1  and  C_2
REMARK    2  A    between atoms: C_2  and  S_3
REMARK    3  A    between atoms: S_3  and  C_4
REMARK    4  A    between atoms: C_13  and  C_15
REMARK    5  A    between atoms: C_16  and  C_17
REMARK    6  A    between atoms: C_20  and  O_21
REMARK    7  A    between atoms: O_21  and  C_22
REMARK    8  A    between atoms: C_23  and  O_24
REMARK    9  A    between atoms: O_24  and  C_25
REMARK                            x       y       z     vdW  Elec       q    Type
REMARK                         _______ _______ _______ _____ _____    ______ ____
ROOT
ATOM      1  C   UNL     1       4.192   4.588  17.172  0.00  0.00    +0.000 A 
ATOM      2  N   UNL     1       3.915   3.341  17.472  0.00  0.00    +0.000 NA
ATOM      3  C   UNL     1       2.995   3.406  18.471  0.00  0.00    +0.000 A 
ATOM      4  C   UNL     1       2.388   2.347  19.163  0.00  0.00    +0.000 A 
ATOM      5  C   UNL     1       1.471   2.636  20.178  0.00  0.00    +0.000 A 
ATOM      6  C   UNL     1       1.182   3.958  20.508  0.00  0.00    +0.000 A 
ATOM      7  C   UNL     1       1.786   5.027  19.835  0.00  0.00    +0.000 A 
ATOM      8  C   UNL     1       2.677   4.728  18.788  0.00  0.00    +0.000 A 
ATOM      9  N   UNL     1       3.459   5.502  17.919  0.00  0.00    +0.000 N 
ATOM     10  C   UNL     1       3.514   6.904  17.824  0.00  0.00    +0.000 C 
ATOM     11  O   UNL     1       4.548   7.470  17.497  0.00  0.00    +0.000 OA
ENDROOT
BRANCH  10  12
ATOM     12  C   UNL     1       2.238   7.624  18.049  0.00  0.00    +0.000 C 
ATOM     13  C   UNL     1       2.253   8.935  18.350  0.00  0.00    +0.000 C 
BRANCH  13  14
ATOM     14  C   UNL     1       0.998   9.678  18.427  0.00  0.00    +0.000 A 
ATOM     15  C   UNL     1      -0.103   9.313  17.655  0.00  0.00    +0.000 A 
ATOM     16  C   UNL     1      -1.257  10.104  17.663  0.00  0.00    +0.000 A 
ATOM     17  C   UNL     1      -1.312  11.270  18.434  0.00  0.00    +0.000 A 
ATOM     18  C   UNL     1      -0.210  11.624  19.240  0.00  0.00    +0.000 A 
ATOM     19  C   UNL     1       0.933  10.817  19.236  0.00  0.00    +0.000 A 
BRANCH  17  20
ATOM     20  O   UNL     1      -2.382  12.130  18.466  0.00  0.00    +0.000 OA
ATOM     21  C   UNL     1      -3.684  11.571  18.381  0.00  0.00    +0.000 C 
ENDBRANCH  17  20
BRANCH  18  22
ATOM     22  O   UNL     1      -0.337  12.781  19.968  0.00  0.00    +0.000 OA
ATOM     23  C   UNL     1       0.775  13.192  20.752  0.00  0.00    +0.000 C 
ENDBRANCH  18  22
ENDBRANCH  13  14
ENDBRANCH  10  12
BRANCH   1  24
ATOM     24  S   UNL     1       5.240   5.016  15.849  0.00  0.00    +0.000 S 
BRANCH  24  26
ATOM     25  C   UNL     1       7.241   5.161  17.712  0.00  0.00    +0.000 C 
ATOM     26  C   UNL     1       6.830   4.393  16.468  0.00  0.00    +0.000 C 
ENDBRANCH  24  26
ENDBRANCH   1  24
TORSDOF 6
ENDMDL
MODEL 7
REMARK VINA RESULT:      -7.2      2.457      4.250
REMARK  Name = 
REMARK  9 active torsions:
REMARK  status: ('A' for Active; 'I' for Inactive)
REMARK    1  A    between atoms: C_1  and  C_2
REMARK    2  A    between atoms: C_2  and  S_3
REMARK    3  A    between atoms: S_3  and  C_4
REMARK    4  A    between atoms: C_13  and  C_15
REMARK    5  A    between atoms: C_16  and  C_17
REMARK    6  A    between atoms: C_20  and  O_21
REMARK    7  A    between atoms: O_21  and  C_22
REMARK    8  A    between atoms: C_23  and  O_24
REMARK    9  A    between atoms: O_24  and  C_25
REMARK                            x       y       z     vdW  Elec       q    Type
REMARK                         _______ _______ _______ _____ _____    ______ ____
ROOT
ATOM      1  C   UNL     1       4.174   4.481  16.958  0.00  0.00    +0.000 A 
ATOM      2  N   UNL     1       3.816   3.241  17.190  0.00  0.00    +0.000 NA
ATOM      3  C   UNL     1       2.874   3.315  18.170  0.00  0.00    +0.000 A 
ATOM      4  C   UNL     1       2.187   2.264  18.796  0.00  0.00    +0.000 A 
ATOM      5  C   UNL     1       1.263   2.562  19.801  0.00  0.00    +0.000 A 
ATOM      6  C   UNL     1       1.045   3.882  20.188  0.00  0.00    +0.000 A 
ATOM      7  C   UNL     1       1.729   4.942  19.582  0.00  0.00    +0.000 A 
ATOM      8  C   UNL     1       2.628   4.638  18.543  0.00  0.00    +0.000 A 
ATOM      9  N   UNL     1       3.478   5.403  17.731  0.00  0.00    +0.000 N 
ATOM     10  C   UNL     1       3.619   6.801  17.704  0.00  0.00    +0.000 C 
ATOM     11  O   UNL     1       4.694   7.318  17.429  0.00  0.00    +0.000 OA
ENDROOT
BRANCH  10  12
ATOM     12  C   UNL     1       2.383   7.587  17.934  0.00  0.00    +0.000 C 
ATOM     13  C   UNL     1       2.322   8.456  18.958  0.00  0.00    +0.000 C 
BRANCH  13  14
ATOM     14  C   UNL     1       1.165   9.335  19.098  0.00  0.00    +0.000 A 
ATOM     15  C   UNL     1       0.757   9.793  20.350  0.00  0.00    +0.000 A 
ATOM     16  C   UNL     1      -0.418  10.544  20.472  0.00  0.00    +0.000 A 
ATOM     17  C   UNL     1      -1.197  10.829  19.346  0.00  0.00    +0.000 A 
ATOM     18  C   UNL     1      -0.770  10.392  18.075  0.00  0.00    +0.000 A 
ATOM     19  C   UNL     1       0.414   9.657  17.962  0.00  0.00    +0.000 A 
BRANCH  17  20
ATOM     20  O   UNL     1      -2.386  11.515  19.378  0.00  0.00    +0.000 OA
ATOM     21  C   UNL     1      -2.582  12.454  20.426  0.00  0.00    +0.000 C 
ENDBRANCH  17  20
BRANCH  18  22
ATOM     22  O   UNL     1      -1.587  10.710  17.017  0.00  0.00    +0.000 OA
ATOM     23  C   UNL     1      -2.444   9.693  16.519  0.00  0.00    +0.000 C 
ENDBRANCH  18  22
ENDBRANCH  13  14
ENDBRANCH  10  12
BRANCH   1  24
ATOM     24  S   UNL     1       5.281   4.907  15.682  0.00  0.00    +0.000 S 
BRANCH  24  26
ATOM     25  C   UNL     1       6.865   4.766  17.910  0.00  0.00    +0.000 C 
ATOM     26  C   UNL     1       6.860   4.415  16.433  0.00  0.00    +0.000 C 
ENDBRANCH  24  26
ENDBRANCH   1  24
TORSDOF 6
ENDMDL
MODEL 8
REMARK VINA RESULT:      -7.1      0.895      1.841
REMARK  Name = 
REMARK  9 active torsions:
REMARK  status: ('A' for Active; 'I' for Inactive)
REMARK    1  A    between atoms: C_1  and  C_2
REMARK    2  A    between atoms: C_2  and  S_3
REMARK    3  A    between atoms: S_3  and  C_4
REMARK    4  A    between atoms: C_13  and  C_15
REMARK    5  A    between atoms: C_16  and  C_17
REMARK    6  A    between atoms: C_20  and  O_21
REMARK    7  A    between atoms: O_21  and  C_22
REMARK    8  A    between atoms: C_23  and  O_24
REMARK    9  A    between atoms: O_24  and  C_25
REMARK                            x       y       z     vdW  Elec       q    Type
REMARK                         _______ _______ _______ _____ _____    ______ ____
ROOT
ATOM      1  C   UNL     1       4.391   3.564  18.641  0.00  0.00    +0.000 A 
ATOM      2  N   UNL     1       5.702   3.577  18.697  0.00  0.00    +0.000 NA
ATOM      3  C   UNL     1       6.067   4.829  18.308  0.00  0.00    +0.000 A 
ATOM      4  C   UNL     1       7.361   5.354  18.174  0.00  0.00    +0.000 A 
ATOM      5  C   UNL     1       7.516   6.674  17.740  0.00  0.00    +0.000 A 
ATOM      6  C   UNL     1       6.400   7.447  17.427  0.00  0.00    +0.000 A 
ATOM      7  C   UNL     1       5.102   6.936  17.546  0.00  0.00    +0.000 A 
ATOM      8  C   UNL     1       4.953   5.620  18.021  0.00  0.00    +0.000 A 
ATOM      9  N   UNL     1       3.850   4.785  18.255  0.00  0.00    +0.000 N 
ATOM     10  C   UNL     1       2.487   5.096  18.118  0.00  0.00    +0.000 C 
ATOM     11  O   UNL     1       1.677   4.238  17.792  0.00  0.00    +0.000 OA
ENDROOT
BRANCH  10  12
ATOM     12  C   UNL     1       2.092   6.479  18.480  0.00  0.00    +0.000 C 
ATOM     13  C   UNL     1       1.806   6.782  19.758  0.00  0.00    +0.000 C 
BRANCH  13  14
ATOM     14  C   UNL     1       1.561   8.170  20.139  0.00  0.00    +0.000 A 
ATOM     15  C   UNL     1       1.259   8.511  21.456  0.00  0.00    +0.000 A 
ATOM     16  C   UNL     1       0.920   9.830  21.778  0.00  0.00    +0.000 A 
ATOM     17  C   UNL     1       0.869  10.812  20.782  0.00  0.00    +0.000 A 
ATOM     18  C   UNL     1       1.203  10.474  19.454  0.00  0.00    +0.000 A 
ATOM     19  C   UNL     1       1.557   9.156  19.147  0.00  0.00    +0.000 A 
BRANCH  17  20
ATOM     20  O   UNL     1       0.500  12.117  20.996  0.00  0.00    +0.000 OA
ATOM     21  C   UNL     1      -0.761  12.358  21.602  0.00  0.00    +0.000 C 
ENDBRANCH  17  20
BRANCH  18  22
ATOM     22  O   UNL     1       1.130  11.489  18.532  0.00  0.00    +0.000 OA
ATOM     23  C   UNL     1       2.347  12.100  18.127  0.00  0.00    +0.000 C 
ENDBRANCH  18  22
ENDBRANCH  13  14
ENDBRANCH  10  12
BRANCH   1  24
ATOM     24  S   UNL     1       3.451   2.197  19.173  0.00  0.00    +0.000 S 
BRANCH  24  26
ATOM     25  C   UNL     1       1.730   3.085  21.109  0.00  0.00    +0.000 C 
ATOM     26  C   UNL     1       3.169   2.642  20.911  0.00  0.00    +0.000 C 
ENDBRANCH  24  26
ENDBRANCH   1  24
TORSDOF 6
ENDMDL
MODEL 9
REMARK VINA RESULT:      -7.0      4.278      8.325
REMARK  Name = 
REMARK  9 active torsions:
REMARK  status: ('A' for Active; 'I' for Inactive)
REMARK    1  A    between atoms: C_1  and  C_2
REMARK    2  A    between atoms: C_2  and  S_3
REMARK    3  A    between atoms: S_3  and  C_4
REMARK    4  A    between atoms: C_13  and  C_15
REMARK    5  A    between atoms: C_16  and  C_17
REMARK    6  A    between atoms: C_20  and  O_21
REMARK    7  A    between atoms: O_21  and  C_22
REMARK    8  A    between atoms: C_23  and  O_24
REMARK    9  A    between atoms: O_24  and  C_25
REMARK                            x       y       z     vdW  Elec       q    Type
REMARK                         _______ _______ _______ _____ _____    ______ ____
ROOT
ATOM      1  C   UNL     1      -1.765  12.286  20.243  0.00  0.00    +0.000 A 
ATOM      2  N   UNL     1      -2.953  12.363  19.694  0.00  0.00    +0.000 NA
ATOM      3  C   UNL     1      -2.908  11.529  18.619  0.00  0.00    +0.000 A 
ATOM      4  C   UNL     1      -3.918  11.266  17.681  0.00  0.00    +0.000 A 
ATOM      5  C   UNL     1      -3.655  10.379  16.633  0.00  0.00    +0.000 A 
ATOM      6  C   UNL     1      -2.402   9.783  16.513  0.00  0.00    +0.000 A 
ATOM      7  C   UNL     1      -1.380  10.042  17.434  0.00  0.00    +0.000 A 
ATOM      8  C   UNL     1      -1.665  10.904  18.510  0.00  0.00    +0.000 A 
ATOM      9  N   UNL     1      -0.919  11.397  19.590  0.00  0.00    +0.000 N 
ATOM     10  C   UNL     1       0.405  11.082  19.942  0.00  0.00    +0.000 C 
ATOM     11  O   UNL     1       1.123  11.909  20.487  0.00  0.00    +0.000 OA
ENDROOT
BRANCH  10  12
ATOM     12  C   UNL     1       0.830   9.682  19.700  0.00  0.00    +0.000 C 
ATOM     13  C   UNL     1       1.880   9.430  18.899  0.00  0.00    +0.000 C 
BRANCH  13  14
ATOM     14  C   UNL     1       2.390   8.067  18.775  0.00  0.00    +0.000 A 
ATOM     15  C   UNL     1       3.081   7.658  17.636  0.00  0.00    +0.000 A 
ATOM     16  C   UNL     1       3.463   6.320  17.492  0.00  0.00    +0.000 A 
ATOM     17  C   UNL     1       3.147   5.382  18.480  0.00  0.00    +0.000 A 
ATOM     18  C   UNL     1       2.474   5.800  19.647  0.00  0.00    +0.000 A 
ATOM     19  C   UNL     1       2.111   7.144  19.788  0.00  0.00    +0.000 A 
BRANCH  17  20
ATOM     20  O   UNL     1       3.439   4.043  18.402  0.00  0.00    +0.000 OA
ATOM     21  C   UNL     1       2.867   3.301  17.334  0.00  0.00    +0.000 C 
ENDBRANCH  17  20
BRANCH  18  22
ATOM     22  O   UNL     1       2.197   4.823  20.572  0.00  0.00    +0.000 OA
ATOM     23  C   UNL     1       0.952   4.149  20.465  0.00  0.00    +0.000 C 
ENDBRANCH  18  22
ENDBRANCH  13  14
ENDBRANCH  10  12
BRANCH   1  24
ATOM     24  S   UNL     1      -1.377  13.093  21.738  0.00  0.00    +0.000 S 
BRANCH  24  26
ATOM     25  C   UNL     1      -1.142  10.758  23.147  0.00  0.00    +0.000 C 
ATOM     26  C   UNL     1      -2.086  11.929  22.939  0.00  0.00    +0.000 C 
ENDBRANCH  24  26
ENDBRANCH   1  24
TORSDOF 6
ENDMDL
