MODEL 1
REMARK VINA RESULT:      -8.2      0.000      0.000
REMARK  Name = 
REMARK  13 active torsions:
REMARK  status: ('A' for Active; 'I' for Inactive)
REMARK    1  A    between atoms: C_2  and  C_3
REMARK    2  A    between atoms: C_4  and  C_5
REMARK    3  A    between atoms: C_8  and  C_9
REMARK    4  A    between atoms: C_9  and  N_10
REMARK    5  A    between atoms: N_10  and  C_11
REMARK    6  A    between atoms: N_10  and  C_21
REMARK    7  A    between atoms: C_11  and  C_12
REMARK    8  A    between atoms: C_12  and  C_13
REMARK    9  A    between atoms: C_13  and  O_14
REMARK   10  A    between atoms: O_14  and  C_15
REMARK   11  A    between atoms: C_21  and  C_22
REMARK   12  A    between atoms: C_22  and  C_23
REMARK   13  A    between atoms: N_33  and  O_34
REMARK                            x       y       z     vdW  Elec       q    Type
REMARK                         _______ _______ _______ _____ _____    ______ ____
ROOT
ATOM      1  N   UNL     1       3.736   6.033  17.965  0.00  0.00    +0.000 NA
ENDROOT
BRANCH   1   2
ATOM      2  C   UNL     1       4.645   6.928  17.205  0.00  0.00    +0.000 C 
BRANCH   2   6
ATOM      3  C   UNL     1       6.447   4.928  14.805  0.00  0.00    +0.000 A 
ATOM      4  C   UNL     1       7.533   5.245  15.615  0.00  0.00    +0.000 A 
ATOM      5  C   UNL     1       7.054   6.007  16.705  0.00  0.00    +0.000 A 
ATOM      6  C   UNL     1       5.706   6.165  16.491  0.00  0.00    +0.000 A 
ATOM      7  O   UNL     1       5.330   5.504  15.370  0.00  0.00    +0.000 OA
BRANCH   3   9
ATOM      8  C   UNL     1       5.257   3.651  13.181  0.00  0.00    +0.000 C 
ATOM      9  C   UNL     1       6.418   4.171  13.601  0.00  0.00    +0.000 C 
BRANCH   8  11
ATOM     10  O   UNL     1       4.292   2.965  11.106  0.00  0.00    +0.000 OA
ATOM     11  C   UNL     1       5.180   2.834  11.944  0.00  0.00    +0.000 C 
ATOM     12  N   UNL     1       6.213   1.945  11.840  0.00  0.00    +0.000 N 
ATOM     13  H   UNL     1       6.980   1.855  12.499  0.00  0.00    +0.000 HD
BRANCH  12  14
ATOM     14  O   UNL     1       6.294   1.163  10.669  0.00  0.00    +0.000 OA
ATOM     15  H   UNL     1       7.099   0.625  10.824  0.00  0.00    +0.000 HD
ENDBRANCH  12  14
ENDBRANCH   8  11
ENDBRANCH   3   9
ENDBRANCH   2   6
ENDBRANCH   1   2
BRANCH   1  16
ATOM     16  C   UNL     1       4.248   5.863  19.343  0.00  0.00    +0.000 C 
BRANCH  16  17
ATOM     17  C   UNL     1       5.414   4.888  19.512  0.00  0.00    +0.000 C 
BRANCH  17  18
ATOM     18  C   UNL     1       5.225   3.549  18.805  0.00  0.00    +0.000 C 
BRANCH  18  19
ATOM     19  O   UNL     1       4.614   2.688  19.769  0.00  0.00    +0.000 OA
BRANCH  19  20
ATOM     20  C   UNL     1       3.252   2.693  19.842  0.00  0.00    +0.000 A 
ATOM     21  C   UNL     1       2.744   2.889  21.129  0.00  0.00    +0.000 A 
ATOM     22  C   UNL     1       1.368   2.939  21.347  0.00  0.00    +0.000 A 
ATOM     23  C   UNL     1       0.492   2.811  20.272  0.00  0.00    +0.000 A 
ATOM     24  C   UNL     1       0.996   2.635  18.983  0.00  0.00    +0.000 A 
ATOM     25  C   UNL     1       2.376   2.574  18.766  0.00  0.00    +0.000 A 
ENDBRANCH  19  20
ENDBRANCH  18  19
ENDBRANCH  17  18
ENDBRANCH  16  17
ENDBRANCH   1  16
BRANCH   1  26
ATOM     26  C   UNL     1       2.353   6.558  17.952  0.00  0.00    +0.000 C 
BRANCH  26  27
ATOM     27  C   UNL     1       2.306   8.095  17.855  0.00  0.00    +0.000 C 
BRANCH  27  28
ATOM     28  C   UNL     1       1.606   8.789  18.999  0.00  0.00    +0.000 A 
ATOM     29  C   UNL     1       1.558   8.273  20.315  0.00  0.00    +0.000 A 
ATOM     30  C   UNL     1       1.079   9.054  21.373  0.00  0.00    +0.000 A 
ATOM     31  C   UNL     1       0.683  10.339  21.079  0.00  0.00    +0.000 A 
ATOM     32  C   UNL     1       0.637  10.807  19.787  0.00  0.00    +0.000 A 
ATOM     33  C   UNL     1       1.040  10.044  18.724  0.00  0.00    +0.000 A 
ATOM     34  O   UNL     1       0.288  12.120  19.720  0.00  0.00    +0.000 OA
ATOM     35  C   UNL     1       0.493  12.468  21.102  0.00  0.00    +0.000 C 
ATOM     36  O   UNL     1       0.392  11.322  21.976  0.00  0.00    +0.000 OA
ENDBRANCH  27  28
ENDBRANCH  26  27
ENDBRANCH   1  26
TORSDOF 13
ENDMDL
MODEL 2
REMARK VINA RESULT:      -7.8      4.271      7.411
REMARK  Name = 
REMARK  13 active torsions:
REMARK  status: ('A' for Active; 'I' for Inactive)
REMARK    1  A    between atoms: C_2  and  C_3
REMARK    2  A    between atoms: C_4  and  C_5
REMARK    3  A    between atoms: C_8  and  C_9
REMARK    4  A    between atoms: C_9  and  N_10
REMARK    5  A    between atoms: N_10  and  C_11
REMARK    6  A    between atoms: N_10  and  C_21
REMARK    7  A    between atoms: C_11  and  C_12
REMARK    8  A    between atoms: C_12  and  C_13
REMARK    9  A    between atoms: C_13  and  O_14
REMARK   10  A    between atoms: O_14  and  C_15
REMARK   11  A    between atoms: C_21  and  C_22
REMARK   12  A    between atoms: C_22  and  C_23
REMARK   13  A    between atoms: N_33  and  O_34
REMARK                            x       y       z     vdW  Elec       q    Type
REMARK                         _______ _______ _______ _____ _____    ______ ____
ROOT
ATOM      1  N   UNL     1       6.491   7.296  17.891  0.00  0.00    +0.000 NA
ENDROOT
BRANCH   1   2
ATOM      2  C   UNL     1       5.422   7.181  16.866  0.00  0.00    +0.000 C 
BRANCH   2   6
ATOM      3  C   UNL     1       2.265   8.090  18.354  0.00  0.00    +0.000 A 
ATOM      4  C   UNL     1       2.010   6.728  18.226  0.00  0.00    +0.000 A 
ATOM      5  C   UNL     1       3.170   6.116  17.699  0.00  0.00    +0.000 A 
ATOM      6  C   UNL     1       4.067   7.133  17.481  0.00  0.00    +0.000 A 
ATOM      7  O   UNL     1       3.544   8.314  17.891  0.00  0.00    +0.000 OA
BRANCH   3   9
ATOM      8  C   UNL     1       0.495   9.654  18.033  0.00  0.00    +0.000 C 
ATOM      9  C   UNL     1       1.415   9.118  18.846  0.00  0.00    +0.000 C 
BRANCH   8  11
ATOM     10  O   UNL     1      -0.483  11.097  19.667  0.00  0.00    +0.000 OA
ATOM     11  C   UNL     1      -0.400  10.746  18.493  0.00  0.00    +0.000 C 
ATOM     12  N   UNL     1      -1.093  11.321  17.466  0.00  0.00    +0.000 N 
ATOM     13  H   UNL     1      -1.003  11.075  16.484  0.00  0.00    +0.000 HD
BRANCH  12  14
ATOM     14  O   UNL     1      -1.921  12.423  17.765  0.00  0.00    +0.000 OA
ATOM     15  H   UNL     1      -1.557  12.741  18.618  0.00  0.00    +0.000 HD
ENDBRANCH  12  14
ENDBRANCH   8  11
ENDBRANCH   3   9
ENDBRANCH   2   6
ENDBRANCH   1   2
BRANCH   1  16
ATOM     16  C   UNL     1       7.081   5.962  18.142  0.00  0.00    +0.000 C 
BRANCH  16  17
ATOM     17  C   UNL     1       6.355   5.086  19.163  0.00  0.00    +0.000 C 
BRANCH  17  18
ATOM     18  C   UNL     1       5.648   3.873  18.565  0.00  0.00    +0.000 C 
BRANCH  18  19
ATOM     19  O   UNL     1       4.979   3.239  19.659  0.00  0.00    +0.000 OA
BRANCH  19  20
ATOM     20  C   UNL     1       3.618   3.186  19.617  0.00  0.00    +0.000 A 
ATOM     21  C   UNL     1       3.098   2.541  18.492  0.00  0.00    +0.000 A 
ATOM     22  C   UNL     1       1.722   2.395  18.330  0.00  0.00    +0.000 A 
ATOM     23  C   UNL     1       0.855   2.881  19.308  0.00  0.00    +0.000 A 
ATOM     24  C   UNL     1       1.370   3.509  20.442  0.00  0.00    +0.000 A 
ATOM     25  C   UNL     1       2.751   3.664  20.598  0.00  0.00    +0.000 A 
ENDBRANCH  19  20
ENDBRANCH  18  19
ENDBRANCH  17  18
ENDBRANCH  16  17
ENDBRANCH   1  16
BRANCH   1  26
ATOM     26  C   UNL     1       7.513   8.281  17.474  0.00  0.00    +0.000 C 
BRANCH  26  27
ATOM     27  C   UNL     1       8.616   8.471  18.533  0.00  0.00    +0.000 C 
BRANCH  27  28
ATOM     28  C   UNL     1       8.909   9.905  18.905  0.00  0.00    +0.000 A 
ATOM     29  C   UNL     1       9.294  10.312  20.205  0.00  0.00    +0.000 A 
ATOM     30  C   UNL     1       9.751  11.613  20.440  0.00  0.00    +0.000 A 
ATOM     31  C   UNL     1       9.829  12.460  19.357  0.00  0.00    +0.000 A 
ATOM     32  C   UNL     1       9.363  12.096  18.116  0.00  0.00    +0.000 A 
ATOM     33  C   UNL     1       8.851  10.850  17.870  0.00  0.00    +0.000 A 
ATOM     34  O   UNL     1       9.598  13.046  17.172  0.00  0.00    +0.000 OA
ATOM     35  C   UNL     1      10.564  13.832  17.893  0.00  0.00    +0.000 C 
ATOM     36  O   UNL     1      10.437  13.678  19.324  0.00  0.00    +0.000 OA
ENDBRANCH  27  28
ENDBRANCH  26  27
ENDBRANCH   1  26
TORSDOF 13
ENDMDL
MODEL 3
REMARK VINA RESULT:      -7.8      3.616      7.587
REMARK  Name = 
REMARK  13 active torsions:
REMARK  status: ('A' for Active; 'I' for Inactive)
REMARK    1  A    between atoms: C_2  and  C_3
REMARK    2  A    between atoms: C_4  and  C_5
REMARK    3  A    between atoms: C_8  and  C_9
REMARK    4  A    between atoms: C_9  and  N_10
REMARK    5  A    between atoms: N_10  and  C_11
REMARK    6  A    between atoms: N_10  and  C_21
REMARK    7  A    between atoms: C_11  and  C_12
REMARK    8  A    between atoms: C_12  and  C_13
REMARK    9  A    between atoms: C_13  and  O_14
REMARK   10  A    between atoms: O_14  and  C_15
REMARK   11  A    between atoms: C_21  and  C_22
REMARK   12  A    between atoms: C_22  and  C_23
REMARK   13  A    between atoms: N_33  and  O_34
REMARK                            x       y       z     vdW  Elec       q    Type
REMARK                         _______ _______ _______ _____ _____    ______ ____
ROOT
ATOM      1  N   UNL     1       4.818   5.424  17.265  0.00  0.00    +0.000 NA
ENDROOT
BRANCH   1   2
ATOM      2  C   UNL     1       5.997   5.845  16.467  0.00  0.00    +0.000 C 
BRANCH   2   6
ATOM      3  C   UNL     1       7.928   8.555  17.859  0.00  0.00    +0.000 A 
ATOM      4  C   UNL     1       8.361   7.566  18.736  0.00  0.00    +0.000 A 
ATOM      5  C   UNL     1       7.765   6.346  18.344  0.00  0.00    +0.000 A 
ATOM      6  C   UNL     1       6.956   6.647  17.275  0.00  0.00    +0.000 A 
ATOM      7  O   UNL     1       7.065   7.961  16.963  0.00  0.00    +0.000 OA
BRANCH   3   9
ATOM      8  C   UNL     1       9.316  10.373  18.532  0.00  0.00    +0.000 C 
ATOM      9  C   UNL     1       8.258   9.938  17.834  0.00  0.00    +0.000 C 
BRANCH   8  11
ATOM     10  O   UNL     1      10.493  12.283  19.353  0.00  0.00    +0.000 OA
ATOM     11  C   UNL     1       9.687  11.810  18.557  0.00  0.00    +0.000 C 
ATOM     12  N   UNL     1       9.049  12.530  17.586  0.00  0.00    +0.000 N 
ATOM     13  H   UNL     1       8.415  12.148  16.891  0.00  0.00    +0.000 HD
BRANCH  12  14
ATOM     14  O   UNL     1       9.375  13.896  17.458  0.00  0.00    +0.000 OA
ATOM     15  H   UNL     1       8.774  14.196  16.744  0.00  0.00    +0.000 HD
ENDBRANCH  12  14
ENDBRANCH   8  11
ENDBRANCH   3   9
ENDBRANCH   2   6
ENDBRANCH   1   2
BRANCH   1  16
ATOM     16  C   UNL     1       4.072   6.621  17.714  0.00  0.00    +0.000 C 
BRANCH  16  17
ATOM     17  C   UNL     1       2.672   6.372  18.275  0.00  0.00    +0.000 C 
BRANCH  17  18
ATOM     18  C   UNL     1       2.367   7.124  19.568  0.00  0.00    +0.000 C 
BRANCH  18  19
ATOM     19  O   UNL     1       1.833   8.386  19.162  0.00  0.00    +0.000 OA
BRANCH  19  20
ATOM     20  C   UNL     1       1.127   9.097  20.087  0.00  0.00    +0.000 A 
ATOM     21  C   UNL     1       0.803   8.381  21.242  0.00  0.00    +0.000 A 
ATOM     22  C   UNL     1       0.102   8.990  22.281  0.00  0.00    +0.000 A 
ATOM     23  C   UNL     1      -0.264  10.330  22.175  0.00  0.00    +0.000 A 
ATOM     24  C   UNL     1       0.074  11.054  21.032  0.00  0.00    +0.000 A 
ATOM     25  C   UNL     1       0.768  10.439  19.985  0.00  0.00    +0.000 A 
ENDBRANCH  19  20
ENDBRANCH  18  19
ENDBRANCH  17  18
ENDBRANCH  16  17
ENDBRANCH   1  16
BRANCH   1  26
ATOM     26  C   UNL     1       3.961   4.501  16.488  0.00  0.00    +0.000 C 
BRANCH  26  27
ATOM     27  C   UNL     1       4.197   3.024  16.858  0.00  0.00    +0.000 C 
BRANCH  27  28
ATOM     28  C   UNL     1       3.834   2.652  18.276  0.00  0.00    +0.000 A 
ATOM     29  C   UNL     1       4.792   2.409  19.290  0.00  0.00    +0.000 A 
ATOM     30  C   UNL     1       4.399   2.273  20.626  0.00  0.00    +0.000 A 
ATOM     31  C   UNL     1       3.058   2.408  20.906  0.00  0.00    +0.000 A 
ATOM     32  C   UNL     1       2.119   2.545  19.911  0.00  0.00    +0.000 A 
ATOM     33  C   UNL     1       2.467   2.618  18.589  0.00  0.00    +0.000 A 
ATOM     34  O   UNL     1       0.864   2.735  20.402  0.00  0.00    +0.000 OA
ATOM     35  C   UNL     1       1.210   3.062  21.760  0.00  0.00    +0.000 C 
ATOM     36  O   UNL     1       2.496   2.524  22.142  0.00  0.00    +0.000 OA
ENDBRANCH  27  28
ENDBRANCH  26  27
ENDBRANCH   1  26
TORSDOF 13
ENDMDL
MODEL 4
REMARK VINA RESULT:      -7.7      0.815      1.613
REMARK  Name = 
REMARK  13 active torsions:
REMARK  status: ('A' for Active; 'I' for Inactive)
REMARK    1  A    between atoms: C_2  and  C_3
REMARK    2  A    between atoms: C_4  and  C_5
REMARK    3  A    between atoms: C_8  and  C_9
REMARK    4  A    between atoms: C_9  and  N_10
REMARK    5  A    between atoms: N_10  and  C_11
REMARK    6  A    between atoms: N_10  and  C_21
REMARK    7  A    between atoms: C_11  and  C_12
REMARK    8  A    between atoms: C_12  and  C_13
REMARK    9  A    between atoms: C_13  and  O_14
REMARK   10  A    between atoms: O_14  and  C_15
REMARK   11  A    between atoms: C_21  and  C_22
REMARK   12  A    between atoms: C_22  and  C_23
REMARK   13  A    between atoms: N_33  and  O_34
REMARK                            x       y       z     vdW  Elec       q    Type
REMARK                         _______ _______ _______ _____ _____    ______ ____
ROOT
ATOM      1  N   UNL     1       3.761   5.832  18.441  0.00  0.00    +0.000 NA
ENDROOT
BRANCH   1   2
ATOM      2  C   UNL     1       4.341   6.785  17.460  0.00  0.00    +0.000 C 
BRANCH   2   6
ATOM      3  C   UNL     1       6.220   4.821  15.090  0.00  0.00    +0.000 A 
ATOM      4  C   UNL     1       7.290   5.553  15.594  0.00  0.00    +0.000 A 
ATOM      5  C   UNL     1       6.799   6.387  16.624  0.00  0.00    +0.000 A 
ATOM      6  C   UNL     1       5.444   6.168  16.673  0.00  0.00    +0.000 A 
ATOM      7  O   UNL     1       5.091   5.216  15.775  0.00  0.00    +0.000 OA
BRANCH   3   9
ATOM      8  C   UNL     1       5.309   3.943  13.068  0.00  0.00    +0.000 C 
ATOM      9  C   UNL     1       6.210   3.844  14.055  0.00  0.00    +0.000 C 
BRANCH   8  11
ATOM     10  O   UNL     1       4.312   2.865  11.184  0.00  0.00    +0.000 OA
ATOM     11  C   UNL     1       5.245   2.936  11.980  0.00  0.00    +0.000 C 
ATOM     12  N   UNL     1       6.342   2.122  11.955  0.00  0.00    +0.000 N 
ATOM     13  H   UNL     1       7.143   2.196  12.575  0.00  0.00    +0.000 HD
BRANCH  12  14
ATOM     14  O   UNL     1       6.434   1.171  10.918  0.00  0.00    +0.000 OA
ATOM     15  H   UNL     1       5.850   1.548  10.227  0.00  0.00    +0.000 HD
ENDBRANCH  12  14
ENDBRANCH   8  11
ENDBRANCH   3   9
ENDBRANCH   2   6
ENDBRANCH   1   2
BRANCH   1  16
ATOM     16  C   UNL     1       4.822   5.365  19.362  0.00  0.00    +0.000 C 
BRANCH  16  17
ATOM     17  C   UNL     1       5.445   4.007  19.037  0.00  0.00    +0.000 C 
BRANCH  17  18
ATOM     18  C   UNL     1       5.227   2.940  20.107  0.00  0.00    +0.000 C 
BRANCH  18  19
ATOM     19  O   UNL     1       4.219   2.071  19.583  0.00  0.00    +0.000 OA
BRANCH  19  20
ATOM     20  C   UNL     1       2.920   2.456  19.730  0.00  0.00    +0.000 A 
ATOM     21  C   UNL     1       2.122   2.240  18.603  0.00  0.00    +0.000 A 
ATOM     22  C   UNL     1       0.767   2.567  18.619  0.00  0.00    +0.000 A 
ATOM     23  C   UNL     1       0.198   3.097  19.775  0.00  0.00    +0.000 A 
ATOM     24  C   UNL     1       0.986   3.297  20.909  0.00  0.00    +0.000 A 
ATOM     25  C   UNL     1       2.348   2.979  20.888  0.00  0.00    +0.000 A 
ENDBRANCH  19  20
ENDBRANCH  18  19
ENDBRANCH  17  18
ENDBRANCH  16  17
ENDBRANCH   1  16
BRANCH   1  26
ATOM     26  C   UNL     1       2.633   6.452  19.170  0.00  0.00    +0.000 C 
BRANCH  26  27
ATOM     27  C   UNL     1       2.093   7.710  18.462  0.00  0.00    +0.000 C 
BRANCH  27  28
ATOM     28  C   UNL     1       1.560   8.784  19.380  0.00  0.00    +0.000 A 
ATOM     29  C   UNL     1       1.012  10.004  18.919  0.00  0.00    +0.000 A 
ATOM     30  C   UNL     1       0.348  10.867  19.798  0.00  0.00    +0.000 A 
ATOM     31  C   UNL     1       0.235  10.467  21.110  0.00  0.00    +0.000 A 
ATOM     32  C   UNL     1       0.851   9.330  21.577  0.00  0.00    +0.000 A 
ATOM     33  C   UNL     1       1.562   8.498  20.754  0.00  0.00    +0.000 A 
ATOM     34  O   UNL     1       0.556   9.075  22.881  0.00  0.00    +0.000 OA
ATOM     35  C   UNL     1      -0.573   9.957  23.022  0.00  0.00    +0.000 C 
ATOM     36  O   UNL     1      -0.543  11.042  22.068  0.00  0.00    +0.000 OA
ENDBRANCH  27  28
ENDBRANCH  26  27
ENDBRANCH   1  26
TORSDOF 13
ENDMDL
MODEL 5
REMARK VINA RESULT:      -7.7      4.166      7.365
REMARK  Name = 
REMARK  13 active torsions:
REMARK  status: ('A' for Active; 'I' for Inactive)
REMARK    1  A    between atoms: C_2  and  C_3
REMARK    2  A    between atoms: C_4  and  C_5
REMARK    3  A    between atoms: C_8  and  C_9
REMARK    4  A    between atoms: C_9  and  N_10
REMARK    5  A    between atoms: N_10  and  C_11
REMARK    6  A    between atoms: N_10  and  C_21
REMARK    7  A    between atoms: C_11  and  C_12
REMARK    8  A    between atoms: C_12  and  C_13
REMARK    9  A    between atoms: C_13  and  O_14
REMARK   10  A    between atoms: O_14  and  C_15
REMARK   11  A    between atoms: C_21  and  C_22
REMARK   12  A    between atoms: C_22  and  C_23
REMARK   13  A    between atoms: N_33  and  O_34
REMARK                            x       y       z     vdW  Elec       q    Type
REMARK                         _______ _______ _______ _____ _____    ______ ____
ROOT
ATOM      1  N   UNL     1       6.258   6.918  17.637  0.00  0.00    +0.000 NA
ENDROOT
BRANCH   1   2
ATOM      2  C   UNL     1       5.051   6.843  16.775  0.00  0.00    +0.000 C 
BRANCH   2   6
ATOM      3  C   UNL     1       2.148   8.659  17.906  0.00  0.00    +0.000 A 
ATOM      4  C   UNL     1       1.939   7.511  18.663  0.00  0.00    +0.000 A 
ATOM      5  C   UNL     1       3.022   6.633  18.429  0.00  0.00    +0.000 A 
ATOM      6  C   UNL     1       3.821   7.259  17.504  0.00  0.00    +0.000 A 
ATOM      7  O   UNL     1       3.320   8.481  17.202  0.00  0.00    +0.000 OA
BRANCH   3   9
ATOM      8  C   UNL     1       0.379  10.036  18.717  0.00  0.00    +0.000 C 
ATOM      9  C   UNL     1       1.346   9.830  17.813  0.00  0.00    +0.000 C 
BRANCH   8  11
ATOM     10  O   UNL     1      -0.222  12.301  19.182  0.00  0.00    +0.000 OA
ATOM     11  C   UNL     1      -0.500  11.230  18.649  0.00  0.00    +0.000 C 
ATOM     12  N   UNL     1      -1.629  11.006  17.912  0.00  0.00    +0.000 N 
ATOM     13  H   UNL     1      -1.853  10.143  17.426  0.00  0.00    +0.000 HD
BRANCH  12  14
ATOM     14  O   UNL     1      -2.509  12.089  17.709  0.00  0.00    +0.000 OA
ATOM     15  H   UNL     1      -3.340  11.773  18.124  0.00  0.00    +0.000 HD
ENDBRANCH  12  14
ENDBRANCH   8  11
ENDBRANCH   3   9
ENDBRANCH   2   6
ENDBRANCH   1   2
BRANCH   1  16
ATOM     16  C   UNL     1       7.038   5.667  17.506  0.00  0.00    +0.000 C 
BRANCH  16  17
ATOM     17  C   UNL     1       6.326   4.382  17.930  0.00  0.00    +0.000 C 
BRANCH  17  18
ATOM     18  C   UNL     1       5.582   4.482  19.259  0.00  0.00    +0.000 C 
BRANCH  18  19
ATOM     19  O   UNL     1       5.003   3.192  19.473  0.00  0.00    +0.000 OA
BRANCH  19  20
ATOM     20  C   UNL     1       3.644   3.097  19.424  0.00  0.00    +0.000 A 
ATOM     21  C   UNL     1       3.002   3.351  20.639  0.00  0.00    +0.000 A 
ATOM     22  C   UNL     1       1.612   3.310  20.728  0.00  0.00    +0.000 A 
ATOM     23  C   UNL     1       0.854   3.032  19.593  0.00  0.00    +0.000 A 
ATOM     24  C   UNL     1       1.490   2.796  18.374  0.00  0.00    +0.000 A 
ATOM     25  C   UNL     1       2.885   2.826  18.287  0.00  0.00    +0.000 A 
ENDBRANCH  19  20
ENDBRANCH  18  19
ENDBRANCH  17  18
ENDBRANCH  16  17
ENDBRANCH   1  16
BRANCH   1  26
ATOM     26  C   UNL     1       7.068   8.110  17.303  0.00  0.00    +0.000 C 
BRANCH  26  27
ATOM     27  C   UNL     1       8.243   8.317  18.277  0.00  0.00    +0.000 C 
BRANCH  27  28
ATOM     28  C   UNL     1       8.713   9.745  18.424  0.00  0.00    +0.000 A 
ATOM     29  C   UNL     1       8.335  10.786  17.543  0.00  0.00    +0.000 A 
ATOM     30  C   UNL     1       8.629  12.120  17.844  0.00  0.00    +0.000 A 
ATOM     31  C   UNL     1       9.274  12.370  19.034  0.00  0.00    +0.000 A 
ATOM     32  C   UNL     1       9.728  11.353  19.842  0.00  0.00    +0.000 A 
ATOM     33  C   UNL     1       9.510  10.036  19.541  0.00  0.00    +0.000 A 
ATOM     34  O   UNL     1      10.272  11.813  21.001  0.00  0.00    +0.000 OA
ATOM     35  C   UNL     1       9.764  13.159  20.960  0.00  0.00    +0.000 C 
ATOM     36  O   UNL     1       9.462  13.589  19.613  0.00  0.00    +0.000 OA
ENDBRANCH  27  28
ENDBRANCH  26  27
ENDBRANCH   1  26
TORSDOF 13
ENDMDL
MODEL 6
REMARK VINA RESULT:      -7.7      3.939      7.310
REMARK  Name = 
REMARK  13 active torsions:
REMARK  status: ('A' for Active; 'I' for Inactive)
REMARK    1  A    between atoms: C_2  and  C_3
REMARK    2  A    between atoms: C_4  and  C_5
REMARK    3  A    between atoms: C_8  and  C_9
REMARK    4  A    between atoms: C_9  and  N_10
REMARK    5  A    between atoms: N_10  and  C_11
REMARK    6  A    between atoms: N_10  and  C_21
REMARK    7  A    between atoms: C_11  and  C_12
REMARK    8  A    between atoms: C_12  and  C_13
REMARK    9  A    between atoms: C_13  and  O_14
REMARK   10  A    between atoms: O_14  and  C_15
REMARK   11  A    between atoms: C_21  and  C_22
REMARK   12  A    between atoms: C_22  and  C_23
REMARK   13  A    between atoms: N_33  and  O_34
REMARK                            x       y       z     vdW  Elec       q    Type
REMARK                         _______ _______ _______ _____ _____    ______ ____
ROOT
ATOM      1  N   UNL     1       6.334   6.334  17.652  0.00  0.00    +0.000 NA
ENDROOT
BRANCH   1   2
ATOM      2  C   UNL     1       5.420   7.254  16.927  0.00  0.00    +0.000 C 
BRANCH   2   6
ATOM      3  C   UNL     1       2.135   8.301  17.984  0.00  0.00    +0.000 A 
ATOM      4  C   UNL     1       2.077   7.010  18.497  0.00  0.00    +0.000 A 
ATOM      5  C   UNL     1       3.323   6.389  18.252  0.00  0.00    +0.000 A 
ATOM      6  C   UNL     1       4.072   7.308  17.557  0.00  0.00    +0.000 A 
ATOM      7  O   UNL     1       3.379   8.463  17.413  0.00  0.00    +0.000 OA
BRANCH   3   9
ATOM      8  C   UNL     1       1.358  10.444  18.686  0.00  0.00    +0.000 C 
ATOM      9  C   UNL     1       1.138   9.316  17.997  0.00  0.00    +0.000 C 
BRANCH   8  11
ATOM     10  O   UNL     1       0.356  12.416  19.589  0.00  0.00    +0.000 OA
ATOM     11  C   UNL     1       0.339  11.521  18.748  0.00  0.00    +0.000 C 
ATOM     12  N   UNL     1      -0.597  11.413  17.757  0.00  0.00    +0.000 N 
ATOM     13  H   UNL     1      -0.601  10.708  17.026  0.00  0.00    +0.000 HD
BRANCH  12  14
ATOM     14  O   UNL     1      -1.577  12.423  17.663  0.00  0.00    +0.000 OA
ATOM     15  H   UNL     1      -1.771  12.447  16.702  0.00  0.00    +0.000 HD
ENDBRANCH  12  14
ENDBRANCH   8  11
ENDBRANCH   3   9
ENDBRANCH   2   6
ENDBRANCH   1   2
BRANCH   1  16
ATOM     16  C   UNL     1       6.691   5.199  16.772  0.00  0.00    +0.000 C 
BRANCH  16  17
ATOM     17  C   UNL     1       5.734   4.007  16.789  0.00  0.00    +0.000 C 
BRANCH  17  18
ATOM     18  C   UNL     1       5.293   3.570  18.184  0.00  0.00    +0.000 C 
BRANCH  18  19
ATOM     19  O   UNL     1       4.053   2.883  17.998  0.00  0.00    +0.000 OA
BRANCH  19  20
ATOM     20  C   UNL     1       3.160   2.910  19.027  0.00  0.00    +0.000 A 
ATOM     21  C   UNL     1       1.825   3.026  18.632  0.00  0.00    +0.000 A 
ATOM     22  C   UNL     1       0.803   3.044  19.579  0.00  0.00    +0.000 A 
ATOM     23  C   UNL     1       1.113   2.928  20.933  0.00  0.00    +0.000 A 
ATOM     24  C   UNL     1       2.443   2.792  21.331  0.00  0.00    +0.000 A 
ATOM     25  C   UNL     1       3.468   2.785  20.380  0.00  0.00    +0.000 A 
ENDBRANCH  19  20
ENDBRANCH  18  19
ENDBRANCH  17  18
ENDBRANCH  16  17
ENDBRANCH   1  16
BRANCH   1  26
ATOM     26  C   UNL     1       7.532   7.057  18.133  0.00  0.00    +0.000 C 
BRANCH  26  27
ATOM     27  C   UNL     1       7.840   8.312  17.295  0.00  0.00    +0.000 C 
BRANCH  27  28
ATOM     28  C   UNL     1       8.359   9.495  18.077  0.00  0.00    +0.000 A 
ATOM     29  C   UNL     1       9.059   9.376  19.301  0.00  0.00    +0.000 A 
ATOM     30  C   UNL     1       9.694  10.485  19.872  0.00  0.00    +0.000 A 
ATOM     31  C   UNL     1       9.626  11.675  19.183  0.00  0.00    +0.000 A 
ATOM     32  C   UNL     1       8.866  11.813  18.045  0.00  0.00    +0.000 A 
ATOM     33  C   UNL     1       8.181  10.761  17.498  0.00  0.00    +0.000 A 
ATOM     34  O   UNL     1       8.993  13.044  17.480  0.00  0.00    +0.000 OA
ATOM     35  C   UNL     1      10.171  13.482  18.180  0.00  0.00    +0.000 C 
ATOM     36  O   UNL     1      10.341  12.804  19.445  0.00  0.00    +0.000 OA
ENDBRANCH  27  28
ENDBRANCH  26  27
ENDBRANCH   1  26
TORSDOF 13
ENDMDL
MODEL 7
REMARK VINA RESULT:      -7.7      3.762     10.387
REMARK  Name = 
REMARK  13 active torsions:
REMARK  status: ('A' for Active; 'I' for Inactive)
REMARK    1  A    between atoms: C_2  and  C_3
REMARK    2  A    between atoms: C_4  and  C_5
REMARK    3  A    between atoms: C_8  and  C_9
REMARK    4  A    between atoms: C_9  and  N_10
REMARK    5  A    between atoms: N_10  and  C_11
REMARK    6  A    between atoms: N_10  and  C_21
REMARK    7  A    between atoms: C_11  and  C_12
REMARK    8  A    between atoms: C_12  and  C_13
REMARK    9  A    between atoms: C_13  and  O_14
REMARK   10  A    between atoms: O_14  and  C_15
REMARK   11  A    between atoms: C_21  and  C_22
REMARK   12  A    between atoms: C_22  and  C_23
REMARK   13  A    between atoms: N_33  and  O_34
REMARK                            x       y       z     vdW  Elec       q    Type
REMARK                         _______ _______ _______ _____ _____    ______ ____
ROOT
ATOM      1  N   UNL     1       5.561   6.357  17.698  0.00  0.00    +0.000 NA
ENDROOT
BRANCH   1   2
ATOM      2  C   UNL     1       5.139   5.175  18.491  0.00  0.00    +0.000 C 
BRANCH   2   6
ATOM      3  C   UNL     1       2.305   6.782  20.038  0.00  0.00    +0.000 A 
ATOM      4  C   UNL     1       1.968   5.475  20.375  0.00  0.00    +0.000 A 
ATOM      5  C   UNL     1       2.999   4.627  19.912  0.00  0.00    +0.000 A 
ATOM      6  C   UNL     1       3.898   5.442  19.269  0.00  0.00    +0.000 A 
ATOM      7  O   UNL     1       3.504   6.736  19.359  0.00  0.00    +0.000 OA
BRANCH   3   9
ATOM      8  C   UNL     1       0.969   8.139  21.473  0.00  0.00    +0.000 C 
ATOM      9  C   UNL     1       1.595   7.987  20.298  0.00  0.00    +0.000 C 
BRANCH   8  11
ATOM     10  O   UNL     1      -0.092  10.211  20.936  0.00  0.00    +0.000 OA
ATOM     11  C   UNL     1       0.195   9.367  21.781  0.00  0.00    +0.000 C 
ATOM     12  N   UNL     1      -0.174   9.436  23.095  0.00  0.00    +0.000 N 
ATOM     13  H   UNL     1       0.013   8.726  23.797  0.00  0.00    +0.000 HD
BRANCH  12  14
ATOM     14  O   UNL     1      -0.980  10.521  23.497  0.00  0.00    +0.000 OA
ATOM     15  H   UNL     1      -0.319  11.194  23.765  0.00  0.00    +0.000 HD
ENDBRANCH  12  14
ENDBRANCH   8  11
ENDBRANCH   3   9
ENDBRANCH   2   6
ENDBRANCH   1   2
BRANCH   1  16
ATOM     16  C   UNL     1       7.026   6.534  17.816  0.00  0.00    +0.000 C 
BRANCH  16  17
ATOM     17  C   UNL     1       7.573   7.905  17.416  0.00  0.00    +0.000 C 
BRANCH  17  18
ATOM     18  C   UNL     1       8.368   8.612  18.511  0.00  0.00    +0.000 C 
BRANCH  18  19
ATOM     19  O   UNL     1       8.741   9.877  17.959  0.00  0.00    +0.000 OA
BRANCH  19  20
ATOM     20  C   UNL     1       9.548  10.677  18.712  0.00  0.00    +0.000 A 
ATOM     21  C   UNL     1      10.475  11.420  17.977  0.00  0.00    +0.000 A 
ATOM     22  C   UNL     1      11.350  12.296  18.616  0.00  0.00    +0.000 A 
ATOM     23  C   UNL     1      11.288  12.447  20.000  0.00  0.00    +0.000 A 
ATOM     24  C   UNL     1      10.351  11.722  20.737  0.00  0.00    +0.000 A 
ATOM     25  C   UNL     1       9.482  10.835  20.095  0.00  0.00    +0.000 A 
ENDBRANCH  19  20
ENDBRANCH  18  19
ENDBRANCH  17  18
ENDBRANCH  16  17
ENDBRANCH   1  16
BRANCH   1  26
ATOM     26  C   UNL     1       5.135   6.222  16.288  0.00  0.00    +0.000 C 
BRANCH  26  27
ATOM     27  C   UNL     1       5.119   4.756  15.814  0.00  0.00    +0.000 C 
BRANCH  27  28
ATOM     28  C   UNL     1       5.765   4.508  14.472  0.00  0.00    +0.000 A 
ATOM     29  C   UNL     1       7.042   5.001  14.116  0.00  0.00    +0.000 A 
ATOM     30  C   UNL     1       7.675   4.569  12.945  0.00  0.00    +0.000 A 
ATOM     31  C   UNL     1       7.014   3.635  12.179  0.00  0.00    +0.000 A 
ATOM     32  C   UNL     1       5.733   3.230  12.473  0.00  0.00    +0.000 A 
ATOM     33  C   UNL     1       5.064   3.684  13.577  0.00  0.00    +0.000 A 
ATOM     34  O   UNL     1       5.291   2.252  11.636  0.00  0.00    +0.000 OA
ATOM     35  C   UNL     1       6.555   1.869  11.065  0.00  0.00    +0.000 C 
ATOM     36  O   UNL     1       7.532   2.932  11.133  0.00  0.00    +0.000 OA
ENDBRANCH  27  28
ENDBRANCH  26  27
ENDBRANCH   1  26
TORSDOF 13
ENDMDL
MODEL 8
REMARK VINA RESULT:      -7.5      3.532      8.742
REMARK  Name = 
REMARK  13 active torsions:
REMARK  status: ('A' for Active; 'I' for Inactive)
REMARK    1  A    between atoms: C_2  and  C_3
REMARK    2  A    between atoms: C_4  and  C_5
REMARK    3  A    between atoms: C_8  and  C_9
REMARK    4  A    between atoms: C_9  and  N_10
REMARK    5  A    between atoms: N_10  and  C_11
REMARK    6  A    between atoms: N_10  and  C_21
REMARK    7  A    between atoms: C_11  and  C_12
REMARK    8  A    between atoms: C_12  and  C_13
REMARK    9  A    between atoms: C_13  and  O_14
REMARK   10  A    between atoms: O_14  and  C_15
REMARK   11  A    between atoms: C_21  and  C_22
REMARK   12  A    between atoms: C_22  and  C_23
REMARK   13  A    between atoms: N_33  and  O_34
REMARK                            x       y       z     vdW  Elec       q    Type
REMARK                         _______ _______ _______ _____ _____    ______ ____
ROOT
ATOM      1  N   UNL     1       2.171   8.689  18.713  0.00  0.00    +0.000 NA
ENDROOT
BRANCH   1   2
ATOM      2  C   UNL     1       0.850   8.791  18.040  0.00  0.00    +0.000 C 
BRANCH   2   6
ATOM      3  C   UNL     1      -1.666  11.297  18.669  0.00  0.00    +0.000 A 
ATOM      4  C   UNL     1      -0.566  12.056  19.055  0.00  0.00    +0.000 A 
ATOM      5  C   UNL     1       0.596  11.281  18.835  0.00  0.00    +0.000 A 
ATOM      6  C   UNL     1       0.156  10.065  18.371  0.00  0.00    +0.000 A 
ATOM      7  O   UNL     1      -1.193  10.073  18.246  0.00  0.00    +0.000 OA
BRANCH   3   9
ATOM      8  C   UNL     1      -3.821  11.309  17.649  0.00  0.00    +0.000 C 
ATOM      9  C   UNL     1      -3.045  11.643  18.689  0.00  0.00    +0.000 C 
BRANCH   8  11
ATOM     10  O   UNL     1      -5.722  12.523  16.861  0.00  0.00    +0.000 OA
ATOM     11  C   UNL     1      -5.261  11.668  17.613  0.00  0.00    +0.000 C 
ATOM     12  N   UNL     1      -6.005  10.930  18.489  0.00  0.00    +0.000 N 
ATOM     13  H   UNL     1      -5.649  10.188  19.085  0.00  0.00    +0.000 HD
BRANCH  12  14
ATOM     14  O   UNL     1      -7.402  11.125  18.495  0.00  0.00    +0.000 OA
ATOM     15  H   UNL     1      -7.550  11.596  19.342  0.00  0.00    +0.000 HD
ENDBRANCH  12  14
ENDBRANCH   8  11
ENDBRANCH   3   9
ENDBRANCH   2   6
ENDBRANCH   1   2
BRANCH   1  16
ATOM     16  C   UNL     1       2.030   7.912  19.964  0.00  0.00    +0.000 C 
BRANCH  16  17
ATOM     17  C   UNL     1       1.328   6.559  19.841  0.00  0.00    +0.000 C 
BRANCH  17  18
ATOM     18  C   UNL     1       1.714   5.548  20.918  0.00  0.00    +0.000 C 
BRANCH  18  19
ATOM     19  O   UNL     1       1.142   4.306  20.502  0.00  0.00    +0.000 OA
BRANCH  19  20
ATOM     20  C   UNL     1       1.882   3.522  19.667  0.00  0.00    +0.000 A 
ATOM     21  C   UNL     1       3.083   3.065  20.216  0.00  0.00    +0.000 A 
ATOM     22  C   UNL     1       3.929   2.237  19.482  0.00  0.00    +0.000 A 
ATOM     23  C   UNL     1       3.566   1.844  18.195  0.00  0.00    +0.000 A 
ATOM     24  C   UNL     1       2.359   2.281  17.650  0.00  0.00    +0.000 A 
ATOM     25  C   UNL     1       1.516   3.122  18.384  0.00  0.00    +0.000 A 
ENDBRANCH  19  20
ENDBRANCH  18  19
ENDBRANCH  17  18
ENDBRANCH  16  17
ENDBRANCH   1  16
BRANCH   1  26
ATOM     26  C   UNL     1       3.177   8.095  17.805  0.00  0.00    +0.000 C 
BRANCH  26  27
ATOM     27  C   UNL     1       2.977   6.579  17.615  0.00  0.00    +0.000 C 
BRANCH  27  28
ATOM     28  C   UNL     1       4.233   5.747  17.715  0.00  0.00    +0.000 A 
ATOM     29  C   UNL     1       4.750   4.980  16.645  0.00  0.00    +0.000 A 
ATOM     30  C   UNL     1       6.020   4.399  16.730  0.00  0.00    +0.000 A 
ATOM     31  C   UNL     1       6.742   4.627  17.879  0.00  0.00    +0.000 A 
ATOM     32  C   UNL     1       6.202   5.289  18.957  0.00  0.00    +0.000 A 
ATOM     33  C   UNL     1       4.938   5.813  18.927  0.00  0.00    +0.000 A 
ATOM     34  O   UNL     1       7.102   5.471  19.961  0.00  0.00    +0.000 OA
ATOM     35  C   UNL     1       8.306   5.183  19.227  0.00  0.00    +0.000 C 
ATOM     36  O   UNL     1       8.059   4.341  18.079  0.00  0.00    +0.000 OA
ENDBRANCH  27  28
ENDBRANCH  26  27
ENDBRANCH   1  26
TORSDOF 13
ENDMDL
MODEL 9
REMARK VINA RESULT:      -7.5      3.486      7.948
REMARK  Name = 
REMARK  13 active torsions:
REMARK  status: ('A' for Active; 'I' for Inactive)
REMARK    1  A    between atoms: C_2  and  C_3
REMARK    2  A    between atoms: C_4  and  C_5
REMARK    3  A    between atoms: C_8  and  C_9
REMARK    4  A    between atoms: C_9  and  N_10
REMARK    5  A    between atoms: N_10  and  C_11
REMARK    6  A    between atoms: N_10  and  C_21
REMARK    7  A    between atoms: C_11  and  C_12
REMARK    8  A    between atoms: C_12  and  C_13
REMARK    9  A    between atoms: C_13  and  O_14
REMARK   10  A    between atoms: O_14  and  C_15
REMARK   11  A    between atoms: C_21  and  C_22
REMARK   12  A    between atoms: C_22  and  C_23
REMARK   13  A    between atoms: N_33  and  O_34
REMARK                            x       y       z     vdW  Elec       q    Type
REMARK                         _______ _______ _______ _____ _____    ______ ____
ROOT
ATOM      1  N   UNL     1       1.883   7.287  20.647  0.00  0.00    +0.000 NA
ENDROOT
BRANCH   1   2
ATOM      2  C   UNL     1       1.013   8.214  21.415  0.00  0.00    +0.000 C 
BRANCH   2   6
ATOM      3  C   UNL     1      -0.721  10.630  19.375  0.00  0.00    +0.000 A 
ATOM      4  C   UNL     1       0.392  11.414  19.661  0.00  0.00    +0.000 A 
ATOM      5  C   UNL     1       1.285  10.635  20.433  0.00  0.00    +0.000 A 
ATOM      6  C   UNL     1       0.660   9.427  20.627  0.00  0.00    +0.000 A 
ATOM      7  O   UNL     1      -0.529   9.406  19.978  0.00  0.00    +0.000 OA
BRANCH   3   9
ATOM      8  C   UNL     1      -1.976  10.552  17.349  0.00  0.00    +0.000 C 
ATOM      9  C   UNL     1      -1.880  10.963  18.621  0.00  0.00    +0.000 C 
BRANCH   8  11
ATOM     10  O   UNL     1      -3.141  10.866  15.287  0.00  0.00    +0.000 OA
ATOM     11  C   UNL     1      -3.155  10.894  16.514  0.00  0.00    +0.000 C 
ATOM     12  N   UNL     1      -4.250  11.216  17.266  0.00  0.00    +0.000 N 
ATOM     13  H   UNL     1      -4.294  11.199  18.280  0.00  0.00    +0.000 HD
BRANCH  12  14
ATOM     14  O   UNL     1      -5.458  11.487  16.588  0.00  0.00    +0.000 OA
ATOM     15  H   UNL     1      -5.887  12.150  17.169  0.00  0.00    +0.000 HD
ENDBRANCH  12  14
ENDBRANCH   8  11
ENDBRANCH   3   9
ENDBRANCH   2   6
ENDBRANCH   1   2
BRANCH   1  16
ATOM     16  C   UNL     1       1.222   5.968  20.536  0.00  0.00    +0.000 C 
BRANCH  16  17
ATOM     17  C   UNL     1       1.960   4.789  21.171  0.00  0.00    +0.000 C 
BRANCH  17  18
ATOM     18  C   UNL     1       1.155   3.493  21.221  0.00  0.00    +0.000 C 
BRANCH  18  19
ATOM     19  O   UNL     1       2.025   2.480  20.711  0.00  0.00    +0.000 OA
BRANCH  19  20
ATOM     20  C   UNL     1       2.506   2.644  19.445  0.00  0.00    +0.000 A 
ATOM     21  C   UNL     1       3.837   2.255  19.277  0.00  0.00    +0.000 A 
ATOM     22  C   UNL     1       4.451   2.347  18.029  0.00  0.00    +0.000 A 
ATOM     23  C   UNL     1       3.726   2.815  16.935  0.00  0.00    +0.000 A 
ATOM     24  C   UNL     1       2.390   3.186  17.094  0.00  0.00    +0.000 A 
ATOM     25  C   UNL     1       1.779   3.103  18.349  0.00  0.00    +0.000 A 
ENDBRANCH  19  20
ENDBRANCH  18  19
ENDBRANCH  17  18
ENDBRANCH  16  17
ENDBRANCH   1  16
BRANCH   1  26
ATOM     26  C   UNL     1       2.209   7.854  19.320  0.00  0.00    +0.000 C 
BRANCH  26  27
ATOM     27  C   UNL     1       2.378   6.768  18.240  0.00  0.00    +0.000 C 
BRANCH  27  28
ATOM     28  C   UNL     1       3.806   6.390  17.927  0.00  0.00    +0.000 A 
ATOM     29  C   UNL     1       4.448   6.703  16.706  0.00  0.00    +0.000 A 
ATOM     30  C   UNL     1       5.826   6.513  16.553  0.00  0.00    +0.000 A 
ATOM     31  C   UNL     1       6.521   6.037  17.641  0.00  0.00    +0.000 A 
ATOM     32  C   UNL     1       5.884   5.641  18.794  0.00  0.00    +0.000 A 
ATOM     33  C   UNL     1       4.529   5.755  18.949  0.00  0.00    +0.000 A 
ATOM     34  O   UNL     1       6.756   5.271  19.770  0.00  0.00    +0.000 OA
ATOM     35  C   UNL     1       7.957   5.833  19.212  0.00  0.00    +0.000 C 
ATOM     36  O   UNL     1       7.876   5.983  17.777  0.00  0.00    +0.000 OA
ENDBRANCH  27  28
ENDBRANCH  26  27
ENDBRANCH   1  26
TORSDOF 13
ENDMDL
