MODEL 1
REMARK VINA RESULT:      -8.7      0.000      0.000
REMARK  Name = 
REMARK  8 active torsions:
REMARK  status: ('A' for Active; 'I' for Inactive)
REMARK    1  A    between atoms: C_1  and  O_2
REMARK    2  A    between atoms: O_2  and  C_3
REMARK    3  A    between atoms: C_3  and  C_4
REMARK    4  A    between atoms: C_3  and  C_5
REMARK    5  A    between atoms: N_7  and  C_8
REMARK    6  A    between atoms: C_13  and  C_14
REMARK    7  A    between atoms: C_22  and  C_23
REMARK    8  A    between atoms: C_22  and  C_24
REMARK                            x       y       z     vdW  Elec       q    Type
REMARK                         _______ _______ _______ _____ _____    ______ ____
ROOT
ATOM      1  C   UNL     1       3.487   5.345  18.193  0.00  0.00    +0.000 C 
ATOM      2  C   UNL     1       3.355   6.809  17.699  0.00  0.00    +0.000 C 
ATOM      3  O   UNL     1       2.637   7.613  18.633  0.00  0.00    +0.000 OA
ATOM      4  C   UNL     1       2.584   6.929  19.876  0.00  0.00    +0.000 C 
ATOM      5  C   UNL     1       3.234   5.558  19.712  0.00  0.00    +0.000 C 
ATOM      6  S   UNL     1       2.071   4.392  20.461  0.00  0.00    +0.000 S 
ATOM      7  O   UNL     1       0.712   4.666  20.046  0.00  0.00    +0.000 OA
ATOM      8  O   UNL     1       2.358   4.344  21.884  0.00  0.00    +0.000 OA
ATOM      9  C   UNL     1       2.571   2.814  19.730  0.00  0.00    +0.000 C 
ATOM     10  C   UNL     1       1.517   1.735  19.981  0.00  0.00    +0.000 C 
ATOM     11  C   UNL     1       3.907   2.416  20.360  0.00  0.00    +0.000 C 
ATOM     12  C   UNL     1       2.628   3.100  18.223  0.00  0.00    +0.000 C 
ATOM     13  N   UNL     1       2.857   2.144  17.367  0.00  0.00    +0.000 NA
ATOM     14  N   UNL     1       2.470   4.381  17.748  0.00  0.00    +0.000 N 
ATOM     15  H   UNL     1       3.006   1.247  17.828  0.00  0.00    +0.000 HD
ATOM     16  H   UNL     1       2.312   4.394  16.751  0.00  0.00    +0.000 HD
ENDROOT
BRANCH   1  22
ATOM     17  C   UNL     1       6.108   4.326  15.462  0.00  0.00    +0.000 A 
ATOM     18  C   UNL     1       7.283   4.394  16.201  0.00  0.00    +0.000 A 
ATOM     19  C   UNL     1       7.242   4.660  17.572  0.00  0.00    +0.000 A 
ATOM     20  C   UNL     1       6.022   4.857  18.213  0.00  0.00    +0.000 A 
ATOM     21  F   UNL     1       6.035   5.039  19.536  0.00  0.00    +0.000 F 
ATOM     22  C   UNL     1       4.819   4.904  17.506  0.00  0.00    +0.000 A 
ATOM     23  C   UNL     1       4.899   4.660  16.081  0.00  0.00    +0.000 A 
BRANCH  17  26
ATOM     24  C   UNL     1       6.816   4.208  13.044  0.00  0.00    +0.000 C 
ATOM     25  O   UNL     1       7.518   5.214  12.980  0.00  0.00    +0.000 OA
ATOM     26  N   UNL     1       6.232   3.728  14.198  0.00  0.00    +0.000 N 
ATOM     27  H   UNL     1       5.851   2.793  14.140  0.00  0.00    +0.000 HD
BRANCH  24  28
ATOM     28  C   UNL     1       6.471   3.361  11.777  0.00  0.00    +0.000 C 
ATOM     29  C   UNL     1       7.546   2.335  11.398  0.00  0.00    +0.000 C 
BRANCH  28  31
ATOM     30  C   UNL     1       4.175   3.209  11.226  0.00  0.00    +0.000 C 
ATOM     31  O   UNL     1       5.253   2.630  11.960  0.00  0.00    +0.000 OA
ENDBRANCH  28  31
ENDBRANCH  24  28
ENDBRANCH  17  26
ENDBRANCH   1  22
TORSDOF 4
ENDMDL
MODEL 2
REMARK VINA RESULT:      -7.6      0.611      1.051
REMARK  Name = 
REMARK  8 active torsions:
REMARK  status: ('A' for Active; 'I' for Inactive)
REMARK    1  A    between atoms: C_1  and  O_2
REMARK    2  A    between atoms: O_2  and  C_3
REMARK    3  A    between atoms: C_3  and  C_4
REMARK    4  A    between atoms: C_3  and  C_5
REMARK    5  A    between atoms: N_7  and  C_8
REMARK    6  A    between atoms: C_13  and  C_14
REMARK    7  A    between atoms: C_22  and  C_23
REMARK    8  A    between atoms: C_22  and  C_24
REMARK                            x       y       z     vdW  Elec       q    Type
REMARK                         _______ _______ _______ _____ _____    ______ ____
ROOT
ATOM      1  C   UNL     1       3.320   5.362  18.541  0.00  0.00    +0.000 C 
ATOM      2  C   UNL     1       3.167   6.862  18.183  0.00  0.00    +0.000 C 
ATOM      3  O   UNL     1       2.442   7.567  19.189  0.00  0.00    +0.000 OA
ATOM      4  C   UNL     1       2.404   6.772  20.364  0.00  0.00    +0.000 C 
ATOM      5  C   UNL     1       3.071   5.431  20.073  0.00  0.00    +0.000 C 
ATOM      6  S   UNL     1       1.926   4.185  20.717  0.00  0.00    +0.000 S 
ATOM      7  O   UNL     1       0.562   4.478  20.332  0.00  0.00    +0.000 OA
ATOM      8  O   UNL     1       2.220   4.011  22.128  0.00  0.00    +0.000 OA
ATOM      9  C   UNL     1       2.445   2.688  19.842  0.00  0.00    +0.000 C 
ATOM     10  C   UNL     1       1.406   1.576  19.997  0.00  0.00    +0.000 C 
ATOM     11  C   UNL     1       3.789   2.252  20.430  0.00  0.00    +0.000 C 
ATOM     12  C   UNL     1       2.492   3.111  18.368  0.00  0.00    +0.000 C 
ATOM     13  N   UNL     1       2.730   2.240  17.427  0.00  0.00    +0.000 NA
ATOM     14  N   UNL     1       2.314   4.428  18.012  0.00  0.00    +0.000 N 
ATOM     15  H   UNL     1       2.892   1.307  17.804  0.00  0.00    +0.000 HD
ATOM     16  H   UNL     1       2.152   4.530  17.022  0.00  0.00    +0.000 HD
ENDROOT
BRANCH   1  22
ATOM     17  C   UNL     1       5.883   4.319  15.763  0.00  0.00    +0.000 A 
ATOM     18  C   UNL     1       7.080   4.637  16.392  0.00  0.00    +0.000 A 
ATOM     19  C   UNL     1       7.088   5.080  17.717  0.00  0.00    +0.000 A 
ATOM     20  C   UNL     1       5.895   5.206  18.422  0.00  0.00    +0.000 A 
ATOM     21  F   UNL     1       5.964   5.568  19.706  0.00  0.00    +0.000 F 
ATOM     22  C   UNL     1       4.656   5.003  17.812  0.00  0.00    +0.000 A 
ATOM     23  C   UNL     1       4.679   4.579  16.428  0.00  0.00    +0.000 A 
BRANCH  17  26
ATOM     24  C   UNL     1       6.537   3.936  13.358  0.00  0.00    +0.000 C 
ATOM     25  O   UNL     1       7.179   4.961  13.147  0.00  0.00    +0.000 OA
ATOM     26  N   UNL     1       6.009   3.575  14.580  0.00  0.00    +0.000 N 
ATOM     27  H   UNL     1       5.680   2.621  14.650  0.00  0.00    +0.000 HD
BRANCH  24  28
ATOM     28  C   UNL     1       6.209   2.919  12.217  0.00  0.00    +0.000 C 
ATOM     29  C   UNL     1       4.875   3.181  11.509  0.00  0.00    +0.000 C 
BRANCH  28  31
ATOM     30  C   UNL     1       7.546   1.618  10.760  0.00  0.00    +0.000 C 
ATOM     31  O   UNL     1       7.221   2.935  11.204  0.00  0.00    +0.000 OA
ENDBRANCH  28  31
ENDBRANCH  24  28
ENDBRANCH  17  26
ENDBRANCH   1  22
TORSDOF 4
ENDMDL
MODEL 3
REMARK VINA RESULT:      -7.6      1.146      1.302
REMARK  Name = 
REMARK  8 active torsions:
REMARK  status: ('A' for Active; 'I' for Inactive)
REMARK    1  A    between atoms: C_1  and  O_2
REMARK    2  A    between atoms: O_2  and  C_3
REMARK    3  A    between atoms: C_3  and  C_4
REMARK    4  A    between atoms: C_3  and  C_5
REMARK    5  A    between atoms: N_7  and  C_8
REMARK    6  A    between atoms: C_13  and  C_14
REMARK    7  A    between atoms: C_22  and  C_23
REMARK    8  A    between atoms: C_22  and  C_24
REMARK                            x       y       z     vdW  Elec       q    Type
REMARK                         _______ _______ _______ _____ _____    ______ ____
ROOT
ATOM      1  C   UNL     1       3.192   5.796  18.613  0.00  0.00    +0.000 C 
ATOM      2  C   UNL     1       2.861   7.302  18.445  0.00  0.00    +0.000 C 
ATOM      3  O   UNL     1       2.042   7.779  19.511  0.00  0.00    +0.000 OA
ATOM      4  C   UNL     1       2.085   6.839  20.573  0.00  0.00    +0.000 C 
ATOM      5  C   UNL     1       2.914   5.636  20.134  0.00  0.00    +0.000 C 
ATOM      6  S   UNL     1       1.922   4.190  20.579  0.00  0.00    +0.000 S 
ATOM      7  O   UNL     1       0.537   4.365  20.195  0.00  0.00    +0.000 OA
ATOM      8  O   UNL     1       2.215   3.870  21.965  0.00  0.00    +0.000 OA
ATOM      9  C   UNL     1       2.631   2.891  19.537  0.00  0.00    +0.000 C 
ATOM     10  C   UNL     1       1.734   1.653  19.519  0.00  0.00    +0.000 C 
ATOM     11  C   UNL     1       4.010   2.546  20.104  0.00  0.00    +0.000 C 
ATOM     12  C   UNL     1       2.647   3.505  18.130  0.00  0.00    +0.000 C 
ATOM     13  N   UNL     1       3.002   2.799  17.094  0.00  0.00    +0.000 NA
ATOM     14  N   UNL     1       2.315   4.827  17.940  0.00  0.00    +0.000 N 
ATOM     15  H   UNL     1       3.272   1.850  17.354  0.00  0.00    +0.000 HD
ATOM     16  H   UNL     1       2.156   5.036  16.967  0.00  0.00    +0.000 HD
ENDROOT
BRANCH   1  22
ATOM     17  C   UNL     1       5.922   5.738  15.800  0.00  0.00    +0.000 A 
ATOM     18  C   UNL     1       7.077   5.818  16.567  0.00  0.00    +0.000 A 
ATOM     19  C   UNL     1       7.004   5.788  17.962  0.00  0.00    +0.000 A 
ATOM     20  C   UNL     1       5.771   5.676  18.598  0.00  0.00    +0.000 A 
ATOM     21  F   UNL     1       5.762   5.583  19.931  0.00  0.00    +0.000 F 
ATOM     22  C   UNL     1       4.571   5.697  17.885  0.00  0.00    +0.000 A 
ATOM     23  C   UNL     1       4.679   5.765  16.443  0.00  0.00    +0.000 A 
BRANCH  17  26
ATOM     24  C   UNL     1       6.226   4.212  13.815  0.00  0.00    +0.000 C 
ATOM     25  O   UNL     1       5.963   3.132  14.336  0.00  0.00    +0.000 OA
ATOM     26  N   UNL     1       6.124   5.436  14.444  0.00  0.00    +0.000 N 
ATOM     27  H   UNL     1       6.181   6.245  13.840  0.00  0.00    +0.000 HD
BRANCH  24  28
ATOM     28  C   UNL     1       6.756   4.313  12.348  0.00  0.00    +0.000 C 
ATOM     29  C   UNL     1       7.908   5.307  12.165  0.00  0.00    +0.000 C 
BRANCH  28  31
ATOM     30  C   UNL     1       6.166   2.226  11.401  0.00  0.00    +0.000 C 
ATOM     31  O   UNL     1       7.231   3.045  11.882  0.00  0.00    +0.000 OA
ENDBRANCH  28  31
ENDBRANCH  24  28
ENDBRANCH  17  26
ENDBRANCH   1  22
TORSDOF 4
ENDMDL
MODEL 4
REMARK VINA RESULT:      -7.1      0.893      1.011
REMARK  Name = 
REMARK  8 active torsions:
REMARK  status: ('A' for Active; 'I' for Inactive)
REMARK    1  A    between atoms: C_1  and  O_2
REMARK    2  A    between atoms: O_2  and  C_3
REMARK    3  A    between atoms: C_3  and  C_4
REMARK    4  A    between atoms: C_3  and  C_5
REMARK    5  A    between atoms: N_7  and  C_8
REMARK    6  A    between atoms: C_13  and  C_14
REMARK    7  A    between atoms: C_22  and  C_23
REMARK    8  A    between atoms: C_22  and  C_24
REMARK                            x       y       z     vdW  Elec       q    Type
REMARK                         _______ _______ _______ _____ _____    ______ ____
ROOT
ATOM      1  C   UNL     1       3.555   5.460  18.073  0.00  0.00    +0.000 C 
ATOM      2  C   UNL     1       3.412   6.945  17.650  0.00  0.00    +0.000 C 
ATOM      3  O   UNL     1       2.679   7.695  18.617  0.00  0.00    +0.000 OA
ATOM      4  C   UNL     1       2.625   6.951  19.824  0.00  0.00    +0.000 C 
ATOM      5  C   UNL     1       3.289   5.596  19.599  0.00  0.00    +0.000 C 
ATOM      6  S   UNL     1       2.132   4.383  20.282  0.00  0.00    +0.000 S 
ATOM      7  O   UNL     1       0.773   4.664  19.870  0.00  0.00    +0.000 OA
ATOM      8  O   UNL     1       2.410   4.268  21.702  0.00  0.00    +0.000 OA
ATOM      9  C   UNL     1       2.653   2.848  19.477  0.00  0.00    +0.000 C 
ATOM     10  C   UNL     1       1.608   1.748  19.668  0.00  0.00    +0.000 C 
ATOM     11  C   UNL     1       3.989   2.432  20.098  0.00  0.00    +0.000 C 
ATOM     12  C   UNL     1       2.718   3.207  17.987  0.00  0.00    +0.000 C 
ATOM     13  N   UNL     1       2.962   2.297  17.087  0.00  0.00    +0.000 NA
ATOM     14  N   UNL     1       2.550   4.509  17.574  0.00  0.00    +0.000 N 
ATOM     15  H   UNL     1       3.117   1.380  17.505  0.00  0.00    +0.000 HD
ATOM     16  H   UNL     1       2.400   4.569  16.578  0.00  0.00    +0.000 HD
ENDROOT
BRANCH   1  22
ATOM     17  C   UNL     1       6.247   4.743  15.315  0.00  0.00    +0.000 A 
ATOM     18  C   UNL     1       7.391   4.644  16.099  0.00  0.00    +0.000 A 
ATOM     19  C   UNL     1       7.302   4.701  17.492  0.00  0.00    +0.000 A 
ATOM     20  C   UNL     1       6.065   4.856  18.110  0.00  0.00    +0.000 A 
ATOM     21  F   UNL     1       6.028   4.835  19.446  0.00  0.00    +0.000 F 
ATOM     22  C   UNL     1       4.896   5.065  17.375  0.00  0.00    +0.000 A 
ATOM     23  C   UNL     1       5.027   5.036  15.934  0.00  0.00    +0.000 A 
BRANCH  17  26
ATOM     24  C   UNL     1       5.481   3.794  13.108  0.00  0.00    +0.000 C 
ATOM     25  O   UNL     1       4.270   3.739  13.310  0.00  0.00    +0.000 OA
ATOM     26  N   UNL     1       6.401   4.338  13.980  0.00  0.00    +0.000 N 
ATOM     27  H   UNL     1       7.325   4.493  13.601  0.00  0.00    +0.000 HD
BRANCH  24  28
ATOM     28  C   UNL     1       6.129   3.201  11.815  0.00  0.00    +0.000 C 
ATOM     29  C   UNL     1       7.642   2.985  11.916  0.00  0.00    +0.000 C 
BRANCH  28  31
ATOM     30  C   UNL     1       6.535   1.021  10.987  0.00  0.00    +0.000 C 
ATOM     31  O   UNL     1       5.555   1.931  11.486  0.00  0.00    +0.000 OA
ENDBRANCH  28  31
ENDBRANCH  24  28
ENDBRANCH  17  26
ENDBRANCH   1  22
TORSDOF 4
ENDMDL
MODEL 5
REMARK VINA RESULT:      -7.1      0.840      1.223
REMARK  Name = 
REMARK  8 active torsions:
REMARK  status: ('A' for Active; 'I' for Inactive)
REMARK    1  A    between atoms: C_1  and  O_2
REMARK    2  A    between atoms: O_2  and  C_3
REMARK    3  A    between atoms: C_3  and  C_4
REMARK    4  A    between atoms: C_3  and  C_5
REMARK    5  A    between atoms: N_7  and  C_8
REMARK    6  A    between atoms: C_13  and  C_14
REMARK    7  A    between atoms: C_22  and  C_23
REMARK    8  A    between atoms: C_22  and  C_24
REMARK                            x       y       z     vdW  Elec       q    Type
REMARK                         _______ _______ _______ _____ _____    ______ ____
ROOT
ATOM      1  C   UNL     1       3.550   5.393  18.328  0.00  0.00    +0.000 C 
ATOM      2  C   UNL     1       3.344   6.864  17.885  0.00  0.00    +0.000 C 
ATOM      3  O   UNL     1       2.478   7.562  18.777  0.00  0.00    +0.000 OA
ATOM      4  C   UNL     1       2.366   6.816  19.979  0.00  0.00    +0.000 C 
ATOM      5  C   UNL     1       3.139   5.509  19.822  0.00  0.00    +0.000 C 
ATOM      6  S   UNL     1       2.011   4.220  20.406  0.00  0.00    +0.000 S 
ATOM      7  O   UNL     1       0.679   4.408  19.872  0.00  0.00    +0.000 OA
ATOM      8  O   UNL     1       2.167   4.125  21.846  0.00  0.00    +0.000 OA
ATOM      9  C   UNL     1       2.706   2.725  19.661  0.00  0.00    +0.000 C 
ATOM     10  C   UNL     1       1.725   1.555  19.764  0.00  0.00    +0.000 C 
ATOM     11  C   UNL     1       4.006   2.401  20.402  0.00  0.00    +0.000 C 
ATOM     12  C   UNL     1       2.881   3.088  18.180  0.00  0.00    +0.000 C 
ATOM     13  N   UNL     1       3.266   2.196  17.312  0.00  0.00    +0.000 NA
ATOM     14  N   UNL     1       2.662   4.375  17.746  0.00  0.00    +0.000 N 
ATOM     15  H   UNL     1       3.445   1.292  17.747  0.00  0.00    +0.000 HD
ATOM     16  H   UNL     1       2.598   4.425  16.741  0.00  0.00    +0.000 HD
ENDROOT
BRANCH   1  22
ATOM     17  C   UNL     1       6.506   4.791  15.824  0.00  0.00    +0.000 A 
ATOM     18  C   UNL     1       7.588   4.842  16.695  0.00  0.00    +0.000 A 
ATOM     19  C   UNL     1       7.384   4.962  18.072  0.00  0.00    +0.000 A 
ATOM     20  C   UNL     1       6.093   5.031  18.587  0.00  0.00    +0.000 A 
ATOM     21  F   UNL     1       5.953   5.076  19.914  0.00  0.00    +0.000 F 
ATOM     22  C   UNL     1       4.973   5.091  17.756  0.00  0.00    +0.000 A 
ATOM     23  C   UNL     1       5.219   5.000  16.332  0.00  0.00    +0.000 A 
BRANCH  17  26
ATOM     24  C   UNL     1       5.955   3.926  13.521  0.00  0.00    +0.000 C 
ATOM     25  O   UNL     1       4.735   4.074  13.525  0.00  0.00    +0.000 OA
ATOM     26  N   UNL     1       6.801   4.334  14.531  0.00  0.00    +0.000 N 
ATOM     27  H   UNL     1       7.787   4.327  14.305  0.00  0.00    +0.000 HD
BRANCH  24  28
ATOM     28  C   UNL     1       6.693   3.204  12.348  0.00  0.00    +0.000 C 
ATOM     29  C   UNL     1       5.802   2.255  11.538  0.00  0.00    +0.000 C 
BRANCH  28  31
ATOM     30  C   UNL     1       7.710   5.323  12.076  0.00  0.00    +0.000 C 
ATOM     31  O   UNL     1       7.235   4.149  11.418  0.00  0.00    +0.000 OA
ENDBRANCH  28  31
ENDBRANCH  24  28
ENDBRANCH  17  26
ENDBRANCH   1  22
TORSDOF 4
ENDMDL
MODEL 6
REMARK VINA RESULT:      -7.0      1.271      1.730
REMARK  Name = 
REMARK  8 active torsions:
REMARK  status: ('A' for Active; 'I' for Inactive)
REMARK    1  A    between atoms: C_1  and  O_2
REMARK    2  A    between atoms: O_2  and  C_3
REMARK    3  A    between atoms: C_3  and  C_4
REMARK    4  A    between atoms: C_3  and  C_5
REMARK    5  A    between atoms: N_7  and  C_8
REMARK    6  A    between atoms: C_13  and  C_14
REMARK    7  A    between atoms: C_22  and  C_23
REMARK    8  A    between atoms: C_22  and  C_24
REMARK                            x       y       z     vdW  Elec       q    Type
REMARK                         _______ _______ _______ _____ _____    ______ ____
ROOT
ATOM      1  C   UNL     1       3.424   5.709  18.578  0.00  0.00    +0.000 C 
ATOM      2  C   UNL     1       3.080   7.201  18.331  0.00  0.00    +0.000 C 
ATOM      3  O   UNL     1       2.087   7.665  19.245  0.00  0.00    +0.000 OA
ATOM      4  C   UNL     1       1.988   6.741  20.318  0.00  0.00    +0.000 C 
ATOM      5  C   UNL     1       2.913   5.560  20.038  0.00  0.00    +0.000 C 
ATOM      6  S   UNL     1       1.905   4.088  20.346  0.00  0.00    +0.000 S 
ATOM      7  O   UNL     1       0.596   4.213  19.744  0.00  0.00    +0.000 OA
ATOM      8  O   UNL     1       1.984   3.797  21.766  0.00  0.00    +0.000 OA
ATOM      9  C   UNL     1       2.810   2.800  19.454  0.00  0.00    +0.000 C 
ATOM     10  C   UNL     1       1.964   1.533  19.315  0.00  0.00    +0.000 C 
ATOM     11  C   UNL     1       4.091   2.507  20.238  0.00  0.00    +0.000 C 
ATOM     12  C   UNL     1       3.032   3.395  18.056  0.00  0.00    +0.000 C 
ATOM     13  N   UNL     1       3.568   2.687  17.103  0.00  0.00    +0.000 NA
ATOM     14  N   UNL     1       2.694   4.703  17.792  0.00  0.00    +0.000 N 
ATOM     15  H   UNL     1       3.822   1.751  17.419  0.00  0.00    +0.000 HD
ATOM     16  H   UNL     1       2.686   4.894  16.802  0.00  0.00    +0.000 HD
ENDROOT
BRANCH   1  22
ATOM     17  C   UNL     1       6.579   5.829  16.254  0.00  0.00    +0.000 A 
ATOM     18  C   UNL     1       7.593   5.828  17.204  0.00  0.00    +0.000 A 
ATOM     19  C   UNL     1       7.291   5.688  18.561  0.00  0.00    +0.000 A 
ATOM     20  C   UNL     1       5.970   5.546  18.975  0.00  0.00    +0.000 A 
ATOM     21  F   UNL     1       5.742   5.347  20.276  0.00  0.00    +0.000 F 
ATOM     22  C   UNL     1       4.904   5.645  18.079  0.00  0.00    +0.000 A 
ATOM     23  C   UNL     1       5.248   5.826  16.685  0.00  0.00    +0.000 A 
BRANCH  17  26
ATOM     24  C   UNL     1       6.879   4.526  14.116  0.00  0.00    +0.000 C 
ATOM     25  O   UNL     1       6.187   3.543  14.367  0.00  0.00    +0.000 OA
ATOM     26  N   UNL     1       7.001   5.633  14.930  0.00  0.00    +0.000 N 
ATOM     27  H   UNL     1       7.442   6.441  14.508  0.00  0.00    +0.000 HD
BRANCH  24  28
ATOM     28  C   UNL     1       7.751   4.611  12.821  0.00  0.00    +0.000 C 
ATOM     29  C   UNL     1       7.008   4.219  11.539  0.00  0.00    +0.000 C 
BRANCH  28  31
ATOM     30  C   UNL     1       7.951   6.418  11.306  0.00  0.00    +0.000 C 
ATOM     31  O   UNL     1       8.246   5.939  12.617  0.00  0.00    +0.000 OA
ENDBRANCH  28  31
ENDBRANCH  24  28
ENDBRANCH  17  26
ENDBRANCH   1  22
TORSDOF 4
ENDMDL
MODEL 7
REMARK VINA RESULT:      -6.9      3.926      7.846
REMARK  Name = 
REMARK  8 active torsions:
REMARK  status: ('A' for Active; 'I' for Inactive)
REMARK    1  A    between atoms: C_1  and  O_2
REMARK    2  A    between atoms: O_2  and  C_3
REMARK    3  A    between atoms: C_3  and  C_4
REMARK    4  A    between atoms: C_3  and  C_5
REMARK    5  A    between atoms: N_7  and  C_8
REMARK    6  A    between atoms: C_13  and  C_14
REMARK    7  A    between atoms: C_22  and  C_23
REMARK    8  A    between atoms: C_22  and  C_24
REMARK                            x       y       z     vdW  Elec       q    Type
REMARK                         _______ _______ _______ _____ _____    ______ ____
ROOT
ATOM      1  C   UNL     1       3.970   5.443  19.219  0.00  0.00    +0.000 C 
ATOM      2  C   UNL     1       5.380   6.052  19.428  0.00  0.00    +0.000 C 
ATOM      3  O   UNL     1       6.406   5.131  19.062  0.00  0.00    +0.000 OA
ATOM      4  C   UNL     1       5.830   4.093  18.285  0.00  0.00    +0.000 C 
ATOM      5  C   UNL     1       4.320   4.308  18.216  0.00  0.00    +0.000 C 
ATOM      6  S   UNL     1       3.595   2.697  18.604  0.00  0.00    +0.000 S 
ATOM      7  O   UNL     1       4.245   2.090  19.746  0.00  0.00    +0.000 OA
ATOM      8  O   UNL     1       3.530   1.939  17.367  0.00  0.00    +0.000 OA
ATOM      9  C   UNL     1       1.907   3.133  19.089  0.00  0.00    +0.000 C 
ATOM     10  C   UNL     1       1.208   1.951  19.763  0.00  0.00    +0.000 C 
ATOM     11  C   UNL     1       1.156   3.549  17.822  0.00  0.00    +0.000 C 
ATOM     12  C   UNL     1       2.090   4.249  20.126  0.00  0.00    +0.000 C 
ATOM     13  N   UNL     1       1.070   4.736  20.775  0.00  0.00    +0.000 NA
ATOM     14  N   UNL     1       3.336   4.780  20.369  0.00  0.00    +0.000 N 
ATOM     15  H   UNL     1       0.193   4.305  20.486  0.00  0.00    +0.000 HD
ATOM     16  H   UNL     1       3.349   5.336  21.210  0.00  0.00    +0.000 HD
ENDROOT
BRANCH   1  22
ATOM     17  C   UNL     1       1.690   8.586  19.760  0.00  0.00    +0.000 A 
ATOM     18  C   UNL     1       1.812   9.202  18.521  0.00  0.00    +0.000 A 
ATOM     19  C   UNL     1       2.522   8.584  17.489  0.00  0.00    +0.000 A 
ATOM     20  C   UNL     1       3.115   7.341  17.692  0.00  0.00    +0.000 A 
ATOM     21  F   UNL     1       3.724   6.763  16.653  0.00  0.00    +0.000 F 
ATOM     22  C   UNL     1       3.116   6.723  18.944  0.00  0.00    +0.000 A 
ATOM     23  C   UNL     1       2.402   7.406  20.001  0.00  0.00    +0.000 A 
BRANCH  17  26
ATOM     24  C   UNL     1       0.631  10.333  21.239  0.00  0.00    +0.000 C 
ATOM     25  O   UNL     1       1.392  11.275  21.032  0.00  0.00    +0.000 OA
ATOM     26  N   UNL     1       0.693   9.115  20.595  0.00  0.00    +0.000 N 
ATOM     27  H   UNL     1      -0.109   8.512  20.720  0.00  0.00    +0.000 HD
BRANCH  24  28
ATOM     28  C   UNL     1      -0.501  10.408  22.314  0.00  0.00    +0.000 C 
ATOM     29  C   UNL     1      -0.384   9.354  23.420  0.00  0.00    +0.000 C 
BRANCH  28  31
ATOM     30  C   UNL     1      -1.816  12.265  22.966  0.00  0.00    +0.000 C 
ATOM     31  O   UNL     1      -0.512  11.685  22.964  0.00  0.00    +0.000 OA
ENDBRANCH  28  31
ENDBRANCH  24  28
ENDBRANCH  17  26
ENDBRANCH   1  22
TORSDOF 4
ENDMDL
MODEL 8
REMARK VINA RESULT:      -6.9      9.024     10.840
REMARK  Name = 
REMARK  8 active torsions:
REMARK  status: ('A' for Active; 'I' for Inactive)
REMARK    1  A    between atoms: C_1  and  O_2
REMARK    2  A    between atoms: O_2  and  C_3
REMARK    3  A    between atoms: C_3  and  C_4
REMARK    4  A    between atoms: C_3  and  C_5
REMARK    5  A    between atoms: N_7  and  C_8
REMARK    6  A    between atoms: C_13  and  C_14
REMARK    7  A    between atoms: C_22  and  C_23
REMARK    8  A    between atoms: C_22  and  C_24
REMARK                            x       y       z     vdW  Elec       q    Type
REMARK                         _______ _______ _______ _____ _____    ______ ____
ROOT
ATOM      1  C   UNL     1      10.186  13.893  17.916  0.00  0.00    +0.000 C 
ATOM      2  C   UNL     1      11.376  13.422  17.040  0.00  0.00    +0.000 C 
ATOM      3  O   UNL     1      12.333  14.463  16.857  0.00  0.00    +0.000 OA
ATOM      4  C   UNL     1      12.091  15.478  17.819  0.00  0.00    +0.000 C 
ATOM      5  C   UNL     1      10.844  15.112  18.619  0.00  0.00    +0.000 C 
ATOM      6  S   UNL     1       9.838  16.616  18.639  0.00  0.00    +0.000 S 
ATOM      7  O   UNL     1       9.772  17.222  17.327  0.00  0.00    +0.000 OA
ATOM      8  O   UNL     1      10.296  17.431  19.750  0.00  0.00    +0.000 OA
ATOM      9  C   UNL     1       8.193  15.981  19.045  0.00  0.00    +0.000 C 
ATOM     10  C   UNL     1       7.120  17.044  18.802  0.00  0.00    +0.000 C 
ATOM     11  C   UNL     1       8.209  15.561  20.516  0.00  0.00    +0.000 C 
ATOM     12  C   UNL     1       7.977  14.833  18.049  0.00  0.00    +0.000 C 
ATOM     13  N   UNL     1       6.835  14.208  17.983  0.00  0.00    +0.000 NA
ATOM     14  N   UNL     1       8.999  14.421  17.225  0.00  0.00    +0.000 N 
ATOM     15  H   UNL     1       6.167  14.562  18.667  0.00  0.00    +0.000 HD
ATOM     16  H   UNL     1       8.665  13.822  16.485  0.00  0.00    +0.000 HD
ENDROOT
BRANCH   1  22
ATOM     17  C   UNL     1       8.842  10.238  18.372  0.00  0.00    +0.000 A 
ATOM     18  C   UNL     1       9.183  10.008  19.699  0.00  0.00    +0.000 A 
ATOM     19  C   UNL     1       9.739  11.029  20.475  0.00  0.00    +0.000 A 
ATOM     20  C   UNL     1       9.956  12.289  19.925  0.00  0.00    +0.000 A 
ATOM     21  F   UNL     1      10.426  13.247  20.729  0.00  0.00    +0.000 F 
ATOM     22  C   UNL     1       9.731  12.549  18.572  0.00  0.00    +0.000 A 
ATOM     23  C   UNL     1       9.189  11.461  17.787  0.00  0.00    +0.000 A 
BRANCH  17  26
ATOM     24  C   UNL     1       7.940   7.914  17.995  0.00  0.00    +0.000 C 
ATOM     25  O   UNL     1       8.533   7.309  18.884  0.00  0.00    +0.000 OA
ATOM     26  N   UNL     1       7.995   9.278  17.798  0.00  0.00    +0.000 N 
ATOM     27  H   UNL     1       7.307   9.657  17.160  0.00  0.00    +0.000 HD
BRANCH  24  28
ATOM     28  C   UNL     1       7.061   7.170  16.936  0.00  0.00    +0.000 C 
ATOM     29  C   UNL     1       7.189   5.644  16.979  0.00  0.00    +0.000 C 
BRANCH  28  31
ATOM     30  C   UNL     1       4.837   6.444  16.581  0.00  0.00    +0.000 C 
ATOM     31  O   UNL     1       5.672   7.471  17.115  0.00  0.00    +0.000 OA
ENDBRANCH  28  31
ENDBRANCH  24  28
ENDBRANCH  17  26
ENDBRANCH   1  22
TORSDOF 4
ENDMDL
MODEL 9
REMARK VINA RESULT:      -6.9      3.031      7.161
REMARK  Name = 
REMARK  8 active torsions:
REMARK  status: ('A' for Active; 'I' for Inactive)
REMARK    1  A    between atoms: C_1  and  O_2
REMARK    2  A    between atoms: O_2  and  C_3
REMARK    3  A    between atoms: C_3  and  C_4
REMARK    4  A    between atoms: C_3  and  C_5
REMARK    5  A    between atoms: N_7  and  C_8
REMARK    6  A    between atoms: C_13  and  C_14
REMARK    7  A    between atoms: C_22  and  C_23
REMARK    8  A    between atoms: C_22  and  C_24
REMARK                            x       y       z     vdW  Elec       q    Type
REMARK                         _______ _______ _______ _____ _____    ______ ____
ROOT
ATOM      1  C   UNL     1       5.738   4.987  18.984  0.00  0.00    +0.000 C 
ATOM      2  C   UNL     1       6.424   4.847  20.368  0.00  0.00    +0.000 C 
ATOM      3  O   UNL     1       7.808   5.185  20.300  0.00  0.00    +0.000 OA
ATOM      4  C   UNL     1       8.046   5.889  19.090  0.00  0.00    +0.000 C 
ATOM      5  C   UNL     1       6.752   5.933  18.283  0.00  0.00    +0.000 C 
ATOM      6  S   UNL     1       7.224   5.437  16.607  0.00  0.00    +0.000 S 
ATOM      7  O   UNL     1       8.092   4.279  16.628  0.00  0.00    +0.000 OA
ATOM      8  O   UNL     1       7.683   6.627  15.914  0.00  0.00    +0.000 OA
ATOM      9  C   UNL     1       5.642   4.936  15.887  0.00  0.00    +0.000 C 
ATOM     10  C   UNL     1       5.853   4.180  14.574  0.00  0.00    +0.000 C 
ATOM     11  C   UNL     1       4.821   6.206  15.648  0.00  0.00    +0.000 C 
ATOM     12  C   UNL     1       5.047   3.968  16.918  0.00  0.00    +0.000 C 
ATOM     13  N   UNL     1       3.942   3.323  16.674  0.00  0.00    +0.000 NA
ATOM     14  N   UNL     1       5.657   3.786  18.139  0.00  0.00    +0.000 N 
ATOM     15  H   UNL     1       3.551   3.566  15.765  0.00  0.00    +0.000 HD
ATOM     16  H   UNL     1       5.295   2.978  18.621  0.00  0.00    +0.000 HD
ENDROOT
BRANCH   1  22
ATOM     17  C   UNL     1       2.307   6.840  19.392  0.00  0.00    +0.000 A 
ATOM     18  C   UNL     1       1.517   5.805  19.876  0.00  0.00    +0.000 A 
ATOM     19  C   UNL     1       2.082   4.561  20.170  0.00  0.00    +0.000 A 
ATOM     20  C   UNL     1       3.444   4.346  19.980  0.00  0.00    +0.000 A 
ATOM     21  F   UNL     1       3.944   3.161  20.340  0.00  0.00    +0.000 F 
ATOM     22  C   UNL     1       4.266   5.313  19.398  0.00  0.00    +0.000 A 
ATOM     23  C   UNL     1       3.645   6.579  19.073  0.00  0.00    +0.000 A 
BRANCH  17  26
ATOM     24  C   UNL     1       1.688   9.121  18.512  0.00  0.00    +0.000 C 
ATOM     25  O   UNL     1       2.017   8.991  17.335  0.00  0.00    +0.000 OA
ATOM     26  N   UNL     1       1.726   8.116  19.456  0.00  0.00    +0.000 N 
ATOM     27  H   UNL     1       1.243   8.312  20.323  0.00  0.00    +0.000 HD
BRANCH  24  28
ATOM     28  C   UNL     1       1.210  10.494  19.087  0.00  0.00    +0.000 C 
ATOM     29  C   UNL     1      -0.172  10.933  18.593  0.00  0.00    +0.000 C 
BRANCH  28  31
ATOM     30  C   UNL     1      -0.124  10.910  20.997  0.00  0.00    +0.000 C 
ATOM     31  O   UNL     1       1.142  10.459  20.517  0.00  0.00    +0.000 OA
ENDBRANCH  28  31
ENDBRANCH  24  28
ENDBRANCH  17  26
ENDBRANCH   1  22
TORSDOF 4
ENDMDL
