MODEL 1
REMARK VINA RESULT:      -6.2      0.000      0.000
REMARK  Name = 
REMARK  4 active torsions:
REMARK  status: ('A' for Active; 'I' for Inactive)
REMARK    1  A    between atoms: C_6  and  C_7
REMARK    2  A    between atoms: C_7  and  O_8
REMARK    3  A    between atoms: C_9  and  O_10
REMARK    4  A    between atoms: C_13  and  O_14
REMARK                            x       y       z     vdW  Elec       q    Type
REMARK                         _______ _______ _______ _____ _____    ______ ____
ROOT
ATOM      1  O   UNL     1       6.364   4.470  17.797  0.00  0.00    +0.000 OA
ATOM      2  C   UNL     1       5.379   3.817  18.115  0.00  0.00    +0.000 C 
ATOM      3  N   UNL     1       5.222   3.341  19.375  0.00  0.00    +0.000 N 
ATOM      4  C   UNL     1       4.132   2.523  19.810  0.00  0.00    +0.000 C 
ATOM      5  O   UNL     1       3.186   3.333  20.483  0.00  0.00    +0.000 OA
ATOM      6  C   UNL     1       2.405   4.247  19.681  0.00  0.00    +0.000 C 
ATOM      7  C   UNL     1       2.197   3.874  18.183  0.00  0.00    +0.000 C 
ATOM      8  C   UNL     1       3.187   2.838  17.634  0.00  0.00    +0.000 C 
ATOM      9  O   UNL     1       4.416   3.487  17.221  0.00  0.00    +0.000 OA
ATOM     10  C   UNL     1       3.473   1.765  18.671  0.00  0.00    +0.000 C 
ATOM     11  H   UNL     1       5.951   3.594  20.027  0.00  0.00    +0.000 HD
ENDROOT
BRANCH   7  12
ATOM     12  O   UNL     1       0.858   3.429  17.916  0.00  0.00    +0.000 OA
ATOM     13  H   UNL     1       0.237   4.174  17.975  0.00  0.00    +0.000 HD
ENDBRANCH   7  12
BRANCH  10  14
ATOM     14  O   UNL     1       4.303   0.730  18.149  0.00  0.00    +0.000 OA
ATOM     15  H   UNL     1       3.936   0.450  17.289  0.00  0.00    +0.000 HD
ENDBRANCH  10  14
BRANCH   6  16
ATOM     16  C   UNL     1       1.073   4.371  20.445  0.00  0.00    +0.000 C 
BRANCH  16  17
ATOM     17  O   UNL     1       0.523   3.077  20.692  0.00  0.00    +0.000 OA
ATOM     18  H   UNL     1       0.343   3.040  21.651  0.00  0.00    +0.000 HD
ENDBRANCH  16  17
ENDBRANCH   6  16
TORSDOF 4
ENDMDL
MODEL 2
REMARK VINA RESULT:      -6.2      2.725      4.165
REMARK  Name = 
REMARK  4 active torsions:
REMARK  status: ('A' for Active; 'I' for Inactive)
REMARK    1  A    between atoms: C_6  and  C_7
REMARK    2  A    between atoms: C_7  and  O_8
REMARK    3  A    between atoms: C_9  and  O_10
REMARK    4  A    between atoms: C_13  and  O_14
REMARK                            x       y       z     vdW  Elec       q    Type
REMARK                         _______ _______ _______ _____ _____    ______ ____
ROOT
ATOM      1  O   UNL     1       7.695   8.389  17.636  0.00  0.00    +0.000 OA
ATOM      2  C   UNL     1       7.285   7.254  17.427  0.00  0.00    +0.000 C 
ATOM      3  N   UNL     1       7.871   6.174  17.999  0.00  0.00    +0.000 N 
ATOM      4  C   UNL     1       7.490   4.815  17.760  0.00  0.00    +0.000 C 
ATOM      5  O   UNL     1       6.670   4.371  18.825  0.00  0.00    +0.000 OA
ATOM      6  C   UNL     1       5.333   4.912  18.905  0.00  0.00    +0.000 C 
ATOM      7  C   UNL     1       4.692   5.413  17.576  0.00  0.00    +0.000 C 
ATOM      8  C   UNL     1       5.690   5.680  16.441  0.00  0.00    +0.000 C 
ATOM      9  O   UNL     1       6.261   7.005  16.574  0.00  0.00    +0.000 OA
ATOM     10  C   UNL     1       6.785   4.626  16.428  0.00  0.00    +0.000 C 
ATOM     11  H   UNL     1       8.634   6.377  18.629  0.00  0.00    +0.000 HD
ENDROOT
BRANCH   7  12
ATOM     12  O   UNL     1       3.668   4.527  17.100  0.00  0.00    +0.000 OA
ATOM     13  H   UNL     1       3.097   4.245  17.834  0.00  0.00    +0.000 HD
ENDBRANCH   7  12
BRANCH  10  14
ATOM     14  O   UNL     1       7.663   4.786  15.317  0.00  0.00    +0.000 OA
ATOM     15  H   UNL     1       8.372   4.119  15.391  0.00  0.00    +0.000 HD
ENDBRANCH  10  14
BRANCH   6  16
ATOM     16  C   UNL     1       4.512   3.788  19.564  0.00  0.00    +0.000 C 
BRANCH  16  17
ATOM     17  O   UNL     1       5.042   2.512  19.200  0.00  0.00    +0.000 OA
ATOM     18  H   UNL     1       4.446   2.161  18.512  0.00  0.00    +0.000 HD
ENDBRANCH  16  17
ENDBRANCH   6  16
TORSDOF 4
ENDMDL
MODEL 3
REMARK VINA RESULT:      -6.0      3.228      5.654
REMARK  Name = 
REMARK  4 active torsions:
REMARK  status: ('A' for Active; 'I' for Inactive)
REMARK    1  A    between atoms: C_6  and  C_7
REMARK    2  A    between atoms: C_7  and  O_8
REMARK    3  A    between atoms: C_9  and  O_10
REMARK    4  A    between atoms: C_13  and  O_14
REMARK                            x       y       z     vdW  Elec       q    Type
REMARK                         _______ _______ _______ _____ _____    ______ ____
ROOT
ATOM      1  O   UNL     1       4.989   3.716  19.676  0.00  0.00    +0.000 OA
ATOM      2  C   UNL     1       5.597   4.400  18.864  0.00  0.00    +0.000 C 
ATOM      3  N   UNL     1       6.810   4.026  18.390  0.00  0.00    +0.000 N 
ATOM      4  C   UNL     1       7.610   4.795  17.487  0.00  0.00    +0.000 C 
ATOM      5  O   UNL     1       7.443   4.288  16.176  0.00  0.00    +0.000 OA
ATOM      6  C   UNL     1       6.174   4.526  15.527  0.00  0.00    +0.000 C 
ATOM      7  C   UNL     1       5.360   5.768  15.999  0.00  0.00    +0.000 C 
ATOM      8  C   UNL     1       5.776   6.329  17.366  0.00  0.00    +0.000 C 
ATOM      9  O   UNL     1       5.122   5.594  18.431  0.00  0.00    +0.000 OA
ATOM     10  C   UNL     1       7.286   6.278  17.532  0.00  0.00    +0.000 C 
ATOM     11  H   UNL     1       7.151   3.135  18.726  0.00  0.00    +0.000 HD
ENDROOT
BRANCH   7  12
ATOM     12  O   UNL     1       5.381   6.829  15.032  0.00  0.00    +0.000 OA
ATOM     13  H   UNL     1       5.083   7.661  15.437  0.00  0.00    +0.000 HD
ENDBRANCH   7  12
BRANCH  10  14
ATOM     14  O   UNL     1       7.708   6.895  18.746  0.00  0.00    +0.000 OA
ATOM     15  H   UNL     1       8.261   7.667  18.519  0.00  0.00    +0.000 HD
ENDBRANCH  10  14
BRANCH   6  16
ATOM     16  C   UNL     1       6.525   4.589  14.029  0.00  0.00    +0.000 C 
BRANCH  16  17
ATOM     17  O   UNL     1       7.675   5.412  13.826  0.00  0.00    +0.000 OA
ATOM     18  H   UNL     1       8.305   5.171  14.531  0.00  0.00    +0.000 HD
ENDBRANCH  16  17
ENDBRANCH   6  16
TORSDOF 4
ENDMDL
MODEL 4
REMARK VINA RESULT:      -5.9      3.087      4.763
REMARK  Name = 
REMARK  4 active torsions:
REMARK  status: ('A' for Active; 'I' for Inactive)
REMARK    1  A    between atoms: C_6  and  C_7
REMARK    2  A    between atoms: C_7  and  O_8
REMARK    3  A    between atoms: C_9  and  O_10
REMARK    4  A    between atoms: C_13  and  O_14
REMARK                            x       y       z     vdW  Elec       q    Type
REMARK                         _______ _______ _______ _____ _____    ______ ____
ROOT
ATOM      1  O   UNL     1       6.936   4.470  14.037  0.00  0.00    +0.000 OA
ATOM      2  C   UNL     1       6.717   5.014  15.111  0.00  0.00    +0.000 C 
ATOM      3  N   UNL     1       5.706   5.905  15.260  0.00  0.00    +0.000 N 
ATOM      4  C   UNL     1       5.421   6.626  16.463  0.00  0.00    +0.000 C 
ATOM      5  O   UNL     1       4.357   5.987  17.144  0.00  0.00    +0.000 OA
ATOM      6  C   UNL     1       4.636   4.715  17.769  0.00  0.00    +0.000 C 
ATOM      7  C   UNL     1       6.113   4.439  18.183  0.00  0.00    +0.000 C 
ATOM      8  C   UNL     1       7.152   5.337  17.499  0.00  0.00    +0.000 C 
ATOM      9  O   UNL     1       7.499   4.802  16.197  0.00  0.00    +0.000 OA
ATOM     10  C   UNL     1       6.632   6.759  17.370  0.00  0.00    +0.000 C 
ATOM     11  H   UNL     1       5.135   6.054  14.441  0.00  0.00    +0.000 HD
ENDROOT
BRANCH   7  12
ATOM     12  O   UNL     1       6.298   4.508  19.605  0.00  0.00    +0.000 OA
ATOM     13  H   UNL     1       6.092   3.651  20.015  0.00  0.00    +0.000 HD
ENDBRANCH   7  12
BRANCH  10  14
ATOM     14  O   UNL     1       7.620   7.639  16.838  0.00  0.00    +0.000 OA
ATOM     15  H   UNL     1       7.162   8.375  16.389  0.00  0.00    +0.000 HD
ENDBRANCH  10  14
BRANCH   6  16
ATOM     16  C   UNL     1       3.671   4.667  18.969  0.00  0.00    +0.000 C 
BRANCH  16  17
ATOM     17  O   UNL     1       3.842   5.826  19.786  0.00  0.00    +0.000 OA
ATOM     18  H   UNL     1       4.061   6.555  19.174  0.00  0.00    +0.000 HD
ENDBRANCH  16  17
ENDBRANCH   6  16
TORSDOF 4
ENDMDL
MODEL 5
REMARK VINA RESULT:      -5.9      1.897      3.880
REMARK  Name = 
REMARK  4 active torsions:
REMARK  status: ('A' for Active; 'I' for Inactive)
REMARK    1  A    between atoms: C_6  and  C_7
REMARK    2  A    between atoms: C_7  and  O_8
REMARK    3  A    between atoms: C_9  and  O_10
REMARK    4  A    between atoms: C_13  and  O_14
REMARK                            x       y       z     vdW  Elec       q    Type
REMARK                         _______ _______ _______ _____ _____    ______ ____
ROOT
ATOM      1  O   UNL     1       2.005   3.120  22.224  0.00  0.00    +0.000 OA
ATOM      2  C   UNL     1       2.431   3.133  21.076  0.00  0.00    +0.000 C 
ATOM      3  N   UNL     1       1.748   3.737  20.074  0.00  0.00    +0.000 N 
ATOM      4  C   UNL     1       2.148   3.746  18.700  0.00  0.00    +0.000 C 
ATOM      5  O   UNL     1       2.775   4.982  18.410  0.00  0.00    +0.000 OA
ATOM      6  C   UNL     1       4.086   5.211  18.972  0.00  0.00    +0.000 C 
ATOM      7  C   UNL     1       4.944   3.953  19.302  0.00  0.00    +0.000 C 
ATOM      8  C   UNL     1       4.152   2.643  19.405  0.00  0.00    +0.000 C 
ATOM      9  O   UNL     1       3.580   2.503  20.729  0.00  0.00    +0.000 OA
ATOM     10  C   UNL     1       3.063   2.587  18.346  0.00  0.00    +0.000 C 
ATOM     11  H   UNL     1       0.893   4.198  20.349  0.00  0.00    +0.000 HD
ENDROOT
BRANCH   7  12
ATOM     12  O   UNL     1       6.024   3.775  18.373  0.00  0.00    +0.000 OA
ATOM     13  H   UNL     1       6.551   4.589  18.308  0.00  0.00    +0.000 HD
ENDBRANCH   7  12
BRANCH  10  14
ATOM     14  O   UNL     1       2.385   1.333  18.347  0.00  0.00    +0.000 OA
ATOM     15  H   UNL     1       2.027   1.182  19.243  0.00  0.00    +0.000 HD
ENDBRANCH  10  14
BRANCH   6  16
ATOM     16  C   UNL     1       4.774   6.140  17.954  0.00  0.00    +0.000 C 
BRANCH  16  17
ATOM     17  O   UNL     1       4.589   5.642  16.628  0.00  0.00    +0.000 OA
ATOM     18  H   UNL     1       4.677   6.414  16.037  0.00  0.00    +0.000 HD
ENDBRANCH  16  17
ENDBRANCH   6  16
TORSDOF 4
ENDMDL
MODEL 6
REMARK VINA RESULT:      -5.9      1.983      4.549
REMARK  Name = 
REMARK  4 active torsions:
REMARK  status: ('A' for Active; 'I' for Inactive)
REMARK    1  A    between atoms: C_6  and  C_7
REMARK    2  A    between atoms: C_7  and  O_8
REMARK    3  A    between atoms: C_9  and  O_10
REMARK    4  A    between atoms: C_13  and  O_14
REMARK                            x       y       z     vdW  Elec       q    Type
REMARK                         _______ _______ _______ _____ _____    ______ ____
ROOT
ATOM      1  O   UNL     1       3.379   1.540  18.282  0.00  0.00    +0.000 OA
ATOM      2  C   UNL     1       3.782   2.691  18.395  0.00  0.00    +0.000 C 
ATOM      3  N   UNL     1       4.864   2.991  19.154  0.00  0.00    +0.000 N 
ATOM      4  C   UNL     1       5.361   4.313  19.383  0.00  0.00    +0.000 C 
ATOM      5  O   UNL     1       6.461   4.549  18.524  0.00  0.00    +0.000 OA
ATOM      6  C   UNL     1       6.182   4.712  17.116  0.00  0.00    +0.000 C 
ATOM      7  C   UNL     1       4.761   5.222  16.731  0.00  0.00    +0.000 C 
ATOM      8  C   UNL     1       3.703   5.072  17.833  0.00  0.00    +0.000 C 
ATOM      9  O   UNL     1       3.143   3.736  17.814  0.00  0.00    +0.000 OA
ATOM     10  C   UNL     1       4.299   5.382  19.196  0.00  0.00    +0.000 C 
ATOM     11  H   UNL     1       5.326   2.201  19.582  0.00  0.00    +0.000 HD
ENDROOT
BRANCH   7  12
ATOM     12  O   UNL     1       4.778   6.585  16.281  0.00  0.00    +0.000 OA
ATOM     13  H   UNL     1       4.905   6.621  15.318  0.00  0.00    +0.000 HD
ENDBRANCH   7  12
BRANCH  10  14
ATOM     14  O   UNL     1       3.312   5.359  20.225  0.00  0.00    +0.000 OA
ATOM     15  H   UNL     1       3.765   5.462  21.083  0.00  0.00    +0.000 HD
ENDBRANCH  10  14
BRANCH   6  16
ATOM     16  C   UNL     1       7.297   5.652  16.619  0.00  0.00    +0.000 C 
BRANCH  16  17
ATOM     17  O   UNL     1       7.460   5.520  15.207  0.00  0.00    +0.000 OA
ATOM     18  H   UNL     1       6.570   5.631  14.822  0.00  0.00    +0.000 HD
ENDBRANCH  16  17
ENDBRANCH   6  16
TORSDOF 4
ENDMDL
MODEL 7
REMARK VINA RESULT:      -5.8      1.984      3.415
REMARK  Name = 
REMARK  4 active torsions:
REMARK  status: ('A' for Active; 'I' for Inactive)
REMARK    1  A    between atoms: C_6  and  C_7
REMARK    2  A    between atoms: C_7  and  O_8
REMARK    3  A    between atoms: C_9  and  O_10
REMARK    4  A    between atoms: C_13  and  O_14
REMARK                            x       y       z     vdW  Elec       q    Type
REMARK                         _______ _______ _______ _____ _____    ______ ____
ROOT
ATOM      1  O   UNL     1       8.271   4.202  17.308  0.00  0.00    +0.000 OA
ATOM      2  C   UNL     1       7.088   4.508  17.361  0.00  0.00    +0.000 C 
ATOM      3  N   UNL     1       6.151   3.845  16.639  0.00  0.00    +0.000 N 
ATOM      4  C   UNL     1       4.760   4.178  16.602  0.00  0.00    +0.000 C 
ATOM      5  O   UNL     1       4.054   3.311  17.470  0.00  0.00    +0.000 OA
ATOM      6  C   UNL     1       4.237   3.499  18.891  0.00  0.00    +0.000 C 
ATOM      7  C   UNL     1       4.651   4.923  19.368  0.00  0.00    +0.000 C 
ATOM      8  C   UNL     1       5.235   5.825  18.273  0.00  0.00    +0.000 C 
ATOM      9  O   UNL     1       6.649   5.557  18.101  0.00  0.00    +0.000 OA
ATOM     10  C   UNL     1       4.492   5.629  16.962  0.00  0.00    +0.000 C 
ATOM     11  H   UNL     1       6.495   3.069  16.092  0.00  0.00    +0.000 HD
ENDROOT
BRANCH   7  12
ATOM     12  O   UNL     1       3.572   5.613  20.016  0.00  0.00    +0.000 OA
ATOM     13  H   UNL     1       3.135   5.029  20.659  0.00  0.00    +0.000 HD
ENDBRANCH   7  12
BRANCH  10  14
ATOM     14  O   UNL     1       4.941   6.535  15.956  0.00  0.00    +0.000 OA
ATOM     15  H   UNL     1       5.302   6.012  15.215  0.00  0.00    +0.000 HD
ENDBRANCH  10  14
BRANCH   6  16
ATOM     16  C   UNL     1       2.901   3.040  19.505  0.00  0.00    +0.000 C 
BRANCH  16  17
ATOM     17  O   UNL     1       3.061   2.787  20.901  0.00  0.00    +0.000 OA
ATOM     18  H   UNL     1       3.475   3.590  21.273  0.00  0.00    +0.000 HD
ENDBRANCH  16  17
ENDBRANCH   6  16
TORSDOF 4
ENDMDL
MODEL 8
REMARK VINA RESULT:      -5.8      1.721      4.032
REMARK  Name = 
REMARK  4 active torsions:
REMARK  status: ('A' for Active; 'I' for Inactive)
REMARK    1  A    between atoms: C_6  and  C_7
REMARK    2  A    between atoms: C_7  and  O_8
REMARK    3  A    between atoms: C_9  and  O_10
REMARK    4  A    between atoms: C_13  and  O_14
REMARK                            x       y       z     vdW  Elec       q    Type
REMARK                         _______ _______ _______ _____ _____    ______ ____
ROOT
ATOM      1  O   UNL     1       0.057   2.162  18.465  0.00  0.00    +0.000 OA
ATOM      2  C   UNL     1       1.100   2.518  18.999  0.00  0.00    +0.000 C 
ATOM      3  N   UNL     1       2.218   1.753  18.948  0.00  0.00    +0.000 N 
ATOM      4  C   UNL     1       3.455   2.068  19.593  0.00  0.00    +0.000 C 
ATOM      5  O   UNL     1       4.342   2.630  18.643  0.00  0.00    +0.000 OA
ATOM      6  C   UNL     1       4.050   3.964  18.170  0.00  0.00    +0.000 C 
ATOM      7  C   UNL     1       3.224   4.886  19.116  0.00  0.00    +0.000 C 
ATOM      8  C   UNL     1       2.455   4.150  20.221  0.00  0.00    +0.000 C 
ATOM      9  O   UNL     1       1.186   3.666  19.714  0.00  0.00    +0.000 OA
ATOM     10  C   UNL     1       3.280   3.002  20.778  0.00  0.00    +0.000 C 
ATOM     11  H   UNL     1       2.135   0.899  18.413  0.00  0.00    +0.000 HD
ENDROOT
BRANCH   7  12
ATOM     12  O   UNL     1       4.031   5.913  19.712  0.00  0.00    +0.000 OA
ATOM     13  H   UNL     1       3.581   6.773  19.653  0.00  0.00    +0.000 HD
ENDBRANCH   7  12
BRANCH  10  14
ATOM     14  O   UNL     1       2.635   2.370  21.882  0.00  0.00    +0.000 OA
ATOM     15  H   UNL     1       3.136   1.563  22.106  0.00  0.00    +0.000 HD
ENDBRANCH  10  14
BRANCH   6  16
ATOM     16  C   UNL     1       5.434   4.554  17.836  0.00  0.00    +0.000 C 
BRANCH  16  17
ATOM     17  O   UNL     1       6.401   4.111  18.788  0.00  0.00    +0.000 OA
ATOM     18  H   UNL     1       7.169   3.806  18.268  0.00  0.00    +0.000 HD
ENDBRANCH  16  17
ENDBRANCH   6  16
TORSDOF 4
ENDMDL
MODEL 9
REMARK VINA RESULT:      -5.7      2.041      3.556
REMARK  Name = 
REMARK  4 active torsions:
REMARK  status: ('A' for Active; 'I' for Inactive)
REMARK    1  A    between atoms: C_6  and  C_7
REMARK    2  A    between atoms: C_7  and  O_8
REMARK    3  A    between atoms: C_9  and  O_10
REMARK    4  A    between atoms: C_13  and  O_14
REMARK                            x       y       z     vdW  Elec       q    Type
REMARK                         _______ _______ _______ _____ _____    ______ ____
ROOT
ATOM      1  O   UNL     1       8.323   4.115  17.749  0.00  0.00    +0.000 OA
ATOM      2  C   UNL     1       7.143   4.439  17.766  0.00  0.00    +0.000 C 
ATOM      3  N   UNL     1       6.368   4.347  16.658  0.00  0.00    +0.000 N 
ATOM      4  C   UNL     1       5.000   4.759  16.580  0.00  0.00    +0.000 C 
ATOM      5  O   UNL     1       4.167   3.622  16.707  0.00  0.00    +0.000 OA
ATOM      6  C   UNL     1       4.085   3.000  18.009  0.00  0.00    +0.000 C 
ATOM      7  C   UNL     1       4.375   3.905  19.244  0.00  0.00    +0.000 C 
ATOM      8  C   UNL     1       5.128   5.203  18.928  0.00  0.00    +0.000 C 
ATOM      9  O   UNL     1       6.555   4.957  18.872  0.00  0.00    +0.000 OA
ATOM     10  C   UNL     1       4.640   5.805  17.621  0.00  0.00    +0.000 C 
ATOM     11  H   UNL     1       6.822   3.963  15.842  0.00  0.00    +0.000 HD
ENDROOT
BRANCH   7  12
ATOM     12  O   UNL     1       3.181   4.222  19.975  0.00  0.00    +0.000 OA
ATOM     13  H   UNL     1       2.573   4.741  19.422  0.00  0.00    +0.000 HD
ENDBRANCH   7  12
BRANCH  10  14
ATOM     14  O   UNL     1       5.244   7.069  17.359  0.00  0.00    +0.000 OA
ATOM     15  H   UNL     1       6.129   6.911  16.978  0.00  0.00    +0.000 HD
ENDBRANCH  10  14
BRANCH   6  16
ATOM     16  C   UNL     1       2.670   2.393  18.046  0.00  0.00    +0.000 C 
BRANCH  16  17
ATOM     17  O   UNL     1       1.726   3.306  17.485  0.00  0.00    +0.000 OA
ATOM     18  H   UNL     1       1.258   3.707  18.243  0.00  0.00    +0.000 HD
ENDBRANCH  16  17
ENDBRANCH   6  16
TORSDOF 4
ENDMDL
