MODEL 1
REMARK VINA RESULT:      -9.3      0.000      0.000
REMARK  Name = 
REMARK  8 active torsions:
REMARK  status: ('A' for Active; 'I' for Inactive)
REMARK    1  A    between atoms: C_1  and  C_2
REMARK    2  A    between atoms: C_2  and  C_3
REMARK    3  A    between atoms: C_2  and  N_4
REMARK    4  A    between atoms: N_4  and  S_5
REMARK    5  A    between atoms: S_5  and  C_8
REMARK    6  A    between atoms: C_10  and  C_11
REMARK    7  A    between atoms: C_11  and  O_13
REMARK    8  A    between atoms: C_15  and  C_16
REMARK                            x       y       z     vdW  Elec       q    Type
REMARK                         _______ _______ _______ _____ _____    ______ ____
ROOT
ATOM      1  C   UNL     1       4.856   5.127  16.928  0.00  0.00    +0.000 A 
ATOM      2  C   UNL     1       4.572   3.819  17.306  0.00  0.00    +0.000 A 
ATOM      3  C   UNL     1       3.590   3.596  18.283  0.00  0.00    +0.000 A 
ATOM      4  C   UNL     1       2.873   4.680  18.830  0.00  0.00    +0.000 A 
ATOM      5  C   UNL     1       3.139   5.996  18.420  0.00  0.00    +0.000 A 
ATOM      6  C   UNL     1       4.180   6.194  17.507  0.00  0.00    +0.000 A 
ENDROOT
BRANCH   5   7
ATOM      7  C   UNL     1       2.327   7.161  18.814  0.00  0.00    +0.000 A 
ATOM      8  C   UNL     1       2.052   8.218  17.930  0.00  0.00    +0.000 A 
ATOM      9  C   UNL     1       1.398   9.376  18.374  0.00  0.00    +0.000 A 
ATOM     10  C   UNL     1       1.019   9.496  19.710  0.00  0.00    +0.000 A 
ATOM     11  C   UNL     1       1.337   8.479  20.600  0.00  0.00    +0.000 A 
ATOM     12  C   UNL     1       1.939   7.314  20.155  0.00  0.00    +0.000 A 
ATOM     13  O   UNL     1       1.101   8.569  21.942  0.00  0.00    +0.000 OA
ATOM     14  C   UNL     1      -0.132   9.248  22.125  0.00  0.00    +0.000 C 
ATOM     15  C   UNL     1      -0.140  10.606  21.431  0.00  0.00    +0.000 C 
ATOM     16  O   UNL     1       0.324  10.612  20.073  0.00  0.00    +0.000 OA
ENDBRANCH   5   7
BRANCH   1  17
ATOM     17  S   UNL     1       5.975   5.523  15.613  0.00  0.00    +0.000 S 
ATOM     18  O   UNL     1       5.427   6.646  14.884  0.00  0.00    +0.000 OA
ATOM     19  O   UNL     1       6.287   4.262  14.962  0.00  0.00    +0.000 OA
BRANCH  17  20
ATOM     20  N   UNL     1       7.351   6.022  16.451  0.00  0.00    +0.000 NA
ATOM     21  H   UNL     1       8.130   5.366  16.381  0.00  0.00    +0.000 HD
BRANCH  20  23
ATOM     22  C   UNL     1       7.841   5.925  18.895  0.00  0.00    +0.000 C 
ATOM     23  C   UNL     1       7.224   6.714  17.751  0.00  0.00    +0.000 C 
ATOM     24  C   UNL     1       7.914   8.075  17.637  0.00  0.00    +0.000 C 
ENDBRANCH  20  23
ENDBRANCH  17  20
ENDBRANCH   1  17
BRANCH   3  25
ATOM     25  C   UNL     1       3.180   2.225  18.688  0.00  0.00    +0.000 C 
ATOM     26  O   UNL     1       2.185   2.013  19.361  0.00  0.00    +0.000 OA
BRANCH  25  27
ATOM     27  O   UNL     1       3.999   1.245  18.258  0.00  0.00    +0.000 OA
ATOM     28  H   UNL     1       4.855   1.526  17.887  0.00  0.00    +0.000 HD
ENDBRANCH  25  27
ENDBRANCH   3  25
TORSDOF 6
ENDMDL
MODEL 2
REMARK VINA RESULT:      -9.2      1.720      2.191
REMARK  Name = 
REMARK  8 active torsions:
REMARK  status: ('A' for Active; 'I' for Inactive)
REMARK    1  A    between atoms: C_1  and  C_2
REMARK    2  A    between atoms: C_2  and  C_3
REMARK    3  A    between atoms: C_2  and  N_4
REMARK    4  A    between atoms: N_4  and  S_5
REMARK    5  A    between atoms: S_5  and  C_8
REMARK    6  A    between atoms: C_10  and  C_11
REMARK    7  A    between atoms: C_11  and  O_13
REMARK    8  A    between atoms: C_15  and  C_16
REMARK                            x       y       z     vdW  Elec       q    Type
REMARK                         _______ _______ _______ _____ _____    ______ ____
ROOT
ATOM      1  C   UNL     1       5.431   5.174  17.352  0.00  0.00    +0.000 A 
ATOM      2  C   UNL     1       5.006   3.857  17.496  0.00  0.00    +0.000 A 
ATOM      3  C   UNL     1       3.781   3.609  18.132  0.00  0.00    +0.000 A 
ATOM      4  C   UNL     1       2.977   4.681  18.569  0.00  0.00    +0.000 A 
ATOM      5  C   UNL     1       3.394   6.009  18.391  0.00  0.00    +0.000 A 
ATOM      6  C   UNL     1       4.657   6.224  17.829  0.00  0.00    +0.000 A 
ENDROOT
BRANCH   5   7
ATOM      7  C   UNL     1       2.545   7.182  18.664  0.00  0.00    +0.000 A 
ATOM      8  C   UNL     1       2.342   8.200  17.716  0.00  0.00    +0.000 A 
ATOM      9  C   UNL     1       1.646   9.369  18.054  0.00  0.00    +0.000 A 
ATOM     10  C   UNL     1       1.154   9.541  19.346  0.00  0.00    +0.000 A 
ATOM     11  C   UNL     1       1.399   8.565  20.302  0.00  0.00    +0.000 A 
ATOM     12  C   UNL     1       2.043   7.388  19.960  0.00  0.00    +0.000 A 
ATOM     13  O   UNL     1       1.048   8.708  21.614  0.00  0.00    +0.000 OA
ATOM     14  C   UNL     1      -0.200   9.383  21.662  0.00  0.00    +0.000 C 
ATOM     15  C   UNL     1      -0.155  10.711  20.913  0.00  0.00    +0.000 C 
ATOM     16  O   UNL     1       0.424  10.665  19.601  0.00  0.00    +0.000 OA
ENDBRANCH   5   7
BRANCH   1  17
ATOM     17  S   UNL     1       6.890   5.616  16.449  0.00  0.00    +0.000 S 
ATOM     18  O   UNL     1       7.886   4.593  16.683  0.00  0.00    +0.000 OA
ATOM     19  O   UNL     1       7.139   7.015  16.753  0.00  0.00    +0.000 OA
BRANCH  17  20
ATOM     20  N   UNL     1       6.363   5.524  14.849  0.00  0.00    +0.000 NA
ATOM     21  H   UNL     1       5.361   5.679  14.742  0.00  0.00    +0.000 HD
BRANCH  20  23
ATOM     22  C   UNL     1       5.895   3.723  13.189  0.00  0.00    +0.000 C 
ATOM     23  C   UNL     1       6.952   4.531  13.925  0.00  0.00    +0.000 C 
ATOM     24  C   UNL     1       7.823   5.278  12.912  0.00  0.00    +0.000 C 
ENDBRANCH  20  23
ENDBRANCH  17  20
ENDBRANCH   1  17
BRANCH   3  25
ATOM     25  C   UNL     1       3.225   2.235  18.260  0.00  0.00    +0.000 C 
ATOM     26  O   UNL     1       2.099   2.022  18.676  0.00  0.00    +0.000 OA
BRANCH  25  27
ATOM     27  O   UNL     1       4.069   1.252  17.887  0.00  0.00    +0.000 OA
ATOM     28  H   UNL     1       3.661   0.446  17.521  0.00  0.00    +0.000 HD
ENDBRANCH  25  27
ENDBRANCH   3  25
TORSDOF 6
ENDMDL
MODEL 3
REMARK VINA RESULT:      -9.0      2.224      4.408
REMARK  Name = 
REMARK  8 active torsions:
REMARK  status: ('A' for Active; 'I' for Inactive)
REMARK    1  A    between atoms: C_1  and  C_2
REMARK    2  A    between atoms: C_2  and  C_3
REMARK    3  A    between atoms: C_2  and  N_4
REMARK    4  A    between atoms: N_4  and  S_5
REMARK    5  A    between atoms: S_5  and  C_8
REMARK    6  A    between atoms: C_10  and  C_11
REMARK    7  A    between atoms: C_11  and  O_13
REMARK    8  A    between atoms: C_15  and  C_16
REMARK                            x       y       z     vdW  Elec       q    Type
REMARK                         _______ _______ _______ _____ _____    ______ ____
ROOT
ATOM      1  C   UNL     1       4.329   4.020  18.509  0.00  0.00    +0.000 A 
ATOM      2  C   UNL     1       5.511   4.223  17.804  0.00  0.00    +0.000 A 
ATOM      3  C   UNL     1       5.738   5.474  17.209  0.00  0.00    +0.000 A 
ATOM      4  C   UNL     1       4.803   6.516  17.372  0.00  0.00    +0.000 A 
ATOM      5  C   UNL     1       3.628   6.318  18.113  0.00  0.00    +0.000 A 
ATOM      6  C   UNL     1       3.390   5.037  18.623  0.00  0.00    +0.000 A 
ENDROOT
BRANCH   5   7
ATOM      7  C   UNL     1       2.688   7.395  18.469  0.00  0.00    +0.000 A 
ATOM      8  C   UNL     1       2.418   8.473  17.608  0.00  0.00    +0.000 A 
ATOM      9  C   UNL     1       1.630   9.553  18.031  0.00  0.00    +0.000 A 
ATOM     10  C   UNL     1       1.109   9.573  19.323  0.00  0.00    +0.000 A 
ATOM     11  C   UNL     1       1.416   8.539  20.196  0.00  0.00    +0.000 A 
ATOM     12  C   UNL     1       2.154   7.448  19.767  0.00  0.00    +0.000 A 
ATOM     13  O   UNL     1       1.038   8.540  21.509  0.00  0.00    +0.000 OA
ATOM     14  C   UNL     1      -0.259   9.112  21.590  0.00  0.00    +0.000 C 
ATOM     15  C   UNL     1      -0.308  10.499  20.959  0.00  0.00    +0.000 C 
ATOM     16  O   UNL     1       0.291  10.612  19.660  0.00  0.00    +0.000 OA
ENDBRANCH   5   7
BRANCH   1  17
ATOM     17  S   UNL     1       3.996   2.533  19.412  0.00  0.00    +0.000 S 
ATOM     18  O   UNL     1       5.244   2.064  19.973  0.00  0.00    +0.000 OA
ATOM     19  O   UNL     1       3.189   1.705  18.533  0.00  0.00    +0.000 OA
BRANCH  17  20
ATOM     20  N   UNL     1       2.999   3.085  20.656  0.00  0.00    +0.000 NA
ATOM     21  H   UNL     1       3.488   3.215  21.541  0.00  0.00    +0.000 HD
BRANCH  20  23
ATOM     22  C   UNL     1       1.186   2.365  22.210  0.00  0.00    +0.000 C 
ATOM     23  C   UNL     1       1.607   2.598  20.768  0.00  0.00    +0.000 C 
ATOM     24  C   UNL     1       0.684   3.636  20.127  0.00  0.00    +0.000 C 
ENDBRANCH  20  23
ENDBRANCH  17  20
ENDBRANCH   1  17
BRANCH   3  25
ATOM     25  C   UNL     1       7.007   5.790  16.501  0.00  0.00    +0.000 C 
ATOM     26  O   UNL     1       7.560   6.872  16.606  0.00  0.00    +0.000 OA
BRANCH  25  27
ATOM     27  O   UNL     1       7.485   4.791  15.734  0.00  0.00    +0.000 OA
ATOM     28  H   UNL     1       7.137   4.736  14.826  0.00  0.00    +0.000 HD
ENDBRANCH  25  27
ENDBRANCH   3  25
TORSDOF 6
ENDMDL
MODEL 4
REMARK VINA RESULT:      -9.0      0.879      1.628
REMARK  Name = 
REMARK  8 active torsions:
REMARK  status: ('A' for Active; 'I' for Inactive)
REMARK    1  A    between atoms: C_1  and  C_2
REMARK    2  A    between atoms: C_2  and  C_3
REMARK    3  A    between atoms: C_2  and  N_4
REMARK    4  A    between atoms: N_4  and  S_5
REMARK    5  A    between atoms: S_5  and  C_8
REMARK    6  A    between atoms: C_10  and  C_11
REMARK    7  A    between atoms: C_11  and  O_13
REMARK    8  A    between atoms: C_15  and  C_16
REMARK                            x       y       z     vdW  Elec       q    Type
REMARK                         _______ _______ _______ _____ _____    ______ ____
ROOT
ATOM      1  C   UNL     1       4.475   5.214  16.926  0.00  0.00    +0.000 A 
ATOM      2  C   UNL     1       4.023   3.909  17.089  0.00  0.00    +0.000 A 
ATOM      3  C   UNL     1       3.052   3.648  18.068  0.00  0.00    +0.000 A 
ATOM      4  C   UNL     1       2.512   4.703  18.832  0.00  0.00    +0.000 A 
ATOM      5  C   UNL     1       2.945   6.023  18.639  0.00  0.00    +0.000 A 
ATOM      6  C   UNL     1       3.974   6.241  17.716  0.00  0.00    +0.000 A 
ENDROOT
BRANCH   5   7
ATOM      7  C   UNL     1       2.318   7.197  19.272  0.00  0.00    +0.000 A 
ATOM      8  C   UNL     1       1.806   7.160  20.580  0.00  0.00    +0.000 A 
ATOM      9  C   UNL     1       1.089   8.246  21.103  0.00  0.00    +0.000 A 
ATOM     10  C   UNL     1       0.868   9.378  20.321  0.00  0.00    +0.000 A 
ATOM     11  C   UNL     1       1.323   9.399  19.011  0.00  0.00    +0.000 A 
ATOM     12  C   UNL     1       2.072   8.348  18.507  0.00  0.00    +0.000 A 
ATOM     13  O   UNL     1       1.050  10.421  18.147  0.00  0.00    +0.000 OA
ATOM     14  C   UNL     1       1.091  11.636  18.881  0.00  0.00    +0.000 C 
ATOM     15  C   UNL     1       0.148  11.606  20.079  0.00  0.00    +0.000 C 
ATOM     16  O   UNL     1       0.227  10.433  20.902  0.00  0.00    +0.000 OA
ENDBRANCH   5   7
BRANCH   1  17
ATOM     17  S   UNL     1       5.595   5.686  15.636  0.00  0.00    +0.000 S 
ATOM     18  O   UNL     1       5.174   6.974  15.130  0.00  0.00    +0.000 OA
ATOM     19  O   UNL     1       5.720   4.524  14.772  0.00  0.00    +0.000 OA
BRANCH  17  20
ATOM     20  N   UNL     1       7.049   5.863  16.471  0.00  0.00    +0.000 NA
ATOM     21  H   UNL     1       7.652   5.042  16.417  0.00  0.00    +0.000 HD
BRANCH  20  23
ATOM     22  C   UNL     1       7.825   5.818  18.841  0.00  0.00    +0.000 C 
ATOM     23  C   UNL     1       7.088   6.589  17.759  0.00  0.00    +0.000 C 
ATOM     24  C   UNL     1       7.779   7.935  17.528  0.00  0.00    +0.000 C 
ENDBRANCH  20  23
ENDBRANCH  17  20
ENDBRANCH   1  17
BRANCH   3  25
ATOM     25  C   UNL     1       2.468   2.293  18.255  0.00  0.00    +0.000 C 
ATOM     26  O   UNL     1       1.283   2.119  18.483  0.00  0.00    +0.000 OA
BRANCH  25  27
ATOM     27  O   UNL     1       3.354   1.282  18.159  0.00  0.00    +0.000 OA
ATOM     28  H   UNL     1       4.130   1.327  18.747  0.00  0.00    +0.000 HD
ENDBRANCH  25  27
ENDBRANCH   3  25
TORSDOF 6
ENDMDL
MODEL 5
REMARK VINA RESULT:      -8.9      2.153      4.353
REMARK  Name = 
REMARK  8 active torsions:
REMARK  status: ('A' for Active; 'I' for Inactive)
REMARK    1  A    between atoms: C_1  and  C_2
REMARK    2  A    between atoms: C_2  and  C_3
REMARK    3  A    between atoms: C_2  and  N_4
REMARK    4  A    between atoms: N_4  and  S_5
REMARK    5  A    between atoms: S_5  and  C_8
REMARK    6  A    between atoms: C_10  and  C_11
REMARK    7  A    between atoms: C_11  and  O_13
REMARK    8  A    between atoms: C_15  and  C_16
REMARK                            x       y       z     vdW  Elec       q    Type
REMARK                         _______ _______ _______ _____ _____    ______ ____
ROOT
ATOM      1  C   UNL     1       4.230   3.985  18.196  0.00  0.00    +0.000 A 
ATOM      2  C   UNL     1       5.430   4.233  17.538  0.00  0.00    +0.000 A 
ATOM      3  C   UNL     1       5.687   5.529  17.066  0.00  0.00    +0.000 A 
ATOM      4  C   UNL     1       4.764   6.567  17.305  0.00  0.00    +0.000 A 
ATOM      5  C   UNL     1       3.570   6.321  18.000  0.00  0.00    +0.000 A 
ATOM      6  C   UNL     1       3.303   5.002  18.384  0.00  0.00    +0.000 A 
ENDROOT
BRANCH   5   7
ATOM      7  C   UNL     1       2.638   7.375  18.435  0.00  0.00    +0.000 A 
ATOM      8  C   UNL     1       2.309   8.471  17.618  0.00  0.00    +0.000 A 
ATOM      9  C   UNL     1       1.532   9.529  18.112  0.00  0.00    +0.000 A 
ATOM     10  C   UNL     1       1.081   9.509  19.430  0.00  0.00    +0.000 A 
ATOM     11  C   UNL     1       1.447   8.456  20.258  0.00  0.00    +0.000 A 
ATOM     12  C   UNL     1       2.174   7.388  19.761  0.00  0.00    +0.000 A 
ATOM     13  O   UNL     1       1.141   8.419  21.588  0.00  0.00    +0.000 OA
ATOM     14  C   UNL     1      -0.157   8.970  21.754  0.00  0.00    +0.000 C 
ATOM     15  C   UNL     1      -0.256  10.373  21.163  0.00  0.00    +0.000 C 
ATOM     16  O   UNL     1       0.270  10.527  19.837  0.00  0.00    +0.000 OA
ENDBRANCH   5   7
BRANCH   1  17
ATOM     17  S   UNL     1       3.856   2.426  18.951  0.00  0.00    +0.000 S 
ATOM     18  O   UNL     1       4.722   2.269  20.099  0.00  0.00    +0.000 OA
ATOM     19  O   UNL     1       3.828   1.456  17.870  0.00  0.00    +0.000 OA
BRANCH  17  20
ATOM     20  N   UNL     1       2.270   2.655  19.478  0.00  0.00    +0.000 NA
ATOM     21  H   UNL     1       1.607   2.802  18.717  0.00  0.00    +0.000 HD
BRANCH  20  23
ATOM     22  C   UNL     1       0.812   4.363  20.562  0.00  0.00    +0.000 C 
ATOM     23  C   UNL     1       1.996   3.421  20.712  0.00  0.00    +0.000 C 
ATOM     24  C   UNL     1       1.718   2.425  21.841  0.00  0.00    +0.000 C 
ENDBRANCH  20  23
ENDBRANCH  17  20
ENDBRANCH   1  17
BRANCH   3  25
ATOM     25  C   UNL     1       6.976   5.889  16.417  0.00  0.00    +0.000 C 
ATOM     26  O   UNL     1       7.590   5.107  15.710  0.00  0.00    +0.000 OA
BRANCH  25  27
ATOM     27  O   UNL     1       7.408   7.137  16.680  0.00  0.00    +0.000 OA
ATOM     28  H   UNL     1       8.373   7.276  16.664  0.00  0.00    +0.000 HD
ENDBRANCH  25  27
ENDBRANCH   3  25
TORSDOF 6
ENDMDL
MODEL 6
REMARK VINA RESULT:      -8.8      0.782      1.207
REMARK  Name = 
REMARK  8 active torsions:
REMARK  status: ('A' for Active; 'I' for Inactive)
REMARK    1  A    between atoms: C_1  and  C_2
REMARK    2  A    between atoms: C_2  and  C_3
REMARK    3  A    between atoms: C_2  and  N_4
REMARK    4  A    between atoms: N_4  and  S_5
REMARK    5  A    between atoms: S_5  and  C_8
REMARK    6  A    between atoms: C_10  and  C_11
REMARK    7  A    between atoms: C_11  and  O_13
REMARK    8  A    between atoms: C_15  and  C_16
REMARK                            x       y       z     vdW  Elec       q    Type
REMARK                         _______ _______ _______ _____ _____    ______ ____
ROOT
ATOM      1  C   UNL     1       4.880   5.366  17.146  0.00  0.00    +0.000 A 
ATOM      2  C   UNL     1       4.387   4.068  17.237  0.00  0.00    +0.000 A 
ATOM      3  C   UNL     1       3.188   3.848  17.932  0.00  0.00    +0.000 A 
ATOM      4  C   UNL     1       2.477   4.933  18.482  0.00  0.00    +0.000 A 
ATOM      5  C   UNL     1       2.959   6.245  18.359  0.00  0.00    +0.000 A 
ATOM      6  C   UNL     1       4.199   6.424  17.733  0.00  0.00    +0.000 A 
ENDROOT
BRANCH   5   7
ATOM      7  C   UNL     1       2.199   7.443  18.755  0.00  0.00    +0.000 A 
ATOM      8  C   UNL     1       1.952   8.504  17.866  0.00  0.00    +0.000 A 
ATOM      9  C   UNL     1       1.351   9.690  18.310  0.00  0.00    +0.000 A 
ATOM     10  C   UNL     1       0.997   9.834  19.650  0.00  0.00    +0.000 A 
ATOM     11  C   UNL     1       1.288   8.813  20.544  0.00  0.00    +0.000 A 
ATOM     12  C   UNL     1       1.838   7.622  20.100  0.00  0.00    +0.000 A 
ATOM     13  O   UNL     1       1.075   8.922  21.889  0.00  0.00    +0.000 OA
ATOM     14  C   UNL     1      -0.128   9.649  22.084  0.00  0.00    +0.000 C 
ATOM     15  C   UNL     1      -0.094  11.001  21.378  0.00  0.00    +0.000 C 
ATOM     16  O   UNL     1       0.350  10.979  20.014  0.00  0.00    +0.000 OA
ENDBRANCH   5   7
BRANCH   1  17
ATOM     17  S   UNL     1       6.306   5.783  16.182  0.00  0.00    +0.000 S 
ATOM     18  O   UNL     1       5.886   5.931  14.806  0.00  0.00    +0.000 OA
ATOM     19  O   UNL     1       7.341   4.841  16.573  0.00  0.00    +0.000 OA
BRANCH  17  20
ATOM     20  N   UNL     1       6.728   7.295  16.801  0.00  0.00    +0.000 NA
ATOM     21  H   UNL     1       6.499   8.068  16.176  0.00  0.00    +0.000 HD
BRANCH  20  23
ATOM     22  C   UNL     1       8.210   8.905  17.998  0.00  0.00    +0.000 C 
ATOM     23  C   UNL     1       7.972   7.462  17.582  0.00  0.00    +0.000 C 
ATOM     24  C   UNL     1       7.875   6.579  18.829  0.00  0.00    +0.000 C 
ENDBRANCH  20  23
ENDBRANCH  17  20
ENDBRANCH   1  17
BRANCH   3  25
ATOM     25  C   UNL     1       2.561   2.501  18.011  0.00  0.00    +0.000 C 
ATOM     26  O   UNL     1       3.218   1.473  17.985  0.00  0.00    +0.000 OA
BRANCH  25  27
ATOM     27  O   UNL     1       1.217   2.513  18.105  0.00  0.00    +0.000 OA
ATOM     28  H   UNL     1       0.778   1.644  18.158  0.00  0.00    +0.000 HD
ENDBRANCH  25  27
ENDBRANCH   3  25
TORSDOF 6
ENDMDL
MODEL 7
REMARK VINA RESULT:      -8.7      1.862      2.705
REMARK  Name = 
REMARK  8 active torsions:
REMARK  status: ('A' for Active; 'I' for Inactive)
REMARK    1  A    between atoms: C_1  and  C_2
REMARK    2  A    between atoms: C_2  and  C_3
REMARK    3  A    between atoms: C_2  and  N_4
REMARK    4  A    between atoms: N_4  and  S_5
REMARK    5  A    between atoms: S_5  and  C_8
REMARK    6  A    between atoms: C_10  and  C_11
REMARK    7  A    between atoms: C_11  and  O_13
REMARK    8  A    between atoms: C_15  and  C_16
REMARK                            x       y       z     vdW  Elec       q    Type
REMARK                         _______ _______ _______ _____ _____    ______ ____
ROOT
ATOM      1  C   UNL     1       5.277   5.121  17.390  0.00  0.00    +0.000 A 
ATOM      2  C   UNL     1       4.766   3.830  17.301  0.00  0.00    +0.000 A 
ATOM      3  C   UNL     1       3.562   3.534  17.957  0.00  0.00    +0.000 A 
ATOM      4  C   UNL     1       2.862   4.544  18.648  0.00  0.00    +0.000 A 
ATOM      5  C   UNL     1       3.364   5.854  18.706  0.00  0.00    +0.000 A 
ATOM      6  C   UNL     1       4.608   6.099  18.114  0.00  0.00    +0.000 A 
ENDROOT
BRANCH   5   7
ATOM      7  C   UNL     1       2.618   6.997  19.259  0.00  0.00    +0.000 A 
ATOM      8  C   UNL     1       1.994   6.949  20.518  0.00  0.00    +0.000 A 
ATOM      9  C   UNL     1       1.175   7.999  20.956  0.00  0.00    +0.000 A 
ATOM     10  C   UNL     1       0.961   9.106  20.138  0.00  0.00    +0.000 A 
ATOM     11  C   UNL     1       1.529   9.136  18.872  0.00  0.00    +0.000 A 
ATOM     12  C   UNL     1       2.377   8.123  18.455  0.00  0.00    +0.000 A 
ATOM     13  O   UNL     1       1.278  10.129  17.969  0.00  0.00    +0.000 OA
ATOM     14  C   UNL     1       1.185  11.354  18.682  0.00  0.00    +0.000 C 
ATOM     15  C   UNL     1       0.143  11.286  19.793  0.00  0.00    +0.000 C 
ATOM     16  O   UNL     1       0.213  10.131  20.641  0.00  0.00    +0.000 OA
ENDBRANCH   5   7
BRANCH   1  17
ATOM     17  S   UNL     1       6.713   5.646  16.495  0.00  0.00    +0.000 S 
ATOM     18  O   UNL     1       7.767   4.687  16.743  0.00  0.00    +0.000 OA
ATOM     19  O   UNL     1       6.874   7.059  16.793  0.00  0.00    +0.000 OA
BRANCH  17  20
ATOM     20  N   UNL     1       6.206   5.514  14.892  0.00  0.00    +0.000 NA
ATOM     21  H   UNL     1       5.208   5.683  14.767  0.00  0.00    +0.000 HD
BRANCH  20  23
ATOM     22  C   UNL     1       5.727   3.691  13.259  0.00  0.00    +0.000 C 
ATOM     23  C   UNL     1       6.788   4.482  14.007  0.00  0.00    +0.000 C 
ATOM     24  C   UNL     1       7.711   5.178  13.004  0.00  0.00    +0.000 C 
ENDBRANCH  20  23
ENDBRANCH  17  20
ENDBRANCH   1  17
BRANCH   3  25
ATOM     25  C   UNL     1       2.916   2.198  17.851  0.00  0.00    +0.000 C 
ATOM     26  O   UNL     1       1.726   2.065  17.622  0.00  0.00    +0.000 OA
BRANCH  25  27
ATOM     27  O   UNL     1       3.750   1.156  18.035  0.00  0.00    +0.000 OA
ATOM     28  H   UNL     1       3.409   0.416  18.569  0.00  0.00    +0.000 HD
ENDBRANCH  25  27
ENDBRANCH   3  25
TORSDOF 6
ENDMDL
MODEL 8
REMARK VINA RESULT:      -8.6      1.694      2.255
REMARK  Name = 
REMARK  8 active torsions:
REMARK  status: ('A' for Active; 'I' for Inactive)
REMARK    1  A    between atoms: C_1  and  C_2
REMARK    2  A    between atoms: C_2  and  C_3
REMARK    3  A    between atoms: C_2  and  N_4
REMARK    4  A    between atoms: N_4  and  S_5
REMARK    5  A    between atoms: S_5  and  C_8
REMARK    6  A    between atoms: C_10  and  C_11
REMARK    7  A    between atoms: C_11  and  O_13
REMARK    8  A    between atoms: C_15  and  C_16
REMARK                            x       y       z     vdW  Elec       q    Type
REMARK                         _______ _______ _______ _____ _____    ______ ____
ROOT
ATOM      1  C   UNL     1       5.407   5.271  17.730  0.00  0.00    +0.000 A 
ATOM      2  C   UNL     1       4.896   3.979  17.659  0.00  0.00    +0.000 A 
ATOM      3  C   UNL     1       3.559   3.761  18.027  0.00  0.00    +0.000 A 
ATOM      4  C   UNL     1       2.743   4.844  18.410  0.00  0.00    +0.000 A 
ATOM      5  C   UNL     1       3.253   6.151  18.447  0.00  0.00    +0.000 A 
ATOM      6  C   UNL     1       4.611   6.326  18.156  0.00  0.00    +0.000 A 
ENDROOT
BRANCH   5   7
ATOM      7  C   UNL     1       2.428   7.351  18.672  0.00  0.00    +0.000 A 
ATOM      8  C   UNL     1       2.237   8.327  17.679  0.00  0.00    +0.000 A 
ATOM      9  C   UNL     1       1.566   9.524  17.968  0.00  0.00    +0.000 A 
ATOM     10  C   UNL     1       1.086   9.764  19.254  0.00  0.00    +0.000 A 
ATOM     11  C   UNL     1       1.321   8.828  20.252  0.00  0.00    +0.000 A 
ATOM     12  C   UNL     1       1.940   7.625  19.960  0.00  0.00    +0.000 A 
ATOM     13  O   UNL     1       0.983   9.038  21.558  0.00  0.00    +0.000 OA
ATOM     14  C   UNL     1      -0.252   9.738  21.584  0.00  0.00    +0.000 C 
ATOM     15  C   UNL     1      -0.189  11.029  20.774  0.00  0.00    +0.000 C 
ATOM     16  O   UNL     1       0.380  10.912  19.462  0.00  0.00    +0.000 OA
ENDBRANCH   5   7
BRANCH   1  17
ATOM     17  S   UNL     1       7.034   5.690  17.165  0.00  0.00    +0.000 S 
ATOM     18  O   UNL     1       7.974   5.311  18.198  0.00  0.00    +0.000 OA
ATOM     19  O   UNL     1       6.945   7.052  16.668  0.00  0.00    +0.000 OA
BRANCH  17  20
ATOM     20  N   UNL     1       7.226   4.669  15.836  0.00  0.00    +0.000 NA
ATOM     21  H   UNL     1       8.132   4.203  15.809  0.00  0.00    +0.000 HD
BRANCH  20  23
ATOM     22  C   UNL     1       7.743   5.186  13.452  0.00  0.00    +0.000 C 
ATOM     23  C   UNL     1       6.669   5.047  14.519  0.00  0.00    +0.000 C 
ATOM     24  C   UNL     1       5.666   3.971  14.098  0.00  0.00    +0.000 C 
ENDBRANCH  20  23
ENDBRANCH  17  20
ENDBRANCH   1  17
BRANCH   3  25
ATOM     25  C   UNL     1       2.921   2.423  17.910  0.00  0.00    +0.000 C 
ATOM     26  O   UNL     1       3.569   1.390  17.887  0.00  0.00    +0.000 OA
BRANCH  25  27
ATOM     27  O   UNL     1       1.576   2.449  17.824  0.00  0.00    +0.000 OA
ATOM     28  H   UNL     1       1.102   2.875  18.560  0.00  0.00    +0.000 HD
ENDBRANCH  25  27
ENDBRANCH   3  25
TORSDOF 6
ENDMDL
MODEL 9
REMARK VINA RESULT:      -8.6      1.553      1.970
REMARK  Name = 
REMARK  8 active torsions:
REMARK  status: ('A' for Active; 'I' for Inactive)
REMARK    1  A    between atoms: C_1  and  C_2
REMARK    2  A    between atoms: C_2  and  C_3
REMARK    3  A    between atoms: C_2  and  N_4
REMARK    4  A    between atoms: N_4  and  S_5
REMARK    5  A    between atoms: S_5  and  C_8
REMARK    6  A    between atoms: C_10  and  C_11
REMARK    7  A    between atoms: C_11  and  O_13
REMARK    8  A    between atoms: C_15  and  C_16
REMARK                            x       y       z     vdW  Elec       q    Type
REMARK                         _______ _______ _______ _____ _____    ______ ____
ROOT
ATOM      1  C   UNL     1       3.802   5.098  18.501  0.00  0.00    +0.000 A 
ATOM      2  C   UNL     1       3.429   4.018  19.295  0.00  0.00    +0.000 A 
ATOM      3  C   UNL     1       2.548   4.239  20.365  0.00  0.00    +0.000 A 
ATOM      4  C   UNL     1       2.015   5.524  20.592  0.00  0.00    +0.000 A 
ATOM      5  C   UNL     1       2.367   6.604  19.767  0.00  0.00    +0.000 A 
ATOM      6  C   UNL     1       3.312   6.371  18.762  0.00  0.00    +0.000 A 
ENDROOT
BRANCH   5   7
ATOM      7  C   UNL     1       1.731   7.931  19.832  0.00  0.00    +0.000 A 
ATOM      8  C   UNL     1       1.682   8.795  18.725  0.00  0.00    +0.000 A 
ATOM      9  C   UNL     1       1.198  10.105  18.855  0.00  0.00    +0.000 A 
ATOM     10  C   UNL     1       0.766  10.570  20.095  0.00  0.00    +0.000 A 
ATOM     11  C   UNL     1       0.863   9.740  21.203  0.00  0.00    +0.000 A 
ATOM     12  C   UNL     1       1.296   8.431  21.070  0.00  0.00    +0.000 A 
ATOM     13  O   UNL     1       0.567  10.158  22.470  0.00  0.00    +0.000 OA
ATOM     14  C   UNL     1      -0.550  11.031  22.392  0.00  0.00    +0.000 C 
ATOM     15  C   UNL     1      -0.299  12.188  21.431  0.00  0.00    +0.000 C 
ATOM     16  O   UNL     1       0.239  11.827  20.151  0.00  0.00    +0.000 OA
ENDBRANCH   5   7
BRANCH   1  17
ATOM     17  S   UNL     1       4.798   4.918  17.047  0.00  0.00    +0.000 S 
ATOM     18  O   UNL     1       4.629   6.108  16.242  0.00  0.00    +0.000 OA
ATOM     19  O   UNL     1       4.511   3.591  16.529  0.00  0.00    +0.000 OA
BRANCH  17  20
ATOM     20  N   UNL     1       6.360   4.893  17.683  0.00  0.00    +0.000 NA
ATOM     21  H   UNL     1       6.641   3.979  18.037  0.00  0.00    +0.000 HD
BRANCH  20  23
ATOM     22  C   UNL     1       7.869   5.644  19.522  0.00  0.00    +0.000 C 
ATOM     23  C   UNL     1       6.873   6.051  18.447  0.00  0.00    +0.000 C 
ATOM     24  C   UNL     1       7.546   7.012  17.465  0.00  0.00    +0.000 C 
ENDBRANCH  20  23
ENDBRANCH  17  20
ENDBRANCH   1  17
BRANCH   3  25
ATOM     25  C   UNL     1       2.047   3.125  21.214  0.00  0.00    +0.000 C 
ATOM     26  O   UNL     1       2.761   2.541  22.011  0.00  0.00    +0.000 OA
BRANCH  25  27
ATOM     27  O   UNL     1       0.750   2.813  21.023  0.00  0.00    +0.000 OA
ATOM     28  H   UNL     1       0.158   3.548  20.781  0.00  0.00    +0.000 HD
ENDBRANCH  25  27
ENDBRANCH   3  25
TORSDOF 6
ENDMDL
