MODEL 1
REMARK VINA RESULT:      -6.5      0.000      0.000
REMARK  Name = 
REMARK  6 active torsions:
REMARK  status: ('A' for Active; 'I' for Inactive)
REMARK    1  A    between atoms: C_1  and  C_2
REMARK    2  A    between atoms: C_2  and  N_3
REMARK    3  A    between atoms: C_14  and  C_15
REMARK    4  A    between atoms: C_15  and  O_16
REMARK    5  A    between atoms: C_18  and  O_19
REMARK    6  A    between atoms: O_19  and  C_20
REMARK                            x       y       z     vdW  Elec       q    Type
REMARK                         _______ _______ _______ _____ _____    ______ ____
ROOT
ATOM      1  N   UNL     1       5.398   5.599  16.704  0.00  0.00    +0.000 N 
ATOM      2  C   UNL     1       6.343   6.494  17.212  0.00  0.00    +0.000 A 
ATOM      3  N   UNL     1       6.218   7.815  16.907  0.00  0.00    +0.000 NA
ATOM      4  C   UNL     1       7.091   8.694  17.451  0.00  0.00    +0.000 A 
ATOM      5  C   UNL     1       8.156   8.324  18.249  0.00  0.00    +0.000 A 
ATOM      6  C   UNL     1       8.312   6.974  18.520  0.00  0.00    +0.000 A 
ATOM      7  C   UNL     1       7.374   6.058  18.028  0.00  0.00    +0.000 A 
ATOM      8  C   UNL     1       7.544   4.656  18.415  0.00  0.00    +0.000 C 
ATOM      9  O   UNL     1       8.678   4.185  18.486  0.00  0.00    +0.000 OA
ATOM     10  N   UNL     1       6.471   3.958  18.894  0.00  0.00    +0.000 N 
ATOM     11  C   UNL     1       5.100   4.045  18.584  0.00  0.00    +0.000 A 
ATOM     12  C   UNL     1       4.217   3.237  19.345  0.00  0.00    +0.000 A 
ATOM     13  C   UNL     1       2.866   3.214  18.986  0.00  0.00    +0.000 A 
ATOM     14  C   UNL     1       2.461   3.920  17.870  0.00  0.00    +0.000 A 
ATOM     15  N   UNL     1       3.289   4.656  17.118  0.00  0.00    +0.000 NA
ATOM     16  C   UNL     1       4.594   4.758  17.479  0.00  0.00    +0.000 A 
ATOM     17  H   UNL     1       6.742   3.186  19.503  0.00  0.00    +0.000 HD
ENDROOT
BRANCH   1  19
ATOM     18  C   UNL     1       5.871   4.618  14.538  0.00  0.00    +0.000 C 
ATOM     19  C   UNL     1       5.100   5.713  15.277  0.00  0.00    +0.000 C 
ENDBRANCH   1  19
BRANCH  14  20
ATOM     20  O   UNL     1       1.123   3.833  17.541  0.00  0.00    +0.000 OA
ATOM     21  C   UNL     1       0.379   3.047  18.471  0.00  0.00    +0.000 C 
ENDBRANCH  14  20
BRANCH  12  22
ATOM     22  C   UNL     1       4.628   2.465  20.573  0.00  0.00    +0.000 C 
BRANCH  22  23
ATOM     23  O   UNL     1       5.385   1.303  20.250  0.00  0.00    +0.000 OA
ATOM     24  H   UNL     1       6.297   1.600  20.075  0.00  0.00    +0.000 HD
ENDBRANCH  22  23
ENDBRANCH  12  22
TORSDOF 4
ENDMDL
MODEL 2
REMARK VINA RESULT:      -6.2      8.396     10.011
REMARK  Name = 
REMARK  6 active torsions:
REMARK  status: ('A' for Active; 'I' for Inactive)
REMARK    1  A    between atoms: C_1  and  C_2
REMARK    2  A    between atoms: C_2  and  N_3
REMARK    3  A    between atoms: C_14  and  C_15
REMARK    4  A    between atoms: C_15  and  O_16
REMARK    5  A    between atoms: C_18  and  O_19
REMARK    6  A    between atoms: O_19  and  C_20
REMARK                            x       y       z     vdW  Elec       q    Type
REMARK                         _______ _______ _______ _____ _____    ______ ____
ROOT
ATOM      1  N   UNL     1      -1.252  11.608  19.992  0.00  0.00    +0.000 N 
ATOM      2  C   UNL     1      -0.432  10.599  20.503  0.00  0.00    +0.000 A 
ATOM      3  N   UNL     1      -0.445  10.367  21.844  0.00  0.00    +0.000 NA
ATOM      4  C   UNL     1       0.295   9.347  22.335  0.00  0.00    +0.000 A 
ATOM      5  C   UNL     1       1.130   8.562  21.563  0.00  0.00    +0.000 A 
ATOM      6  C   UNL     1       1.181   8.831  20.205  0.00  0.00    +0.000 A 
ATOM      7  C   UNL     1       0.364   9.833  19.667  0.00  0.00    +0.000 A 
ATOM      8  C   UNL     1       0.400  10.016  18.215  0.00  0.00    +0.000 C 
ATOM      9  O   UNL     1       1.471   9.906  17.621  0.00  0.00    +0.000 OA
ATOM     10  N   UNL     1      -0.775  10.092  17.519  0.00  0.00    +0.000 N 
ATOM     11  C   UNL     1      -2.029  10.618  17.882  0.00  0.00    +0.000 A 
ATOM     12  C   UNL     1      -3.090  10.448  16.955  0.00  0.00    +0.000 A 
ATOM     13  C   UNL     1      -4.316  11.059  17.232  0.00  0.00    +0.000 A 
ATOM     14  C   UNL     1      -4.425  11.854  18.356  0.00  0.00    +0.000 A 
ATOM     15  N   UNL     1      -3.423  12.056  19.221  0.00  0.00    +0.000 NA
ATOM     16  C   UNL     1      -2.239  11.422  19.020  0.00  0.00    +0.000 A 
ATOM     17  H   UNL     1      -0.676   9.803  16.546  0.00  0.00    +0.000 HD
ENDROOT
BRANCH   1  19
ATOM     18  C   UNL     1      -0.165  13.775  19.974  0.00  0.00    +0.000 C 
ATOM     19  C   UNL     1      -1.199  12.897  20.681  0.00  0.00    +0.000 C 
ENDBRANCH   1  19
BRANCH  14  20
ATOM     20  O   UNL     1      -5.648  12.461  18.563  0.00  0.00    +0.000 OA
ATOM     21  C   UNL     1      -6.743  11.640  18.155  0.00  0.00    +0.000 C 
ENDBRANCH  14  20
BRANCH  12  22
ATOM     22  C   UNL     1      -3.003   9.579  15.726  0.00  0.00    +0.000 C 
BRANCH  22  23
ATOM     23  O   UNL     1      -2.503  10.288  14.598  0.00  0.00    +0.000 OA
ATOM     24  H   UNL     1      -2.697  11.231  14.749  0.00  0.00    +0.000 HD
ENDBRANCH  22  23
ENDBRANCH  12  22
TORSDOF 4
ENDMDL
MODEL 3
REMARK VINA RESULT:      -5.9     10.635     12.884
REMARK  Name = 
REMARK  6 active torsions:
REMARK  status: ('A' for Active; 'I' for Inactive)
REMARK    1  A    between atoms: C_1  and  C_2
REMARK    2  A    between atoms: C_2  and  N_3
REMARK    3  A    between atoms: C_14  and  C_15
REMARK    4  A    between atoms: C_15  and  O_16
REMARK    5  A    between atoms: C_18  and  O_19
REMARK    6  A    between atoms: O_19  and  C_20
REMARK                            x       y       z     vdW  Elec       q    Type
REMARK                         _______ _______ _______ _____ _____    ______ ____
ROOT
ATOM      1  N   UNL     1      -5.531  12.146  18.300  0.00  0.00    +0.000 N 
ATOM      2  C   UNL     1      -6.116  12.161  19.569  0.00  0.00    +0.000 A 
ATOM      3  N   UNL     1      -7.314  11.539  19.741  0.00  0.00    +0.000 NA
ATOM      4  C   UNL     1      -7.851  11.493  20.982  0.00  0.00    +0.000 A 
ATOM      5  C   UNL     1      -7.290  12.106  22.085  0.00  0.00    +0.000 A 
ATOM      6  C   UNL     1      -6.094  12.781  21.900  0.00  0.00    +0.000 A 
ATOM      7  C   UNL     1      -5.485  12.775  20.639  0.00  0.00    +0.000 A 
ATOM      8  C   UNL     1      -4.183  13.434  20.523  0.00  0.00    +0.000 C 
ATOM      9  O   UNL     1      -3.979  14.476  21.145  0.00  0.00    +0.000 OA
ATOM     10  N   UNL     1      -3.153  12.782  19.906  0.00  0.00    +0.000 N 
ATOM     11  C   UNL     1      -3.149  11.867  18.836  0.00  0.00    +0.000 A 
ATOM     12  C   UNL     1      -1.903  11.283  18.493  0.00  0.00    +0.000 A 
ATOM     13  C   UNL     1      -1.844  10.461  17.364  0.00  0.00    +0.000 A 
ATOM     14  C   UNL     1      -2.980  10.307  16.593  0.00  0.00    +0.000 A 
ATOM     15  N   UNL     1      -4.154  10.883  16.880  0.00  0.00    +0.000 NA
ATOM     16  C   UNL     1      -4.265  11.630  18.008  0.00  0.00    +0.000 A 
ATOM     17  H   UNL     1      -2.237  13.098  20.225  0.00  0.00    +0.000 HD
ENDROOT
BRANCH   1  19
ATOM     18  C   UNL     1      -6.692  14.009  17.270  0.00  0.00    +0.000 C 
ATOM     19  C   UNL     1      -6.401  12.509  17.182  0.00  0.00    +0.000 C 
ENDBRANCH   1  19
BRANCH  14  20
ATOM     20  O   UNL     1      -2.856   9.513  15.470  0.00  0.00    +0.000 OA
ATOM     21  C   UNL     1      -3.436  10.110  14.310  0.00  0.00    +0.000 C 
ENDBRANCH  14  20
BRANCH  12  22
ATOM     22  C   UNL     1      -0.651  11.425  19.321  0.00  0.00    +0.000 C 
BRANCH  22  23
ATOM     23  O   UNL     1      -0.187  12.769  19.371  0.00  0.00    +0.000 OA
ATOM     24  H   UNL     1       0.130  12.925  20.280  0.00  0.00    +0.000 HD
ENDBRANCH  22  23
ENDBRANCH  12  22
TORSDOF 4
ENDMDL
MODEL 4
REMARK VINA RESULT:      -5.9      8.268      9.797
REMARK  Name = 
REMARK  6 active torsions:
REMARK  status: ('A' for Active; 'I' for Inactive)
REMARK    1  A    between atoms: C_1  and  C_2
REMARK    2  A    between atoms: C_2  and  N_3
REMARK    3  A    between atoms: C_14  and  C_15
REMARK    4  A    between atoms: C_15  and  O_16
REMARK    5  A    between atoms: C_18  and  O_19
REMARK    6  A    between atoms: O_19  and  C_20
REMARK                            x       y       z     vdW  Elec       q    Type
REMARK                         _______ _______ _______ _____ _____    ______ ____
ROOT
ATOM      1  N   UNL     1      -0.442  11.555  20.337  0.00  0.00    +0.000 N 
ATOM      2  C   UNL     1       0.305  10.426  20.678  0.00  0.00    +0.000 A 
ATOM      3  N   UNL     1       0.458  10.120  21.995  0.00  0.00    +0.000 NA
ATOM      4  C   UNL     1       1.124   8.990  22.328  0.00  0.00    +0.000 A 
ATOM      5  C   UNL     1       1.727   8.155  21.408  0.00  0.00    +0.000 A 
ATOM      6  C   UNL     1       1.614   8.492  20.069  0.00  0.00    +0.000 A 
ATOM      7  C   UNL     1       0.863   9.616  19.701  0.00  0.00    +0.000 A 
ATOM      8  C   UNL     1       0.710   9.876  18.269  0.00  0.00    +0.000 C 
ATOM      9  O   UNL     1       1.659   9.671  17.515  0.00  0.00    +0.000 OA
ATOM     10  N   UNL     1      -0.534  10.136  17.764  0.00  0.00    +0.000 N 
ATOM     11  C   UNL     1      -1.643  10.791  18.333  0.00  0.00    +0.000 A 
ATOM     12  C   UNL     1      -2.840  10.805  17.573  0.00  0.00    +0.000 A 
ATOM     13  C   UNL     1      -3.923  11.545  18.058  0.00  0.00    +0.000 A 
ATOM     14  C   UNL     1      -3.762  12.281  19.215  0.00  0.00    +0.000 A 
ATOM     15  N   UNL     1      -2.626  12.309  19.923  0.00  0.00    +0.000 NA
ATOM     16  C   UNL     1      -1.577  11.547  19.520  0.00  0.00    +0.000 A 
ATOM     17  H   UNL     1      -0.617   9.894  16.777  0.00  0.00    +0.000 HD
ENDROOT
BRANCH   1  19
ATOM     18  C   UNL     1       1.057  13.460  20.355  0.00  0.00    +0.000 C 
ATOM     19  C   UNL     1      -0.122  12.786  21.058  0.00  0.00    +0.000 C 
ENDBRANCH   1  19
BRANCH  14  20
ATOM     20  O   UNL     1      -4.853  13.021  19.629  0.00  0.00    +0.000 OA
ATOM     21  C   UNL     1      -4.550  13.871  20.735  0.00  0.00    +0.000 C 
ENDBRANCH  14  20
BRANCH  12  22
ATOM     22  C   UNL     1      -3.048  10.003  16.313  0.00  0.00    +0.000 C 
BRANCH  22  23
ATOM     23  O   UNL     1      -2.352  10.556  15.201  0.00  0.00    +0.000 OA
ATOM     24  H   UNL     1      -3.024  10.944  14.612  0.00  0.00    +0.000 HD
ENDBRANCH  22  23
ENDBRANCH  12  22
TORSDOF 4
ENDMDL
MODEL 5
REMARK VINA RESULT:      -5.7      9.526     11.041
REMARK  Name = 
REMARK  6 active torsions:
REMARK  status: ('A' for Active; 'I' for Inactive)
REMARK    1  A    between atoms: C_1  and  C_2
REMARK    2  A    between atoms: C_2  and  N_3
REMARK    3  A    between atoms: C_14  and  C_15
REMARK    4  A    between atoms: C_15  and  O_16
REMARK    5  A    between atoms: C_18  and  O_19
REMARK    6  A    between atoms: O_19  and  C_20
REMARK                            x       y       z     vdW  Elec       q    Type
REMARK                         _______ _______ _______ _____ _____    ______ ____
ROOT
ATOM      1  N   UNL     1      -1.695  12.263  21.524  0.00  0.00    +0.000 N 
ATOM      2  C   UNL     1      -0.811  11.221  21.809  0.00  0.00    +0.000 A 
ATOM      3  N   UNL     1      -0.802  10.700  23.067  0.00  0.00    +0.000 NA
ATOM      4  C   UNL     1       0.004   9.646  23.329  0.00  0.00    +0.000 A 
ATOM      5  C   UNL     1       0.881   9.102  22.411  0.00  0.00    +0.000 A 
ATOM      6  C   UNL     1       0.908   9.664  21.145  0.00  0.00    +0.000 A 
ATOM      7  C   UNL     1       0.026  10.706  20.832  0.00  0.00    +0.000 A 
ATOM      8  C   UNL     1       0.042  11.204  19.456  0.00  0.00    +0.000 C 
ATOM      9  O   UNL     1       1.115  11.294  18.861  0.00  0.00    +0.000 OA
ATOM     10  N   UNL     1      -1.139  11.357  18.784  0.00  0.00    +0.000 N 
ATOM     11  C   UNL     1      -2.422  11.712  19.243  0.00  0.00    +0.000 A 
ATOM     12  C   UNL     1      -3.475  11.682  18.292  0.00  0.00    +0.000 A 
ATOM     13  C   UNL     1      -4.735  12.140  18.686  0.00  0.00    +0.000 A 
ATOM     14  C   UNL     1      -4.888  12.662  19.956  0.00  0.00    +0.000 A 
ATOM     15  N   UNL     1      -3.895  12.733  20.852  0.00  0.00    +0.000 NA
ATOM     16  C   UNL     1      -2.675  12.233  20.527  0.00  0.00    +0.000 A 
ATOM     17  H   UNL     1      -1.028  11.294  17.772  0.00  0.00    +0.000 HD
ENDROOT
BRANCH   1  19
ATOM     18  C   UNL     1      -0.433  14.180  22.305  0.00  0.00    +0.000 C 
ATOM     19  C   UNL     1      -1.720  13.371  22.478  0.00  0.00    +0.000 C 
ENDBRANCH   1  19
BRANCH  14  20
ATOM     20  O   UNL     1      -6.145  13.131  20.280  0.00  0.00    +0.000 OA
ATOM     21  C   UNL     1      -7.182  12.452  19.573  0.00  0.00    +0.000 C 
ENDBRANCH  14  20
BRANCH  12  22
ATOM     22  C   UNL     1      -3.340  11.109  16.904  0.00  0.00    +0.000 C 
BRANCH  22  23
ATOM     23  O   UNL     1      -2.234  11.660  16.198  0.00  0.00    +0.000 OA
ATOM     24  H   UNL     1      -1.429  11.278  16.592  0.00  0.00    +0.000 HD
ENDBRANCH  22  23
ENDBRANCH  12  22
TORSDOF 4
ENDMDL
MODEL 6
REMARK VINA RESULT:      -5.7      2.104      4.150
REMARK  Name = 
REMARK  6 active torsions:
REMARK  status: ('A' for Active; 'I' for Inactive)
REMARK    1  A    between atoms: C_1  and  C_2
REMARK    2  A    between atoms: C_2  and  N_3
REMARK    3  A    between atoms: C_14  and  C_15
REMARK    4  A    between atoms: C_15  and  O_16
REMARK    5  A    between atoms: C_18  and  O_19
REMARK    6  A    between atoms: O_19  and  C_20
REMARK                            x       y       z     vdW  Elec       q    Type
REMARK                         _______ _______ _______ _____ _____    ______ ____
ROOT
ATOM      1  N   UNL     1       6.018   4.617  18.537  0.00  0.00    +0.000 N 
ATOM      2  C   UNL     1       6.038   4.893  17.168  0.00  0.00    +0.000 A 
ATOM      3  N   UNL     1       7.010   4.323  16.404  0.00  0.00    +0.000 NA
ATOM      4  C   UNL     1       6.993   4.533  15.067  0.00  0.00    +0.000 A 
ATOM      5  C   UNL     1       6.084   5.356  14.430  0.00  0.00    +0.000 A 
ATOM      6  C   UNL     1       5.125   5.975  15.215  0.00  0.00    +0.000 A 
ATOM      7  C   UNL     1       5.079   5.709  16.589  0.00  0.00    +0.000 A 
ATOM      8  C   UNL     1       3.994   6.326  17.353  0.00  0.00    +0.000 C 
ATOM      9  O   UNL     1       3.641   7.472  17.078  0.00  0.00    +0.000 OA
ATOM     10  N   UNL     1       3.252   5.558  18.206  0.00  0.00    +0.000 N 
ATOM     11  C   UNL     1       3.609   4.445  18.991  0.00  0.00    +0.000 A 
ATOM     12  C   UNL     1       2.565   3.798  19.701  0.00  0.00    +0.000 A 
ATOM     13  C   UNL     1       2.902   2.763  20.578  0.00  0.00    +0.000 A 
ATOM     14  C   UNL     1       4.236   2.460  20.768  0.00  0.00    +0.000 A 
ATOM     15  N   UNL     1       5.236   3.086  20.136  0.00  0.00    +0.000 NA
ATOM     16  C   UNL     1       4.941   4.048  19.224  0.00  0.00    +0.000 A 
ATOM     17  H   UNL     1       2.315   5.930  18.359  0.00  0.00    +0.000 HD
ENDROOT
BRANCH   1  19
ATOM     18  C   UNL     1       7.828   6.161  19.004  0.00  0.00    +0.000 C 
ATOM     19  C   UNL     1       7.292   4.749  19.244  0.00  0.00    +0.000 C 
ENDBRANCH   1  19
BRANCH  14  20
ATOM     20  O   UNL     1       4.514   1.453  21.672  0.00  0.00    +0.000 OA
ATOM     21  C   UNL     1       5.614   0.639  21.264  0.00  0.00    +0.000 C 
ENDBRANCH  14  20
BRANCH  12  22
ATOM     22  C   UNL     1       1.101   4.101  19.506  0.00  0.00    +0.000 C 
BRANCH  22  23
ATOM     23  O   UNL     1       0.264   3.203  20.226  0.00  0.00    +0.000 OA
ATOM     24  H   UNL     1      -0.610   3.221  19.792  0.00  0.00    +0.000 HD
ENDBRANCH  22  23
ENDBRANCH  12  22
TORSDOF 4
ENDMDL
MODEL 7
REMARK VINA RESULT:      -5.7     11.229     12.865
REMARK  Name = 
REMARK  6 active torsions:
REMARK  status: ('A' for Active; 'I' for Inactive)
REMARK    1  A    between atoms: C_1  and  C_2
REMARK    2  A    between atoms: C_2  and  N_3
REMARK    3  A    between atoms: C_14  and  C_15
REMARK    4  A    between atoms: C_15  and  O_16
REMARK    5  A    between atoms: C_18  and  O_19
REMARK    6  A    between atoms: O_19  and  C_20
REMARK                            x       y       z     vdW  Elec       q    Type
REMARK                         _______ _______ _______ _____ _____    ______ ____
ROOT
ATOM      1  N   UNL     1      -1.813  12.502  22.365  0.00  0.00    +0.000 N 
ATOM      2  C   UNL     1      -1.942  13.457  23.375  0.00  0.00    +0.000 A 
ATOM      3  N   UNL     1      -0.920  14.334  23.576  0.00  0.00    +0.000 NA
ATOM      4  C   UNL     1      -1.069  15.304  24.508  0.00  0.00    +0.000 A 
ATOM      5  C   UNL     1      -2.175  15.419  25.328  0.00  0.00    +0.000 A 
ATOM      6  C   UNL     1      -3.194  14.496  25.157  0.00  0.00    +0.000 A 
ATOM      7  C   UNL     1      -3.091  13.532  24.146  0.00  0.00    +0.000 A 
ATOM      8  C   UNL     1      -4.234  12.637  23.959  0.00  0.00    +0.000 C 
ATOM      9  O   UNL     1      -4.847  12.229  24.944  0.00  0.00    +0.000 OA
ATOM     10  N   UNL     1      -4.732  12.439  22.701  0.00  0.00    +0.000 N 
ATOM     11  C   UNL     1      -4.091  12.413  21.448  0.00  0.00    +0.000 A 
ATOM     12  C   UNL     1      -4.920  12.284  20.304  0.00  0.00    +0.000 A 
ATOM     13  C   UNL     1      -4.308  12.139  19.056  0.00  0.00    +0.000 A 
ATOM     14  C   UNL     1      -2.931  12.058  18.994  0.00  0.00    +0.000 A 
ATOM     15  N   UNL     1      -2.135  12.138  20.068  0.00  0.00    +0.000 NA
ATOM     16  C   UNL     1      -2.692  12.350  21.289  0.00  0.00    +0.000 A 
ATOM     17  H   UNL     1      -5.716  12.171  22.704  0.00  0.00    +0.000 HD
ENDROOT
BRANCH   1  19
ATOM     18  C   UNL     1      -0.770  10.430  23.070  0.00  0.00    +0.000 C 
ATOM     19  C   UNL     1      -0.556  11.755  22.336  0.00  0.00    +0.000 C 
ENDBRANCH   1  19
BRANCH  14  20
ATOM     20  O   UNL     1      -2.381  11.879  17.740  0.00  0.00    +0.000 OA
ATOM     21  C   UNL     1      -3.242  11.152  16.864  0.00  0.00    +0.000 C 
ENDBRANCH  14  20
BRANCH  12  22
ATOM     22  C   UNL     1      -6.424  12.379  20.340  0.00  0.00    +0.000 C 
BRANCH  22  23
ATOM     23  O   UNL     1      -7.012  11.334  21.107  0.00  0.00    +0.000 OA
ATOM     24  H   UNL     1      -7.926  11.610  21.306  0.00  0.00    +0.000 HD
ENDBRANCH  22  23
ENDBRANCH  12  22
TORSDOF 4
ENDMDL
MODEL 8
REMARK VINA RESULT:      -5.6     10.325     12.114
REMARK  Name = 
REMARK  6 active torsions:
REMARK  status: ('A' for Active; 'I' for Inactive)
REMARK    1  A    between atoms: C_1  and  C_2
REMARK    2  A    between atoms: C_2  and  N_3
REMARK    3  A    between atoms: C_14  and  C_15
REMARK    4  A    between atoms: C_15  and  O_16
REMARK    5  A    between atoms: C_18  and  O_19
REMARK    6  A    between atoms: O_19  and  C_20
REMARK                            x       y       z     vdW  Elec       q    Type
REMARK                         _______ _______ _______ _____ _____    ______ ____
ROOT
ATOM      1  N   UNL     1      -1.923  12.246  19.622  0.00  0.00    +0.000 N 
ATOM      2  C   UNL     1      -2.042  13.388  20.416  0.00  0.00    +0.000 A 
ATOM      3  N   UNL     1      -1.032  14.301  20.399  0.00  0.00    +0.000 NA
ATOM      4  C   UNL     1      -1.173  15.441  21.114  0.00  0.00    +0.000 A 
ATOM      5  C   UNL     1      -2.259  15.709  21.926  0.00  0.00    +0.000 A 
ATOM      6  C   UNL     1      -3.265  14.758  21.981  0.00  0.00    +0.000 A 
ATOM      7  C   UNL     1      -3.172  13.607  21.189  0.00  0.00    +0.000 A 
ATOM      8  C   UNL     1      -4.302  12.678  21.226  0.00  0.00    +0.000 C 
ATOM      9  O   UNL     1      -4.880  12.476  22.293  0.00  0.00    +0.000 OA
ATOM     10  N   UNL     1      -4.831  12.217  20.053  0.00  0.00    +0.000 N 
ATOM     11  C   UNL     1      -4.223  11.939  18.813  0.00  0.00    +0.000 A 
ATOM     12  C   UNL     1      -5.080  11.566  17.747  0.00  0.00    +0.000 A 
ATOM     13  C   UNL     1      -4.500  11.172  16.537  0.00  0.00    +0.000 A 
ATOM     14  C   UNL     1      -3.124  11.098  16.452  0.00  0.00    +0.000 A 
ATOM     15  N   UNL     1      -2.301  11.409  17.462  0.00  0.00    +0.000 NA
ATOM     16  C   UNL     1      -2.828  11.863  18.628  0.00  0.00    +0.000 A 
ATOM     17  H   UNL     1      -5.809  11.944  20.141  0.00  0.00    +0.000 HD
ENDROOT
BRANCH   1  19
ATOM     18  C   UNL     1      -0.613  10.790  21.051  0.00  0.00    +0.000 C 
ATOM     19  C   UNL     1      -0.654  11.525  19.710  0.00  0.00    +0.000 C 
ENDBRANCH   1  19
BRANCH  14  20
ATOM     20  O   UNL     1      -2.605  10.669  15.246  0.00  0.00    +0.000 OA
ATOM     21  C   UNL     1      -3.603  10.122  14.385  0.00  0.00    +0.000 C 
ENDBRANCH  14  20
BRANCH  12  22
ATOM     22  C   UNL     1      -6.585  11.647  17.807  0.00  0.00    +0.000 C 
BRANCH  22  23
ATOM     23  O   UNL     1      -7.149  10.610  18.603  0.00  0.00    +0.000 OA
ATOM     24  H   UNL     1      -7.348  11.000  19.475  0.00  0.00    +0.000 HD
ENDBRANCH  22  23
ENDBRANCH  12  22
TORSDOF 4
ENDMDL
MODEL 9
REMARK VINA RESULT:      -5.6      8.165      9.640
REMARK  Name = 
REMARK  6 active torsions:
REMARK  status: ('A' for Active; 'I' for Inactive)
REMARK    1  A    between atoms: C_1  and  C_2
REMARK    2  A    between atoms: C_2  and  N_3
REMARK    3  A    between atoms: C_14  and  C_15
REMARK    4  A    between atoms: C_15  and  O_16
REMARK    5  A    between atoms: C_18  and  O_19
REMARK    6  A    between atoms: O_19  and  C_20
REMARK                            x       y       z     vdW  Elec       q    Type
REMARK                         _______ _______ _______ _____ _____    ______ ____
ROOT
ATOM      1  N   UNL     1       0.465  10.851  18.613  0.00  0.00    +0.000 N 
ATOM      2  C   UNL     1       1.245  11.958  18.954  0.00  0.00    +0.000 A 
ATOM      3  N   UNL     1       2.289  12.293  18.148  0.00  0.00    +0.000 NA
ATOM      4  C   UNL     1       3.004  13.404  18.437  0.00  0.00    +0.000 A 
ATOM      5  C   UNL     1       2.786  14.190  19.552  0.00  0.00    +0.000 A 
ATOM      6  C   UNL     1       1.754  13.821  20.400  0.00  0.00    +0.000 A 
ATOM      7  C   UNL     1       0.954  12.718  20.076  0.00  0.00    +0.000 A 
ATOM      8  C   UNL     1      -0.171  12.426  20.965  0.00  0.00    +0.000 C 
ATOM      9  O   UNL     1      -0.034  12.574  22.179  0.00  0.00    +0.000 OA
ATOM     10  N   UNL     1      -1.409  12.202  20.430  0.00  0.00    +0.000 N 
ATOM     11  C   UNL     1      -1.794  11.608  19.213  0.00  0.00    +0.000 A 
ATOM     12  C   UNL     1      -3.178  11.620  18.901  0.00  0.00    +0.000 A 
ATOM     13  C   UNL     1      -3.606  10.937  17.759  0.00  0.00    +0.000 A 
ATOM     14  C   UNL     1      -2.679  10.226  17.022  0.00  0.00    +0.000 A 
ATOM     15  N   UNL     1      -1.376  10.172  17.324  0.00  0.00    +0.000 NA
ATOM     16  C   UNL     1      -0.914  10.881  18.387  0.00  0.00    +0.000 A 
ATOM     17  H   UNL     1      -2.165  12.421  21.078  0.00  0.00    +0.000 HD
ENDROOT
BRANCH   1  19
ATOM     18  C   UNL     1       1.435   8.841  19.562  0.00  0.00    +0.000 C 
ATOM     19  C   UNL     1       1.191   9.627  18.273  0.00  0.00    +0.000 C 
ENDBRANCH   1  19
BRANCH  14  20
ATOM     20  O   UNL     1      -3.162   9.542  15.924  0.00  0.00    +0.000 OA
ATOM     21  C   UNL     1      -3.172  10.341  14.741  0.00  0.00    +0.000 C 
ENDBRANCH  14  20
BRANCH  12  22
ATOM     22  C   UNL     1      -4.210  12.395  19.680  0.00  0.00    +0.000 C 
BRANCH  22  23
ATOM     23  O   UNL     1      -5.024  13.206  18.839  0.00  0.00    +0.000 OA
ATOM     24  H   UNL     1      -4.644  13.152  17.943  0.00  0.00    +0.000 HD
ENDBRANCH  22  23
ENDBRANCH  12  22
TORSDOF 4
ENDMDL
