MODEL 1
REMARK VINA RESULT:      -7.5      0.000      0.000
REMARK  Name = 
REMARK  5 active torsions:
REMARK  status: ('A' for Active; 'I' for Inactive)
REMARK    1  A    between atoms: C_1  and  O_2
REMARK    2  A    between atoms: O_2  and  C_3
REMARK    3  A    between atoms: C_3  and  C_4
REMARK    4  A    between atoms: C_13  and  C_15
REMARK    5  A    between atoms: C_19  and  C_20
REMARK                            x       y       z     vdW  Elec       q    Type
REMARK                         _______ _______ _______ _____ _____    ______ ____
ROOT
ATOM      1  C   UNL     1       1.425   8.495  20.465  0.00  0.00    +0.000 A 
ATOM      2  C   UNL     1       1.452   9.652  19.688  0.00  0.00    +0.000 A 
ATOM      3  N   UNL     1       1.803   9.696  18.385  0.00  0.00    +0.000 NA
ATOM      4  C   UNL     1       2.214   8.537  17.835  0.00  0.00    +0.000 A 
ATOM      5  C   UNL     1       2.239   7.321  18.509  0.00  0.00    +0.000 A 
ATOM      6  C   UNL     1       1.782   7.286  19.840  0.00  0.00    +0.000 A 
ATOM      7  C   UNL     1       1.757   5.959  20.576  0.00  0.00    +0.000 C 
ATOM      8  C   UNL     1       1.766   4.781  19.597  0.00  0.00    +0.000 C 
ATOM      9  N   UNL     1       2.877   4.926  18.667  0.00  0.00    +0.000 N 
ATOM     10  C   UNL     1       4.049   4.204  18.919  0.00  0.00    +0.000 C 
ATOM     11  O   UNL     1       4.186   3.468  19.897  0.00  0.00    +0.000 OA
ATOM     12  C   UNL     1       2.779   6.107  17.805  0.00  0.00    +0.000 C 
ENDROOT
BRANCH  10  13
ATOM     13  C   UNL     1       5.197   4.324  17.979  0.00  0.00    +0.000 A 
ATOM     14  C   UNL     1       6.405   4.852  18.453  0.00  0.00    +0.000 A 
ATOM     15  C   UNL     1       7.475   5.046  17.576  0.00  0.00    +0.000 A 
ATOM     16  C   UNL     1       7.337   4.727  16.224  0.00  0.00    +0.000 A 
ATOM     17  C   UNL     1       6.145   4.164  15.755  0.00  0.00    +0.000 A 
ATOM     18  C   UNL     1       5.094   3.920  16.644  0.00  0.00    +0.000 A 
BRANCH  17  19
ATOM     19  C   UNL     1       5.971   3.881  14.362  0.00  0.00    +0.000 C 
ATOM     20  N   UNL     1       5.865   3.681  13.223  0.00  0.00    +0.000 NA
ENDBRANCH  17  19
ENDBRANCH  10  13
BRANCH   1  21
ATOM     21  C   UNL     1       1.065   8.594  21.922  0.00  0.00    +0.000 C 
BRANCH  21  23
ATOM     22  C   UNL     1      -0.421  10.033  23.039  0.00  0.00    +0.000 C 
ATOM     23  O   UNL     1       0.731   9.944  22.215  0.00  0.00    +0.000 OA
ENDBRANCH  21  23
ENDBRANCH   1  21
TORSDOF 4
ENDMDL
MODEL 2
REMARK VINA RESULT:      -7.0      2.292      7.486
REMARK  Name = 
REMARK  5 active torsions:
REMARK  status: ('A' for Active; 'I' for Inactive)
REMARK    1  A    between atoms: C_1  and  O_2
REMARK    2  A    between atoms: O_2  and  C_3
REMARK    3  A    between atoms: C_3  and  C_4
REMARK    4  A    between atoms: C_13  and  C_15
REMARK    5  A    between atoms: C_19  and  C_20
REMARK                            x       y       z     vdW  Elec       q    Type
REMARK                         _______ _______ _______ _____ _____    ______ ____
ROOT
ATOM      1  C   UNL     1       6.294   4.541  15.880  0.00  0.00    +0.000 A 
ATOM      2  C   UNL     1       7.253   5.519  15.617  0.00  0.00    +0.000 A 
ATOM      3  N   UNL     1       7.477   6.603  16.389  0.00  0.00    +0.000 NA
ATOM      4  C   UNL     1       6.663   6.764  17.449  0.00  0.00    +0.000 A 
ATOM      5  C   UNL     1       5.667   5.862  17.810  0.00  0.00    +0.000 A 
ATOM      6  C   UNL     1       5.513   4.694  17.039  0.00  0.00    +0.000 A 
ATOM      7  C   UNL     1       4.463   3.677  17.446  0.00  0.00    +0.000 C 
ATOM      8  C   UNL     1       4.070   3.841  18.917  0.00  0.00    +0.000 C 
ATOM      9  N   UNL     1       3.688   5.224  19.170  0.00  0.00    +0.000 N 
ATOM     10  C   UNL     1       2.326   5.542  19.187  0.00  0.00    +0.000 C 
ATOM     11  O   UNL     1       1.441   4.710  18.983  0.00  0.00    +0.000 OA
ATOM     12  C   UNL     1       4.779   6.184  18.981  0.00  0.00    +0.000 C 
ENDROOT
BRANCH  10  13
ATOM     13  C   UNL     1       1.907   6.944  19.454  0.00  0.00    +0.000 A 
ATOM     14  C   UNL     1       1.924   7.866  18.399  0.00  0.00    +0.000 A 
ATOM     15  C   UNL     1       1.607   9.206  18.636  0.00  0.00    +0.000 A 
ATOM     16  C   UNL     1       1.288   9.631  19.928  0.00  0.00    +0.000 A 
ATOM     17  C   UNL     1       1.233   8.706  20.976  0.00  0.00    +0.000 A 
ATOM     18  C   UNL     1       1.497   7.356  20.726  0.00  0.00    +0.000 A 
BRANCH  17  19
ATOM     19  C   UNL     1       0.959   9.135  22.314  0.00  0.00    +0.000 C 
ATOM     20  N   UNL     1       0.739   9.529  23.384  0.00  0.00    +0.000 NA
ENDBRANCH  17  19
ENDBRANCH  10  13
BRANCH   1  21
ATOM     21  C   UNL     1       6.110   3.409  14.907  0.00  0.00    +0.000 C 
BRANCH  21  23
ATOM     22  C   UNL     1       6.296   3.540  12.567  0.00  0.00    +0.000 C 
ATOM     23  O   UNL     1       5.547   3.927  13.709  0.00  0.00    +0.000 OA
ENDBRANCH  21  23
ENDBRANCH   1  21
TORSDOF 4
ENDMDL
MODEL 3
REMARK VINA RESULT:      -6.9      2.113      7.185
REMARK  Name = 
REMARK  5 active torsions:
REMARK  status: ('A' for Active; 'I' for Inactive)
REMARK    1  A    between atoms: C_1  and  O_2
REMARK    2  A    between atoms: O_2  and  C_3
REMARK    3  A    between atoms: C_3  and  C_4
REMARK    4  A    between atoms: C_13  and  C_15
REMARK    5  A    between atoms: C_19  and  C_20
REMARK                            x       y       z     vdW  Elec       q    Type
REMARK                         _______ _______ _______ _____ _____    ______ ____
ROOT
ATOM      1  C   UNL     1       6.242   4.374  15.601  0.00  0.00    +0.000 A 
ATOM      2  C   UNL     1       7.233   5.343  15.448  0.00  0.00    +0.000 A 
ATOM      3  N   UNL     1       7.516   6.303  16.353  0.00  0.00    +0.000 NA
ATOM      4  C   UNL     1       6.732   6.347  17.447  0.00  0.00    +0.000 A 
ATOM      5  C   UNL     1       5.709   5.442  17.708  0.00  0.00    +0.000 A 
ATOM      6  C   UNL     1       5.493   4.396  16.791  0.00  0.00    +0.000 A 
ATOM      7  C   UNL     1       4.413   3.371  17.084  0.00  0.00    +0.000 C 
ATOM      8  C   UNL     1       4.058   3.348  18.573  0.00  0.00    +0.000 C 
ATOM      9  N   UNL     1       3.736   4.697  19.021  0.00  0.00    +0.000 N 
ATOM     10  C   UNL     1       2.388   5.058  19.117  0.00  0.00    +0.000 C 
ATOM     11  O   UNL     1       1.467   4.294  18.825  0.00  0.00    +0.000 OA
ATOM     12  C   UNL     1       4.860   5.633  18.935  0.00  0.00    +0.000 C 
ENDROOT
BRANCH  10  13
ATOM     13  C   UNL     1       2.030   6.425  19.582  0.00  0.00    +0.000 A 
ATOM     14  C   UNL     1       1.474   6.580  20.858  0.00  0.00    +0.000 A 
ATOM     15  C   UNL     1       1.059   7.841  21.293  0.00  0.00    +0.000 A 
ATOM     16  C   UNL     1       1.185   8.947  20.449  0.00  0.00    +0.000 A 
ATOM     17  C   UNL     1       1.775   8.803  19.189  0.00  0.00    +0.000 A 
ATOM     18  C   UNL     1       2.239   7.550  18.777  0.00  0.00    +0.000 A 
BRANCH  17  19
ATOM     19  C   UNL     1       1.863   9.916  18.293  0.00  0.00    +0.000 C 
ATOM     20  N   UNL     1       1.966  10.794  17.539  0.00  0.00    +0.000 NA
ENDBRANCH  17  19
ENDBRANCH  10  13
BRANCH   1  21
ATOM     21  C   UNL     1       5.994   3.392  14.489  0.00  0.00    +0.000 C 
BRANCH  21  23
ATOM     22  C   UNL     1       5.960   3.253  12.142  0.00  0.00    +0.000 C 
ATOM     23  O   UNL     1       6.450   3.963  13.270  0.00  0.00    +0.000 OA
ENDBRANCH  21  23
ENDBRANCH   1  21
TORSDOF 4
ENDMDL
MODEL 4
REMARK VINA RESULT:      -6.8      2.874      7.164
REMARK  Name = 
REMARK  5 active torsions:
REMARK  status: ('A' for Active; 'I' for Inactive)
REMARK    1  A    between atoms: C_1  and  O_2
REMARK    2  A    between atoms: O_2  and  C_3
REMARK    3  A    between atoms: C_3  and  C_4
REMARK    4  A    between atoms: C_13  and  C_15
REMARK    5  A    between atoms: C_19  and  C_20
REMARK                            x       y       z     vdW  Elec       q    Type
REMARK                         _______ _______ _______ _____ _____    ______ ____
ROOT
ATOM      1  C   UNL     1       3.769   2.318  20.638  0.00  0.00    +0.000 A 
ATOM      2  C   UNL     1       2.869   1.938  21.634  0.00  0.00    +0.000 A 
ATOM      3  N   UNL     1       1.616   2.422  21.763  0.00  0.00    +0.000 NA
ATOM      4  C   UNL     1       1.252   3.386  20.897  0.00  0.00    +0.000 A 
ATOM      5  C   UNL     1       2.062   3.854  19.868  0.00  0.00    +0.000 A 
ATOM      6  C   UNL     1       3.331   3.268  19.698  0.00  0.00    +0.000 A 
ATOM      7  C   UNL     1       4.209   3.733  18.550  0.00  0.00    +0.000 C 
ATOM      8  C   UNL     1       3.380   4.416  17.458  0.00  0.00    +0.000 C 
ATOM      9  N   UNL     1       2.565   5.469  18.048  0.00  0.00    +0.000 N 
ATOM     10  C   UNL     1       3.024   6.787  17.962  0.00  0.00    +0.000 C 
ATOM     11  O   UNL     1       4.091   7.092  17.427  0.00  0.00    +0.000 OA
ATOM     12  C   UNL     1       1.566   4.980  19.002  0.00  0.00    +0.000 C 
ENDROOT
BRANCH  10  13
ATOM     13  C   UNL     1       2.206   7.885  18.547  0.00  0.00    +0.000 A 
ATOM     14  C   UNL     1       1.674   8.859  17.692  0.00  0.00    +0.000 A 
ATOM     15  C   UNL     1       0.966   9.941  18.219  0.00  0.00    +0.000 A 
ATOM     16  C   UNL     1       0.800  10.061  19.601  0.00  0.00    +0.000 A 
ATOM     17  C   UNL     1       1.297   9.071  20.455  0.00  0.00    +0.000 A 
ATOM     18  C   UNL     1       1.959   7.960  19.921  0.00  0.00    +0.000 A 
BRANCH  17  19
ATOM     19  C   UNL     1       1.181   9.206  21.875  0.00  0.00    +0.000 C 
ATOM     20  N   UNL     1       1.113   9.277  23.032  0.00  0.00    +0.000 NA
ENDBRANCH  17  19
ENDBRANCH  10  13
BRANCH   1  21
ATOM     21  C   UNL     1       5.156   1.739  20.638  0.00  0.00    +0.000 C 
BRANCH  21  23
ATOM     22  C   UNL     1       6.082  -0.019  21.895  0.00  0.00    +0.000 C 
ATOM     23  O   UNL     1       5.442   1.247  21.941  0.00  0.00    +0.000 OA
ENDBRANCH  21  23
ENDBRANCH   1  21
TORSDOF 4
ENDMDL
MODEL 5
REMARK VINA RESULT:      -6.8      3.341      4.791
REMARK  Name = 
REMARK  5 active torsions:
REMARK  status: ('A' for Active; 'I' for Inactive)
REMARK    1  A    between atoms: C_1  and  O_2
REMARK    2  A    between atoms: O_2  and  C_3
REMARK    3  A    between atoms: C_3  and  C_4
REMARK    4  A    between atoms: C_13  and  C_15
REMARK    5  A    between atoms: C_19  and  C_20
REMARK                            x       y       z     vdW  Elec       q    Type
REMARK                         _______ _______ _______ _____ _____    ______ ____
ROOT
ATOM      1  C   UNL     1      -0.102  10.142  19.615  0.00  0.00    +0.000 A 
ATOM      2  C   UNL     1      -0.469  10.434  20.928  0.00  0.00    +0.000 A 
ATOM      3  N   UNL     1       0.057   9.846  22.023  0.00  0.00    +0.000 NA
ATOM      4  C   UNL     1       0.953   8.864  21.805  0.00  0.00    +0.000 A 
ATOM      5  C   UNL     1       1.392   8.477  20.543  0.00  0.00    +0.000 A 
ATOM      6  C   UNL     1       0.895   9.169  19.422  0.00  0.00    +0.000 A 
ATOM      7  C   UNL     1       1.399   8.793  18.041  0.00  0.00    +0.000 C 
ATOM      8  C   UNL     1       2.739   8.056  18.121  0.00  0.00    +0.000 C 
ATOM      9  N   UNL     1       2.626   6.932  19.040  0.00  0.00    +0.000 N 
ATOM     10  C   UNL     1       2.415   5.657  18.503  0.00  0.00    +0.000 C 
ATOM     11  O   UNL     1       2.305   5.449  17.294  0.00  0.00    +0.000 OA
ATOM     12  C   UNL     1       2.351   7.324  20.425  0.00  0.00    +0.000 C 
ENDROOT
BRANCH  10  13
ATOM     13  C   UNL     1       2.306   4.489  19.418  0.00  0.00    +0.000 A 
ATOM     14  C   UNL     1       1.077   4.228  20.038  0.00  0.00    +0.000 A 
ATOM     15  C   UNL     1       0.965   3.184  20.959  0.00  0.00    +0.000 A 
ATOM     16  C   UNL     1       2.083   2.407  21.274  0.00  0.00    +0.000 A 
ATOM     17  C   UNL     1       3.302   2.640  20.629  0.00  0.00    +0.000 A 
ATOM     18  C   UNL     1       3.398   3.651  19.668  0.00  0.00    +0.000 A 
BRANCH  17  19
ATOM     19  C   UNL     1       4.468   1.887  20.979  0.00  0.00    +0.000 C 
ATOM     20  N   UNL     1       5.441   1.310  21.242  0.00  0.00    +0.000 NA
ENDBRANCH  17  19
ENDBRANCH  10  13
BRANCH   1  21
ATOM     21  C   UNL     1      -0.807  10.835  18.481  0.00  0.00    +0.000 C 
BRANCH  21  23
ATOM     22  C   UNL     1      -2.360  10.393  16.773  0.00  0.00    +0.000 C 
ATOM     23  O   UNL     1      -1.898  10.026  18.064  0.00  0.00    +0.000 OA
ENDBRANCH  21  23
ENDBRANCH   1  21
TORSDOF 4
ENDMDL
MODEL 6
REMARK VINA RESULT:      -6.6      1.709      2.164
REMARK  Name = 
REMARK  5 active torsions:
REMARK  status: ('A' for Active; 'I' for Inactive)
REMARK    1  A    between atoms: C_1  and  O_2
REMARK    2  A    between atoms: O_2  and  C_3
REMARK    3  A    between atoms: C_3  and  C_4
REMARK    4  A    between atoms: C_13  and  C_15
REMARK    5  A    between atoms: C_19  and  C_20
REMARK                            x       y       z     vdW  Elec       q    Type
REMARK                         _______ _______ _______ _____ _____    ______ ____
ROOT
ATOM      1  C   UNL     1       1.069   8.969  20.927  0.00  0.00    +0.000 A 
ATOM      2  C   UNL     1       0.992  10.167  20.217  0.00  0.00    +0.000 A 
ATOM      3  N   UNL     1       1.278  10.303  18.905  0.00  0.00    +0.000 NA
ATOM      4  C   UNL     1       1.728   9.204  18.271  0.00  0.00    +0.000 A 
ATOM      5  C   UNL     1       1.855   7.956  18.873  0.00  0.00    +0.000 A 
ATOM      6  C   UNL     1       1.464   7.820  20.218  0.00  0.00    +0.000 A 
ATOM      7  C   UNL     1       1.551   6.456  20.876  0.00  0.00    +0.000 C 
ATOM      8  C   UNL     1       1.581   5.336  19.832  0.00  0.00    +0.000 C 
ATOM      9  N   UNL     1       2.637   5.598  18.863  0.00  0.00    +0.000 N 
ATOM     10  C   UNL     1       3.859   4.936  19.022  0.00  0.00    +0.000 C 
ATOM     11  O   UNL     1       4.084   4.157  19.949  0.00  0.00    +0.000 OA
ATOM     12  C   UNL     1       2.430   6.816  18.076  0.00  0.00    +0.000 C 
ENDROOT
BRANCH  10  13
ATOM     13  C   UNL     1       4.952   5.175  18.041  0.00  0.00    +0.000 A 
ATOM     14  C   UNL     1       5.230   4.189  17.086  0.00  0.00    +0.000 A 
ATOM     15  C   UNL     1       6.299   4.354  16.201  0.00  0.00    +0.000 A 
ATOM     16  C   UNL     1       7.099   5.496  16.277  0.00  0.00    +0.000 A 
ATOM     17  C   UNL     1       6.801   6.500  17.204  0.00  0.00    +0.000 A 
ATOM     18  C   UNL     1       5.699   6.358  18.053  0.00  0.00    +0.000 A 
BRANCH  17  19
ATOM     19  C   UNL     1       7.643   7.651  17.329  0.00  0.00    +0.000 C 
ATOM     20  N   UNL     1       8.287   8.611  17.438  0.00  0.00    +0.000 NA
ENDBRANCH  17  19
ENDBRANCH  10  13
BRANCH   1  21
ATOM     21  C   UNL     1       0.772   8.966  22.401  0.00  0.00    +0.000 C 
BRANCH  21  23
ATOM     22  C   UNL     1      -0.928  10.390  23.182  0.00  0.00    +0.000 C 
ATOM     23  O   UNL     1       0.435  10.289  22.798  0.00  0.00    +0.000 OA
ENDBRANCH  21  23
ENDBRANCH   1  21
TORSDOF 4
ENDMDL
MODEL 7
REMARK VINA RESULT:      -6.5      2.458      4.349
REMARK  Name = 
REMARK  5 active torsions:
REMARK  status: ('A' for Active; 'I' for Inactive)
REMARK    1  A    between atoms: C_1  and  O_2
REMARK    2  A    between atoms: O_2  and  C_3
REMARK    3  A    between atoms: C_3  and  C_4
REMARK    4  A    between atoms: C_13  and  C_15
REMARK    5  A    between atoms: C_19  and  C_20
REMARK                            x       y       z     vdW  Elec       q    Type
REMARK                         _______ _______ _______ _____ _____    ______ ____
ROOT
ATOM      1  C   UNL     1       2.550   5.086  18.787  0.00  0.00    +0.000 A 
ATOM      2  C   UNL     1       1.489   4.288  18.360  0.00  0.00    +0.000 A 
ATOM      3  N   UNL     1       1.598   3.275  17.475  0.00  0.00    +0.000 NA
ATOM      4  C   UNL     1       2.814   3.079  16.932  0.00  0.00    +0.000 A 
ATOM      5  C   UNL     1       3.945   3.814  17.271  0.00  0.00    +0.000 A 
ATOM      6  C   UNL     1       3.825   4.805  18.263  0.00  0.00    +0.000 A 
ATOM      7  C   UNL     1       5.059   5.583  18.680  0.00  0.00    +0.000 C 
ATOM      8  C   UNL     1       6.341   4.831  18.313  0.00  0.00    +0.000 C 
ATOM      9  N   UNL     1       6.312   4.473  16.901  0.00  0.00    +0.000 N 
ATOM     10  C   UNL     1       7.008   5.284  15.999  0.00  0.00    +0.000 C 
ATOM     11  O   UNL     1       7.628   6.291  16.343  0.00  0.00    +0.000 OA
ATOM     12  C   UNL     1       5.236   3.542  16.548  0.00  0.00    +0.000 C 
ENDROOT
BRANCH  10  13
ATOM     13  C   UNL     1       7.004   4.937  14.552  0.00  0.00    +0.000 A 
ATOM     14  C   UNL     1       8.061   5.383  13.748  0.00  0.00    +0.000 A 
ATOM     15  C   UNL     1       8.047   5.136  12.373  0.00  0.00    +0.000 A 
ATOM     16  C   UNL     1       6.971   4.456  11.797  0.00  0.00    +0.000 A 
ATOM     17  C   UNL     1       5.934   3.976  12.602  0.00  0.00    +0.000 A 
ATOM     18  C   UNL     1       5.976   4.177  13.985  0.00  0.00    +0.000 A 
BRANCH  17  19
ATOM     19  C   UNL     1       4.800   3.324  12.019  0.00  0.00    +0.000 C 
ATOM     20  N   UNL     1       3.853   2.833  11.559  0.00  0.00    +0.000 NA
ENDBRANCH  17  19
ENDBRANCH  10  13
BRANCH   1  21
ATOM     21  C   UNL     1       2.283   6.219  19.740  0.00  0.00    +0.000 C 
BRANCH  21  23
ATOM     22  C   UNL     1       1.637   8.480  19.742  0.00  0.00    +0.000 C 
ATOM     23  O   UNL     1       2.243   7.433  19.000  0.00  0.00    +0.000 OA
ENDBRANCH  21  23
ENDBRANCH   1  21
TORSDOF 4
ENDMDL
MODEL 8
REMARK VINA RESULT:      -6.5      2.763      4.728
REMARK  Name = 
REMARK  5 active torsions:
REMARK  status: ('A' for Active; 'I' for Inactive)
REMARK    1  A    between atoms: C_1  and  O_2
REMARK    2  A    between atoms: O_2  and  C_3
REMARK    3  A    between atoms: C_3  and  C_4
REMARK    4  A    between atoms: C_13  and  C_15
REMARK    5  A    between atoms: C_19  and  C_20
REMARK                            x       y       z     vdW  Elec       q    Type
REMARK                         _______ _______ _______ _____ _____    ______ ____
ROOT
ATOM      1  C   UNL     1       2.106   3.735  19.071  0.00  0.00    +0.000 A 
ATOM      2  C   UNL     1       1.921   2.355  19.156  0.00  0.00    +0.000 A 
ATOM      3  N   UNL     1       2.776   1.433  18.668  0.00  0.00    +0.000 NA
ATOM      4  C   UNL     1       3.847   1.902  17.998  0.00  0.00    +0.000 A 
ATOM      5  C   UNL     1       4.135   3.253  17.839  0.00  0.00    +0.000 A 
ATOM      6  C   UNL     1       3.275   4.194  18.437  0.00  0.00    +0.000 A 
ATOM      7  C   UNL     1       3.600   5.671  18.314  0.00  0.00    +0.000 C 
ATOM      8  C   UNL     1       5.079   5.889  17.985  0.00  0.00    +0.000 C 
ATOM      9  N   UNL     1       5.441   5.100  16.814  0.00  0.00    +0.000 N 
ATOM     10  C   UNL     1       5.484   5.742  15.572  0.00  0.00    +0.000 C 
ATOM     11  O   UNL     1       5.215   6.935  15.424  0.00  0.00    +0.000 OA
ATOM     12  C   UNL     1       5.329   3.653  17.016  0.00  0.00    +0.000 C 
ENDROOT
BRANCH  10  13
ATOM     13  C   UNL     1       5.862   4.964  14.361  0.00  0.00    +0.000 A 
ATOM     14  C   UNL     1       7.216   4.866  14.016  0.00  0.00    +0.000 A 
ATOM     15  C   UNL     1       7.594   4.206  12.844  0.00  0.00    +0.000 A 
ATOM     16  C   UNL     1       6.621   3.656  12.008  0.00  0.00    +0.000 A 
ATOM     17  C   UNL     1       5.270   3.718  12.368  0.00  0.00    +0.000 A 
ATOM     18  C   UNL     1       4.898   4.332  13.568  0.00  0.00    +0.000 A 
BRANCH  17  19
ATOM     19  C   UNL     1       4.258   3.205  11.495  0.00  0.00    +0.000 C 
ATOM     20  N   UNL     1       3.471   2.783  10.753  0.00  0.00    +0.000 NA
ENDBRANCH  17  19
ENDBRANCH  10  13
BRANCH   1  21
ATOM     21  C   UNL     1       1.047   4.656  19.611  0.00  0.00    +0.000 C 
BRANCH  21  23
ATOM     22  C   UNL     1       1.558   6.596  20.836  0.00  0.00    +0.000 C 
ATOM     23  O   UNL     1       1.493   5.178  20.856  0.00  0.00    +0.000 OA
ENDBRANCH  21  23
ENDBRANCH   1  21
TORSDOF 4
ENDMDL
MODEL 9
REMARK VINA RESULT:      -6.5      3.368      4.734
REMARK  Name = 
REMARK  5 active torsions:
REMARK  status: ('A' for Active; 'I' for Inactive)
REMARK    1  A    between atoms: C_1  and  O_2
REMARK    2  A    between atoms: O_2  and  C_3
REMARK    3  A    between atoms: C_3  and  C_4
REMARK    4  A    between atoms: C_13  and  C_15
REMARK    5  A    between atoms: C_19  and  C_20
REMARK                            x       y       z     vdW  Elec       q    Type
REMARK                         _______ _______ _______ _____ _____    ______ ____
ROOT
ATOM      1  C   UNL     1      -0.140  10.201  19.985  0.00  0.00    +0.000 A 
ATOM      2  C   UNL     1      -0.363  10.500  21.329  0.00  0.00    +0.000 A 
ATOM      3  N   UNL     1       0.270   9.908  22.363  0.00  0.00    +0.000 NA
ATOM      4  C   UNL     1       1.129   8.917  22.054  0.00  0.00    +0.000 A 
ATOM      5  C   UNL     1       1.428   8.524  20.754  0.00  0.00    +0.000 A 
ATOM      6  C   UNL     1       0.822   9.219  19.690  0.00  0.00    +0.000 A 
ATOM      7  C   UNL     1       1.174   8.836  18.265  0.00  0.00    +0.000 C 
ATOM      8  C   UNL     1       2.508   8.086  18.204  0.00  0.00    +0.000 C 
ATOM      9  N   UNL     1       2.482   6.964  19.134  0.00  0.00    +0.000 N 
ATOM     10  C   UNL     1       2.203   5.691  18.626  0.00  0.00    +0.000 C 
ATOM     11  O   UNL     1       1.964   5.481  17.436  0.00  0.00    +0.000 OA
ATOM     12  C   UNL     1       2.358   7.361  20.539  0.00  0.00    +0.000 C 
ENDROOT
BRANCH  10  13
ATOM     13  C   UNL     1       2.181   4.525  19.550  0.00  0.00    +0.000 A 
ATOM     14  C   UNL     1       1.016   4.267  20.283  0.00  0.00    +0.000 A 
ATOM     15  C   UNL     1       0.991   3.225  21.213  0.00  0.00    +0.000 A 
ATOM     16  C   UNL     1       2.133   2.449  21.424  0.00  0.00    +0.000 A 
ATOM     17  C   UNL     1       3.286   2.679  20.667  0.00  0.00    +0.000 A 
ATOM     18  C   UNL     1       3.292   3.688  19.698  0.00  0.00    +0.000 A 
BRANCH  17  19
ATOM     19  C   UNL     1       4.480   1.927  20.908  0.00  0.00    +0.000 C 
ATOM     20  N   UNL     1       5.421   1.279  21.114  0.00  0.00    +0.000 NA
ENDBRANCH  17  19
ENDBRANCH  10  13
BRANCH   1  21
ATOM     21  C   UNL     1      -0.954  10.899  18.931  0.00  0.00    +0.000 C 
BRANCH  21  23
ATOM     22  C   UNL     1      -0.753  13.241  18.863  0.00  0.00    +0.000 C 
ATOM     23  O   UNL     1      -0.206  12.003  18.437  0.00  0.00    +0.000 OA
ENDBRANCH  21  23
ENDBRANCH   1  21
TORSDOF 4
ENDMDL
