MODEL 1
REMARK VINA RESULT:     -10.1      0.000      0.000
REMARK  Name = 
REMARK  2 active torsions:
REMARK  status: ('A' for Active; 'I' for Inactive)
REMARK    1  A    between atoms: C_4  and  C_5
REMARK    2  A    between atoms: C_19  and  C_20
REMARK                            x       y       z     vdW  Elec       q    Type
REMARK                         _______ _______ _______ _____ _____    ______ ____
ROOT
ATOM      1  O   UNL     1       0.877   9.724  23.357  0.00  0.00    +0.000 OA
ATOM      2  C   UNL     1       0.353   9.887  22.257  0.00  0.00    +0.000 C 
ATOM      3  C   UNL     1       0.707   9.019  21.085  0.00  0.00    +0.000 C 
ATOM      4  C   UNL     1       1.323   7.853  21.368  0.00  0.00    +0.000 C 
ATOM      5  C   UNL     1       0.367   9.476  19.694  0.00  0.00    +0.000 C 
ATOM      6  C   UNL     1       0.017  10.955  19.625  0.00  0.00    +0.000 C 
ATOM      7  C   UNL     1      -1.092  11.270  20.617  0.00  0.00    +0.000 C 
ATOM      8  C   UNL     1      -0.673  10.959  22.026  0.00  0.00    +0.000 C 
ATOM      9  C   UNL     1      -1.155  11.583  23.120  0.00  0.00    +0.000 C 
ENDROOT
BRANCH   4  10
ATOM     10  C   UNL     1       1.712   6.865  20.358  0.00  0.00    +0.000 A 
ATOM     11  C   UNL     1       2.443   7.258  19.237  0.00  0.00    +0.000 A 
ATOM     12  C   UNL     1       2.790   6.322  18.260  0.00  0.00    +0.000 A 
ATOM     13  C   UNL     1       2.418   4.974  18.392  0.00  0.00    +0.000 A 
ATOM     14  C   UNL     1       2.760   4.024  17.417  0.00  0.00    +0.000 A 
ATOM     15  C   UNL     1       2.396   2.685  17.566  0.00  0.00    +0.000 A 
ATOM     16  C   UNL     1       1.684   2.280  18.693  0.00  0.00    +0.000 A 
ATOM     17  C   UNL     1       1.330   3.215  19.667  0.00  0.00    +0.000 A 
ATOM     18  C   UNL     1       1.687   4.567  19.532  0.00  0.00    +0.000 A 
ATOM     19  C   UNL     1       1.338   5.523  20.503  0.00  0.00    +0.000 A 
ENDBRANCH   4  10
BRANCH   9  20
ATOM     20  C   UNL     1      -2.209  12.600  23.083  0.00  0.00    +0.000 A 
ATOM     21  C   UNL     1      -1.900  13.906  22.695  0.00  0.00    +0.000 A 
ATOM     22  C   UNL     1      -2.893  14.888  22.683  0.00  0.00    +0.000 A 
ATOM     23  C   UNL     1      -4.210  14.580  23.055  0.00  0.00    +0.000 A 
ATOM     24  C   UNL     1      -5.218  15.557  23.047  0.00  0.00    +0.000 A 
ATOM     25  C   UNL     1      -6.526  15.235  23.415  0.00  0.00    +0.000 A 
ATOM     26  C   UNL     1      -6.840  13.935  23.798  0.00  0.00    +0.000 A 
ATOM     27  C   UNL     1      -5.848  12.952  23.815  0.00  0.00    +0.000 A 
ATOM     28  C   UNL     1      -4.529  13.259  23.445  0.00  0.00    +0.000 A 
ATOM     29  C   UNL     1      -3.519  12.280  23.454  0.00  0.00    +0.000 A 
ENDBRANCH   9  20
TORSDOF 2
ENDMDL
MODEL 2
REMARK VINA RESULT:      -9.7      1.557     10.477
REMARK  Name = 
REMARK  2 active torsions:
REMARK  status: ('A' for Active; 'I' for Inactive)
REMARK    1  A    between atoms: C_4  and  C_5
REMARK    2  A    between atoms: C_19  and  C_20
REMARK                            x       y       z     vdW  Elec       q    Type
REMARK                         _______ _______ _______ _____ _____    ______ ____
ROOT
ATOM      1  O   UNL     1       1.391  11.056  18.442  0.00  0.00    +0.000 OA
ATOM      2  C   UNL     1       1.087  10.277  19.343  0.00  0.00    +0.000 C 
ATOM      3  C   UNL     1       0.185  10.695  20.467  0.00  0.00    +0.000 C 
ATOM      4  C   UNL     1      -0.554  11.804  20.262  0.00  0.00    +0.000 C 
ATOM      5  C   UNL     1       0.150   9.881  21.731  0.00  0.00    +0.000 C 
ATOM      6  C   UNL     1       1.321   8.917  21.848  0.00  0.00    +0.000 C 
ATOM      7  C   UNL     1       1.394   8.042  20.606  0.00  0.00    +0.000 C 
ATOM      8  C   UNL     1       1.595   8.865  19.366  0.00  0.00    +0.000 C 
ATOM      9  C   UNL     1       2.212   8.424  18.249  0.00  0.00    +0.000 C 
ENDROOT
BRANCH   4  10
ATOM     10  C   UNL     1      -1.513  12.341  21.231  0.00  0.00    +0.000 A 
ATOM     11  C   UNL     1      -1.065  12.865  22.445  0.00  0.00    +0.000 A 
ATOM     12  C   UNL     1      -1.981  13.351  23.381  0.00  0.00    +0.000 A 
ATOM     13  C   UNL     1      -3.360  13.330  23.115  0.00  0.00    +0.000 A 
ATOM     14  C   UNL     1      -4.290  13.816  24.048  0.00  0.00    +0.000 A 
ATOM     15  C   UNL     1      -5.657  13.803  23.766  0.00  0.00    +0.000 A 
ATOM     16  C   UNL     1      -6.110  13.302  22.548  0.00  0.00    +0.000 A 
ATOM     17  C   UNL     1      -5.199  12.808  21.614  0.00  0.00    +0.000 A 
ATOM     18  C   UNL     1      -3.819  12.813  21.882  0.00  0.00    +0.000 A 
ATOM     19  C   UNL     1      -2.885  12.319  20.953  0.00  0.00    +0.000 A 
ENDBRANCH   4  10
BRANCH   9  20
ATOM     20  C   UNL     1       2.703   7.055  18.074  0.00  0.00    +0.000 A 
ATOM     21  C   UNL     1       4.016   6.838  17.650  0.00  0.00    +0.000 A 
ATOM     22  C   UNL     1       4.485   5.537  17.454  0.00  0.00    +0.000 A 
ATOM     23  C   UNL     1       3.649   4.432  17.681  0.00  0.00    +0.000 A 
ATOM     24  C   UNL     1       4.107   3.119  17.488  0.00  0.00    +0.000 A 
ATOM     25  C   UNL     1       3.266   2.029  17.723  0.00  0.00    +0.000 A 
ATOM     26  C   UNL     1       1.958   2.240  18.149  0.00  0.00    +0.000 A 
ATOM     27  C   UNL     1       1.487   3.540  18.342  0.00  0.00    +0.000 A 
ATOM     28  C   UNL     1       2.320   4.647  18.113  0.00  0.00    +0.000 A 
ATOM     29  C   UNL     1       1.861   5.962  18.305  0.00  0.00    +0.000 A 
ENDBRANCH   9  20
TORSDOF 2
ENDMDL
MODEL 3
REMARK VINA RESULT:      -9.6      3.033     11.327
REMARK  Name = 
REMARK  2 active torsions:
REMARK  status: ('A' for Active; 'I' for Inactive)
REMARK    1  A    between atoms: C_4  and  C_5
REMARK    2  A    between atoms: C_19  and  C_20
REMARK                            x       y       z     vdW  Elec       q    Type
REMARK                         _______ _______ _______ _____ _____    ______ ____
ROOT
ATOM      1  O   UNL     1       2.130   5.732  20.446  0.00  0.00    +0.000 OA
ATOM      2  C   UNL     1       2.284   6.715  19.723  0.00  0.00    +0.000 C 
ATOM      3  C   UNL     1       1.612   8.022  20.028  0.00  0.00    +0.000 C 
ATOM      4  C   UNL     1       1.147   8.178  21.284  0.00  0.00    +0.000 C 
ATOM      5  C   UNL     1       1.492   9.063  18.949  0.00  0.00    +0.000 C 
ATOM      6  C   UNL     1       1.760   8.508  17.558  0.00  0.00    +0.000 C 
ATOM      7  C   UNL     1       3.111   7.811  17.532  0.00  0.00    +0.000 C 
ATOM      8  C   UNL     1       3.156   6.665  18.503  0.00  0.00    +0.000 C 
ATOM      9  C   UNL     1       3.934   5.572  18.357  0.00  0.00    +0.000 C 
ENDROOT
BRANCH   4  10
ATOM     10  C   UNL     1       0.496   9.397  21.771  0.00  0.00    +0.000 A 
ATOM     11  C   UNL     1      -0.491   9.319  22.755  0.00  0.00    +0.000 A 
ATOM     12  C   UNL     1      -1.133  10.478  23.200  0.00  0.00    +0.000 A 
ATOM     13  C   UNL     1      -0.792  11.735  22.675  0.00  0.00    +0.000 A 
ATOM     14  C   UNL     1      -1.430  12.906  23.114  0.00  0.00    +0.000 A 
ATOM     15  C   UNL     1      -1.073  14.151  22.594  0.00  0.00    +0.000 A 
ATOM     16  C   UNL     1      -0.075  14.240  21.627  0.00  0.00    +0.000 A 
ATOM     17  C   UNL     1       0.563  13.084  21.175  0.00  0.00    +0.000 A 
ATOM     18  C   UNL     1       0.215  11.822  21.687  0.00  0.00    +0.000 A 
ATOM     19  C   UNL     1       0.846  10.645  21.243  0.00  0.00    +0.000 A 
ENDBRANCH   4  10
BRANCH   9  20
ATOM     20  C   UNL     1       4.894   5.393  17.266  0.00  0.00    +0.000 A 
ATOM     21  C   UNL     1       6.173   5.945  17.369  0.00  0.00    +0.000 A 
ATOM     22  C   UNL     1       7.087   5.803  16.322  0.00  0.00    +0.000 A 
ATOM     23  C   UNL     1       6.737   5.103  15.157  0.00  0.00    +0.000 A 
ATOM     24  C   UNL     1       7.645   4.951  14.097  0.00  0.00    +0.000 A 
ATOM     25  C   UNL     1       7.286   4.247  12.945  0.00  0.00    +0.000 A 
ATOM     26  C   UNL     1       6.014   3.692  12.839  0.00  0.00    +0.000 A 
ATOM     27  C   UNL     1       5.099   3.837  13.883  0.00  0.00    +0.000 A 
ATOM     28  C   UNL     1       5.445   4.539  15.049  0.00  0.00    +0.000 A 
ATOM     29  C   UNL     1       4.535   4.691  16.110  0.00  0.00    +0.000 A 
ENDBRANCH   9  20
TORSDOF 2
ENDMDL
MODEL 4
REMARK VINA RESULT:      -9.6      1.762     10.601
REMARK  Name = 
REMARK  2 active torsions:
REMARK  status: ('A' for Active; 'I' for Inactive)
REMARK    1  A    between atoms: C_4  and  C_5
REMARK    2  A    between atoms: C_19  and  C_20
REMARK                            x       y       z     vdW  Elec       q    Type
REMARK                         _______ _______ _______ _____ _____    ______ ____
ROOT
ATOM      1  O   UNL     1       1.406  11.026  18.325  0.00  0.00    +0.000 OA
ATOM      2  C   UNL     1       1.150  10.289  19.275  0.00  0.00    +0.000 C 
ATOM      3  C   UNL     1       0.322  10.764  20.433  0.00  0.00    +0.000 C 
ATOM      4  C   UNL     1      -0.417  11.873  20.225  0.00  0.00    +0.000 C 
ATOM      5  C   UNL     1       0.356  10.004  21.730  0.00  0.00    +0.000 C 
ATOM      6  C   UNL     1       1.522   9.032  21.816  0.00  0.00    +0.000 C 
ATOM      7  C   UNL     1       1.511   8.105  20.611  0.00  0.00    +0.000 C 
ATOM      8  C   UNL     1       1.645   8.872  19.327  0.00  0.00    +0.000 C 
ATOM      9  C   UNL     1       2.188   8.378  18.195  0.00  0.00    +0.000 C 
ENDROOT
BRANCH   4  10
ATOM     10  C   UNL     1      -1.311  12.462  21.226  0.00  0.00    +0.000 A 
ATOM     11  C   UNL     1      -2.683  12.216  21.173  0.00  0.00    +0.000 A 
ATOM     12  C   UNL     1      -3.539  12.800  22.110  0.00  0.00    +0.000 A 
ATOM     13  C   UNL     1      -3.036  13.633  23.122  0.00  0.00    +0.000 A 
ATOM     14  C   UNL     1      -3.886  14.226  24.069  0.00  0.00    +0.000 A 
ATOM     15  C   UNL     1      -3.372  15.041  25.079  0.00  0.00    +0.000 A 
ATOM     16  C   UNL     1      -2.001  15.275  25.152  0.00  0.00    +0.000 A 
ATOM     17  C   UNL     1      -1.144  14.699  24.213  0.00  0.00    +0.000 A 
ATOM     18  C   UNL     1      -1.645  13.876  23.190  0.00  0.00    +0.000 A 
ATOM     19  C   UNL     1      -0.797  13.288  22.233  0.00  0.00    +0.000 A 
ENDBRANCH   4  10
BRANCH   9  20
ATOM     20  C   UNL     1       2.654   6.997  18.049  0.00  0.00    +0.000 A 
ATOM     21  C   UNL     1       3.961   6.747  17.625  0.00  0.00    +0.000 A 
ATOM     22  C   UNL     1       4.407   5.434  17.456  0.00  0.00    +0.000 A 
ATOM     23  C   UNL     1       3.553   4.350  17.711  0.00  0.00    +0.000 A 
ATOM     24  C   UNL     1       3.987   3.025  17.546  0.00  0.00    +0.000 A 
ATOM     25  C   UNL     1       3.128   1.956  17.809  0.00  0.00    +0.000 A 
ATOM     26  C   UNL     1       1.825   2.199  18.235  0.00  0.00    +0.000 A 
ATOM     27  C   UNL     1       1.378   3.511  18.400  0.00  0.00    +0.000 A 
ATOM     28  C   UNL     1       2.230   4.597  18.144  0.00  0.00    +0.000 A 
ATOM     29  C   UNL     1       1.794   5.924  18.308  0.00  0.00    +0.000 A 
ENDBRANCH   9  20
TORSDOF 2
ENDMDL
MODEL 5
REMARK VINA RESULT:      -9.5      0.695      1.707
REMARK  Name = 
REMARK  2 active torsions:
REMARK  status: ('A' for Active; 'I' for Inactive)
REMARK    1  A    between atoms: C_4  and  C_5
REMARK    2  A    between atoms: C_19  and  C_20
REMARK                            x       y       z     vdW  Elec       q    Type
REMARK                         _______ _______ _______ _____ _____    ______ ____
ROOT
ATOM      1  O   UNL     1       0.953   9.756  23.271  0.00  0.00    +0.000 OA
ATOM      2  C   UNL     1       0.443   9.910  22.163  0.00  0.00    +0.000 C 
ATOM      3  C   UNL     1       0.788   9.010  21.013  0.00  0.00    +0.000 C 
ATOM      4  C   UNL     1       1.375   7.836  21.325  0.00  0.00    +0.000 C 
ATOM      5  C   UNL     1       0.472   9.447  19.609  0.00  0.00    +0.000 C 
ATOM      6  C   UNL     1       0.158  10.932  19.507  0.00  0.00    +0.000 C 
ATOM      7  C   UNL     1      -0.953  11.292  20.482  0.00  0.00    +0.000 C 
ATOM      8  C   UNL     1      -0.554  11.000  21.900  0.00  0.00    +0.000 C 
ATOM      9  C   UNL     1      -1.032  11.657  22.977  0.00  0.00    +0.000 C 
ENDROOT
BRANCH   4  10
ATOM     10  C   UNL     1       1.750   6.819  20.339  0.00  0.00    +0.000 A 
ATOM     11  C   UNL     1       2.485   7.176  19.207  0.00  0.00    +0.000 A 
ATOM     12  C   UNL     1       2.818   6.212  18.253  0.00  0.00    +0.000 A 
ATOM     13  C   UNL     1       2.430   4.873  18.417  0.00  0.00    +0.000 A 
ATOM     14  C   UNL     1       2.759   3.895  17.465  0.00  0.00    +0.000 A 
ATOM     15  C   UNL     1       2.379   2.565  17.647  0.00  0.00    +0.000 A 
ATOM     16  C   UNL     1       1.663   2.196  18.784  0.00  0.00    +0.000 A 
ATOM     17  C   UNL     1       1.322   3.158  19.736  0.00  0.00    +0.000 A 
ATOM     18  C   UNL     1       1.696   4.502  19.567  0.00  0.00    +0.000 A 
ATOM     19  C   UNL     1       1.360   5.486  20.516  0.00  0.00    +0.000 A 
ENDBRANCH   4  10
BRANCH   9  20
ATOM     20  C   UNL     1      -2.062  12.696  22.909  0.00  0.00    +0.000 A 
ATOM     21  C   UNL     1      -3.402  12.360  23.114  0.00  0.00    +0.000 A 
ATOM     22  C   UNL     1      -4.394  13.340  23.025  0.00  0.00    +0.000 A 
ATOM     23  C   UNL     1      -4.061  14.671  22.731  0.00  0.00    +0.000 A 
ATOM     24  C   UNL     1      -5.047  15.667  22.639  0.00  0.00    +0.000 A 
ATOM     25  C   UNL     1      -4.701  16.989  22.351  0.00  0.00    +0.000 A 
ATOM     26  C   UNL     1      -3.367  17.329  22.150  0.00  0.00    +0.000 A 
ATOM     27  C   UNL     1      -2.375  16.350  22.235  0.00  0.00    +0.000 A 
ATOM     28  C   UNL     1      -2.706  15.017  22.526  0.00  0.00    +0.000 A 
ATOM     29  C   UNL     1      -1.718  14.021  22.618  0.00  0.00    +0.000 A 
ENDBRANCH   9  20
TORSDOF 2
ENDMDL
MODEL 6
REMARK VINA RESULT:      -9.5      3.252     10.474
REMARK  Name = 
REMARK  2 active torsions:
REMARK  status: ('A' for Active; 'I' for Inactive)
REMARK    1  A    between atoms: C_4  and  C_5
REMARK    2  A    between atoms: C_19  and  C_20
REMARK                            x       y       z     vdW  Elec       q    Type
REMARK                         _______ _______ _______ _____ _____    ______ ____
ROOT
ATOM      1  O   UNL     1       1.054  10.539  21.911  0.00  0.00    +0.000 OA
ATOM      2  C   UNL     1       0.870  10.529  20.695  0.00  0.00    +0.000 C 
ATOM      3  C   UNL     1       0.437  11.763  19.960  0.00  0.00    +0.000 C 
ATOM      4  C   UNL     1       0.611  12.936  20.602  0.00  0.00    +0.000 C 
ATOM      5  C   UNL     1      -0.154  11.636  18.583  0.00  0.00    +0.000 C 
ATOM      6  C   UNL     1      -0.573  10.213  18.247  0.00  0.00    +0.000 C 
ATOM      7  C   UNL     1       0.600   9.267  18.455  0.00  0.00    +0.000 C 
ATOM      8  C   UNL     1       1.074   9.285  19.880  0.00  0.00    +0.000 C 
ATOM      9  C   UNL     1       1.677   8.248  20.497  0.00  0.00    +0.000 C 
ENDROOT
BRANCH   4  10
ATOM     10  C   UNL     1       0.280  14.242  20.027  0.00  0.00    +0.000 A 
ATOM     11  C   UNL     1      -0.950  14.840  20.306  0.00  0.00    +0.000 A 
ATOM     12  C   UNL     1      -1.278  16.073  19.736  0.00  0.00    +0.000 A 
ATOM     13  C   UNL     1      -0.378  16.733  18.885  0.00  0.00    +0.000 A 
ATOM     14  C   UNL     1      -0.696  17.972  18.306  0.00  0.00    +0.000 A 
ATOM     15  C   UNL     1       0.213  18.625  17.472  0.00  0.00    +0.000 A 
ATOM     16  C   UNL     1       1.450  18.045  17.205  0.00  0.00    +0.000 A 
ATOM     17  C   UNL     1       1.778  16.810  17.766  0.00  0.00    +0.000 A 
ATOM     18  C   UNL     1       0.875  16.139  18.608  0.00  0.00    +0.000 A 
ATOM     19  C   UNL     1       1.187  14.893  19.182  0.00  0.00    +0.000 A 
ENDBRANCH   4  10
BRANCH   9  20
ATOM     20  C   UNL     1       2.018   6.988  19.831  0.00  0.00    +0.000 A 
ATOM     21  C   UNL     1       2.874   6.996  18.728  0.00  0.00    +0.000 A 
ATOM     22  C   UNL     1       3.183   5.803  18.069  0.00  0.00    +0.000 A 
ATOM     23  C   UNL     1       2.643   4.583  18.506  0.00  0.00    +0.000 A 
ATOM     24  C   UNL     1       2.945   3.377  17.855  0.00  0.00    +0.000 A 
ATOM     25  C   UNL     1       2.404   2.170  18.305  0.00  0.00    +0.000 A 
ATOM     26  C   UNL     1       1.553   2.157  19.406  0.00  0.00    +0.000 A 
ATOM     27  C   UNL     1       1.241   3.349  20.062  0.00  0.00    +0.000 A 
ATOM     28  C   UNL     1       1.778   4.570  19.625  0.00  0.00    +0.000 A 
ATOM     29  C   UNL     1       1.475   5.778  20.277  0.00  0.00    +0.000 A 
ENDBRANCH   9  20
TORSDOF 2
ENDMDL
MODEL 7
REMARK VINA RESULT:      -9.3      0.693      1.639
REMARK  Name = 
REMARK  2 active torsions:
REMARK  status: ('A' for Active; 'I' for Inactive)
REMARK    1  A    between atoms: C_4  and  C_5
REMARK    2  A    between atoms: C_19  and  C_20
REMARK                            x       y       z     vdW  Elec       q    Type
REMARK                         _______ _______ _______ _____ _____    ______ ____
ROOT
ATOM      1  O   UNL     1       0.947   9.626  23.328  0.00  0.00    +0.000 OA
ATOM      2  C   UNL     1       0.477   9.785  22.203  0.00  0.00    +0.000 C 
ATOM      3  C   UNL     1       0.875   8.901  21.058  0.00  0.00    +0.000 C 
ATOM      4  C   UNL     1       1.464   7.732  21.380  0.00  0.00    +0.000 C 
ATOM      5  C   UNL     1       0.606   9.348  19.647  0.00  0.00    +0.000 C 
ATOM      6  C   UNL     1       0.277  10.830  19.548  0.00  0.00    +0.000 C 
ATOM      7  C   UNL     1      -0.873  11.167  20.484  0.00  0.00    +0.000 C 
ATOM      8  C   UNL     1      -0.524  10.866  21.914  0.00  0.00    +0.000 C 
ATOM      9  C   UNL     1      -1.050  11.506  22.979  0.00  0.00    +0.000 C 
ENDROOT
BRANCH   4  10
ATOM     10  C   UNL     1       1.888   6.729  20.399  0.00  0.00    +0.000 A 
ATOM     11  C   UNL     1       1.344   5.444  20.429  0.00  0.00    +0.000 A 
ATOM     12  C   UNL     1       1.768   4.479  19.512  0.00  0.00    +0.000 A 
ATOM     13  C   UNL     1       2.737   4.785  18.544  0.00  0.00    +0.000 A 
ATOM     14  C   UNL     1       3.171   3.824  17.617  0.00  0.00    +0.000 A 
ATOM     15  C   UNL     1       4.125   4.145  16.650  0.00  0.00    +0.000 A 
ATOM     16  C   UNL     1       4.658   5.430  16.599  0.00  0.00    +0.000 A 
ATOM     17  C   UNL     1       4.242   6.394  17.519  0.00  0.00    +0.000 A 
ATOM     18  C   UNL     1       3.283   6.088  18.499  0.00  0.00    +0.000 A 
ATOM     19  C   UNL     1       2.852   7.047  19.435  0.00  0.00    +0.000 A 
ENDBRANCH   4  10
BRANCH   9  20
ATOM     20  C   UNL     1      -2.089  12.534  22.883  0.00  0.00    +0.000 A 
ATOM     21  C   UNL     1      -1.762  13.810  22.418  0.00  0.00    +0.000 A 
ATOM     22  C   UNL     1      -2.740  14.805  22.349  0.00  0.00    +0.000 A 
ATOM     23  C   UNL     1      -4.061  14.538  22.740  0.00  0.00    +0.000 A 
ATOM     24  C   UNL     1      -5.055  15.528  22.675  0.00  0.00    +0.000 A 
ATOM     25  C   UNL     1      -6.367  15.247  23.062  0.00  0.00    +0.000 A 
ATOM     26  C   UNL     1      -6.699  13.976  23.522  0.00  0.00    +0.000 A 
ATOM     27  C   UNL     1      -5.721  12.982  23.595  0.00  0.00    +0.000 A 
ATOM     28  C   UNL     1      -4.398  13.247  23.207  0.00  0.00    +0.000 A 
ATOM     29  C   UNL     1      -3.403  12.256  23.273  0.00  0.00    +0.000 A 
ENDBRANCH   9  20
TORSDOF 2
ENDMDL
MODEL 8
REMARK VINA RESULT:      -9.3      0.838      1.303
REMARK  Name = 
REMARK  2 active torsions:
REMARK  status: ('A' for Active; 'I' for Inactive)
REMARK    1  A    between atoms: C_4  and  C_5
REMARK    2  A    between atoms: C_19  and  C_20
REMARK                            x       y       z     vdW  Elec       q    Type
REMARK                         _______ _______ _______ _____ _____    ______ ____
ROOT
ATOM      1  O   UNL     1       0.607   9.711  23.502  0.00  0.00    +0.000 OA
ATOM      2  C   UNL     1       0.146   9.920  22.381  0.00  0.00    +0.000 C 
ATOM      3  C   UNL     1       0.571   9.102  21.197  0.00  0.00    +0.000 C 
ATOM      4  C   UNL     1       1.176   7.928  21.466  0.00  0.00    +0.000 C 
ATOM      5  C   UNL     1       0.309   9.617  19.809  0.00  0.00    +0.000 C 
ATOM      6  C   UNL     1      -0.043  11.097  19.782  0.00  0.00    +0.000 C 
ATOM      7  C   UNL     1      -1.208  11.367  20.721  0.00  0.00    +0.000 C 
ATOM      8  C   UNL     1      -0.869  10.998  22.137  0.00  0.00    +0.000 C 
ATOM      9  C   UNL     1      -1.416  11.575  23.227  0.00  0.00    +0.000 C 
ENDROOT
BRANCH   4  10
ATOM     10  C   UNL     1       1.626   6.984  20.440  0.00  0.00    +0.000 A 
ATOM     11  C   UNL     1       2.357   7.438  19.340  0.00  0.00    +0.000 A 
ATOM     12  C   UNL     1       2.762   6.543  18.347  0.00  0.00    +0.000 A 
ATOM     13  C   UNL     1       2.451   5.177  18.440  0.00  0.00    +0.000 A 
ATOM     14  C   UNL     1       2.853   4.267  17.449  0.00  0.00    +0.000 A 
ATOM     15  C   UNL     1       2.550   2.910  17.560  0.00  0.00    +0.000 A 
ATOM     16  C   UNL     1       1.839   2.445  18.664  0.00  0.00    +0.000 A 
ATOM     17  C   UNL     1       1.426   3.338  19.654  0.00  0.00    +0.000 A 
ATOM     18  C   UNL     1       1.722   4.708  19.557  0.00  0.00    +0.000 A 
ATOM     19  C   UNL     1       1.313   5.623  20.545  0.00  0.00    +0.000 A 
ENDBRANCH   4  10
BRANCH   9  20
ATOM     20  C   UNL     1      -2.471  12.589  23.172  0.00  0.00    +0.000 A 
ATOM     21  C   UNL     1      -3.468  12.502  22.197  0.00  0.00    +0.000 A 
ATOM     22  C   UNL     1      -4.462  13.480  22.119  0.00  0.00    +0.000 A 
ATOM     23  C   UNL     1      -4.478  14.559  23.017  0.00  0.00    +0.000 A 
ATOM     24  C   UNL     1      -5.472  15.549  22.951  0.00  0.00    +0.000 A 
ATOM     25  C   UNL     1      -5.477  16.614  23.854  0.00  0.00    +0.000 A 
ATOM     26  C   UNL     1      -4.489  16.703  24.829  0.00  0.00    +0.000 A 
ATOM     27  C   UNL     1      -3.492  15.729  24.906  0.00  0.00    +0.000 A 
ATOM     28  C   UNL     1      -3.473  14.650  24.007  0.00  0.00    +0.000 A 
ATOM     29  C   UNL     1      -2.477  13.660  24.073  0.00  0.00    +0.000 A 
ENDBRANCH   9  20
TORSDOF 2
ENDMDL
MODEL 9
REMARK VINA RESULT:      -9.2      2.309      3.551
REMARK  Name = 
REMARK  2 active torsions:
REMARK  status: ('A' for Active; 'I' for Inactive)
REMARK    1  A    between atoms: C_4  and  C_5
REMARK    2  A    between atoms: C_19  and  C_20
REMARK                            x       y       z     vdW  Elec       q    Type
REMARK                         _______ _______ _______ _____ _____    ______ ____
ROOT
ATOM      1  O   UNL     1      -0.225  10.147  17.984  0.00  0.00    +0.000 OA
ATOM      2  C   UNL     1       0.356   9.874  19.033  0.00  0.00    +0.000 C 
ATOM      3  C   UNL     1       1.340   8.744  19.110  0.00  0.00    +0.000 C 
ATOM      4  C   UNL     1       1.827   8.293  17.937  0.00  0.00    +0.000 C 
ATOM      5  C   UNL     1       1.725   8.187  20.453  0.00  0.00    +0.000 C 
ATOM      6  C   UNL     1       0.778   8.613  21.565  0.00  0.00    +0.000 C 
ATOM      7  C   UNL     1       0.660  10.129  21.588  0.00  0.00    +0.000 C 
ATOM      8  C   UNL     1       0.116  10.657  20.291  0.00  0.00    +0.000 C 
ATOM      9  C   UNL     1      -0.586  11.802  20.168  0.00  0.00    +0.000 C 
ENDROOT
BRANCH   4  10
ATOM     10  C   UNL     1       2.821   7.223  17.819  0.00  0.00    +0.000 A 
ATOM     11  C   UNL     1       2.450   5.894  18.027  0.00  0.00    +0.000 A 
ATOM     12  C   UNL     1       3.403   4.876  17.942  0.00  0.00    +0.000 A 
ATOM     13  C   UNL     1       4.742   5.168  17.640  0.00  0.00    +0.000 A 
ATOM     14  C   UNL     1       5.709   4.154  17.553  0.00  0.00    +0.000 A 
ATOM     15  C   UNL     1       7.035   4.457  17.238  0.00  0.00    +0.000 A 
ATOM     16  C   UNL     1       7.410   5.778  17.009  0.00  0.00    +0.000 A 
ATOM     17  C   UNL     1       6.462   6.798  17.100  0.00  0.00    +0.000 A 
ATOM     18  C   UNL     1       5.123   6.511  17.416  0.00  0.00    +0.000 A 
ATOM     19  C   UNL     1       4.154   7.527  17.514  0.00  0.00    +0.000 A 
ENDBRANCH   4  10
BRANCH   9  20
ATOM     20  C   UNL     1      -0.849  12.722  21.277  0.00  0.00    +0.000 A 
ATOM     21  C   UNL     1       0.050  13.755  21.550  0.00  0.00    +0.000 A 
ATOM     22  C   UNL     1      -0.178  14.621  22.622  0.00  0.00    +0.000 A 
ATOM     23  C   UNL     1      -1.311  14.468  23.437  0.00  0.00    +0.000 A 
ATOM     24  C   UNL     1      -1.553  15.331  24.518  0.00  0.00    +0.000 A 
ATOM     25  C   UNL     1      -2.687  15.171  25.318  0.00  0.00    +0.000 A 
ATOM     26  C   UNL     1      -3.588  14.145  25.048  0.00  0.00    +0.000 A 
ATOM     27  C   UNL     1      -3.359  13.277  23.979  0.00  0.00    +0.000 A 
ATOM     28  C   UNL     1      -2.226  13.426  23.164  0.00  0.00    +0.000 A 
ATOM     29  C   UNL     1      -1.983  12.561  22.082  0.00  0.00    +0.000 A 
ENDBRANCH   9  20
TORSDOF 2
ENDMDL
