MODEL 1
REMARK VINA RESULT:      -7.7      0.000      0.000
REMARK  Name = 
REMARK  15 active torsions:
REMARK  status: ('A' for Active; 'I' for Inactive)
REMARK    1  A    between atoms: C_1  and  C_2
REMARK    2  A    between atoms: C_2  and  C_3
REMARK    3  A    between atoms: C_8  and  O_9
REMARK    4  A    between atoms: C_8  and  C_10
REMARK    5  A    between atoms: C_10  and  C_12
REMARK    6  A    between atoms: C_19  and  C_20
REMARK    7  A    between atoms: C_20  and  O_22
REMARK    8  A    between atoms: O_22  and  C_23
REMARK    9  A    between atoms: C_23  and  C_24
REMARK   10  A    between atoms: C_24  and  O_25
REMARK   11  A    between atoms: O_25  and  C_26
REMARK   12  A    between atoms: C_29  and  O_30
REMARK   13  A    between atoms: O_30  and  C_31
REMARK   14  A    between atoms: C_32  and  O_33
REMARK   15  A    between atoms: O_33  and  C_34
REMARK                            x       y       z     vdW  Elec       q    Type
REMARK                         _______ _______ _______ _____ _____    ______ ____
ROOT
ATOM      1  C   UNL     1       4.843   3.664  19.361  0.00  0.00    +0.000 C 
ATOM      2  O   UNL     1       5.479   2.677  19.711  0.00  0.00    +0.000 OA
ATOM      3  N   UNL     1       3.457   3.690  19.217  0.00  0.00    +0.000 N 
ATOM      4  C   UNL     1       2.675   2.526  19.619  0.00  0.00    +0.000 C 
ATOM      5  C   UNL     1       1.641   2.176  18.556  0.00  0.00    +0.000 C 
ATOM      6  C   UNL     1       0.770   3.380  18.201  0.00  0.00    +0.000 C 
ATOM      7  C   UNL     1       1.624   4.591  17.832  0.00  0.00    +0.000 C 
ATOM      8  C   UNL     1       2.684   4.905  18.891  0.00  0.00    +0.000 C 
ENDROOT
BRANCH   1   9
ATOM      9  C   UNL     1       5.624   4.935  19.036  0.00  0.00    +0.000 C 
ATOM     10  O   UNL     1       5.435   5.920  19.748  0.00  0.00    +0.000 OA
BRANCH   9  16
ATOM     11  C   UNL     1       5.786   4.300  16.556  0.00  0.00    +0.000 C 
ATOM     12  C   UNL     1       4.701   5.298  16.069  0.00  0.00    +0.000 C 
ATOM     13  C   UNL     1       5.241   6.708  15.822  0.00  0.00    +0.000 C 
ATOM     14  C   UNL     1       6.045   7.241  17.002  0.00  0.00    +0.000 C 
ATOM     15  C   UNL     1       7.129   6.260  17.435  0.00  0.00    +0.000 C 
ATOM     16  C   UNL     1       6.547   4.882  17.791  0.00  0.00    +0.000 C 
BRANCH  11  18
ATOM     17  C   UNL     1       5.968   3.856  13.981  0.00  0.00    +0.000 C 
ATOM     18  C   UNL     1       6.666   3.909  15.331  0.00  0.00    +0.000 C 
ENDBRANCH  11  18
BRANCH  16  19
ATOM     19  O   UNL     1       7.610   3.991  18.155  0.00  0.00    +0.000 OA
ATOM     20  H   UNL     1       8.290   4.008  17.458  0.00  0.00    +0.000 HD
ENDBRANCH  16  19
ENDBRANCH   9  16
ENDBRANCH   1   9
BRANCH   8  21
ATOM     21  C   UNL     1       2.093   5.629  20.118  0.00  0.00    +0.000 C 
ATOM     22  O   UNL     1       1.770   5.064  21.155  0.00  0.00    +0.000 OA
BRANCH  21  23
ATOM     23  O   UNL     1       1.808   6.932  19.836  0.00  0.00    +0.000 OA
BRANCH  23  24
ATOM     24  C   UNL     1       1.899   7.811  20.966  0.00  0.00    +0.000 C 
BRANCH  24  25
ATOM     25  C   UNL     1       0.593   8.511  21.311  0.00  0.00    +0.000 C 
BRANCH  25  26
ATOM     26  O   UNL     1       0.721   9.896  20.979  0.00  0.00    +0.000 OA
BRANCH  26  27
ATOM     27  C   UNL     1      -0.228  10.409  20.136  0.00  0.00    +0.000 A 
ATOM     28  C   UNL     1      -0.192   9.920  18.834  0.00  0.00    +0.000 A 
ATOM     29  C   UNL     1      -1.106  10.390  17.891  0.00  0.00    +0.000 A 
ATOM     30  C   UNL     1      -2.069  11.351  18.230  0.00  0.00    +0.000 A 
ATOM     31  C   UNL     1      -2.106  11.855  19.544  0.00  0.00    +0.000 A 
ATOM     32  C   UNL     1      -1.183  11.365  20.481  0.00  0.00    +0.000 A 
BRANCH  30  33
ATOM     33  O   UNL     1      -2.870  11.676  17.165  0.00  0.00    +0.000 OA
ATOM     34  C   UNL     1      -2.785  10.895  15.983  0.00  0.00    +0.000 C 
ENDBRANCH  30  33
BRANCH  31  35
ATOM     35  O   UNL     1      -3.034  12.812  19.856  0.00  0.00    +0.000 OA
ATOM     36  C   UNL     1      -2.817  13.618  21.008  0.00  0.00    +0.000 C 
ENDBRANCH  31  35
ENDBRANCH  26  27
ENDBRANCH  25  26
ENDBRANCH  24  25
ENDBRANCH  23  24
ENDBRANCH  21  23
ENDBRANCH   8  21
TORSDOF 12
ENDMDL
MODEL 2
REMARK VINA RESULT:      -7.6      1.346      1.846
REMARK  Name = 
REMARK  15 active torsions:
REMARK  status: ('A' for Active; 'I' for Inactive)
REMARK    1  A    between atoms: C_1  and  C_2
REMARK    2  A    between atoms: C_2  and  C_3
REMARK    3  A    between atoms: C_8  and  O_9
REMARK    4  A    between atoms: C_8  and  C_10
REMARK    5  A    between atoms: C_10  and  C_12
REMARK    6  A    between atoms: C_19  and  C_20
REMARK    7  A    between atoms: C_20  and  O_22
REMARK    8  A    between atoms: O_22  and  C_23
REMARK    9  A    between atoms: C_23  and  C_24
REMARK   10  A    between atoms: C_24  and  O_25
REMARK   11  A    between atoms: O_25  and  C_26
REMARK   12  A    between atoms: C_29  and  O_30
REMARK   13  A    between atoms: O_30  and  C_31
REMARK   14  A    between atoms: C_32  and  O_33
REMARK   15  A    between atoms: O_33  and  C_34
REMARK                            x       y       z     vdW  Elec       q    Type
REMARK                         _______ _______ _______ _____ _____    ______ ____
ROOT
ATOM      1  C   UNL     1       4.839   3.590  19.347  0.00  0.00    +0.000 C 
ATOM      2  O   UNL     1       5.430   2.565  19.661  0.00  0.00    +0.000 OA
ATOM      3  N   UNL     1       3.454   3.683  19.210  0.00  0.00    +0.000 N 
ATOM      4  C   UNL     1       2.622   2.541  19.577  0.00  0.00    +0.000 C 
ATOM      5  C   UNL     1       1.571   2.273  18.507  0.00  0.00    +0.000 C 
ATOM      6  C   UNL     1       0.754   3.525  18.196  0.00  0.00    +0.000 C 
ATOM      7  C   UNL     1       1.659   4.709  17.862  0.00  0.00    +0.000 C 
ATOM      8  C   UNL     1       2.735   4.940  18.927  0.00  0.00    +0.000 C 
ENDROOT
BRANCH   1   9
ATOM      9  C   UNL     1       5.674   4.835  19.059  0.00  0.00    +0.000 C 
ATOM     10  O   UNL     1       5.548   5.795  19.818  0.00  0.00    +0.000 OA
BRANCH   9  16
ATOM     11  C   UNL     1       5.769   4.254  16.562  0.00  0.00    +0.000 C 
ATOM     12  C   UNL     1       4.692   5.283  16.123  0.00  0.00    +0.000 C 
ATOM     13  C   UNL     1       5.253   6.688  15.896  0.00  0.00    +0.000 C 
ATOM     14  C   UNL     1       6.093   7.179  17.069  0.00  0.00    +0.000 C 
ATOM     15  C   UNL     1       7.168   6.168  17.454  0.00  0.00    +0.000 C 
ATOM     16  C   UNL     1       6.567   4.794  17.793  0.00  0.00    +0.000 C 
BRANCH  11  18
ATOM     17  C   UNL     1       5.877   3.831  13.981  0.00  0.00    +0.000 C 
ATOM     18  C   UNL     1       6.613   3.875  15.310  0.00  0.00    +0.000 C 
ENDBRANCH  11  18
BRANCH  16  19
ATOM     19  O   UNL     1       7.621   3.875  18.113  0.00  0.00    +0.000 OA
ATOM     20  H   UNL     1       7.751   3.267  17.363  0.00  0.00    +0.000 HD
ENDBRANCH  16  19
ENDBRANCH   9  16
ENDBRANCH   1   9
BRANCH   8  21
ATOM     21  C   UNL     1       2.181   5.649  20.179  0.00  0.00    +0.000 C 
ATOM     22  O   UNL     1       1.961   5.084  21.243  0.00  0.00    +0.000 OA
BRANCH  21  23
ATOM     23  O   UNL     1       1.797   6.926  19.899  0.00  0.00    +0.000 OA
BRANCH  23  24
ATOM     24  C   UNL     1       1.653   7.764  21.053  0.00  0.00    +0.000 C 
BRANCH  24  25
ATOM     25  C   UNL     1       1.025   9.120  20.760  0.00  0.00    +0.000 C 
BRANCH  25  26
ATOM     26  O   UNL     1       0.503   9.649  21.981  0.00  0.00    +0.000 OA
BRANCH  26  27
ATOM     27  C   UNL     1      -0.465  10.610  21.862  0.00  0.00    +0.000 A 
ATOM     28  C   UNL     1      -0.765  10.991  20.558  0.00  0.00    +0.000 A 
ATOM     29  C   UNL     1      -1.727  11.975  20.328  0.00  0.00    +0.000 A 
ATOM     30  C   UNL     1      -2.403  12.592  21.389  0.00  0.00    +0.000 A 
ATOM     31  C   UNL     1      -2.098  12.216  22.711  0.00  0.00    +0.000 A 
ATOM     32  C   UNL     1      -1.134  11.219  22.924  0.00  0.00    +0.000 A 
BRANCH  30  33
ATOM     33  O   UNL     1      -3.307  13.528  20.952  0.00  0.00    +0.000 OA
ATOM     34  C   UNL     1      -4.508  13.083  20.342  0.00  0.00    +0.000 C 
ENDBRANCH  30  33
BRANCH  31  35
ATOM     35  O   UNL     1      -2.748  12.843  23.741  0.00  0.00    +0.000 OA
ATOM     36  C   UNL     1      -4.017  12.344  24.147  0.00  0.00    +0.000 C 
ENDBRANCH  31  35
ENDBRANCH  26  27
ENDBRANCH  25  26
ENDBRANCH  24  25
ENDBRANCH  23  24
ENDBRANCH  21  23
ENDBRANCH   8  21
TORSDOF 12
ENDMDL
MODEL 3
REMARK VINA RESULT:      -7.6      1.435      2.287
REMARK  Name = 
REMARK  15 active torsions:
REMARK  status: ('A' for Active; 'I' for Inactive)
REMARK    1  A    between atoms: C_1  and  C_2
REMARK    2  A    between atoms: C_2  and  C_3
REMARK    3  A    between atoms: C_8  and  O_9
REMARK    4  A    between atoms: C_8  and  C_10
REMARK    5  A    between atoms: C_10  and  C_12
REMARK    6  A    between atoms: C_19  and  C_20
REMARK    7  A    between atoms: C_20  and  O_22
REMARK    8  A    between atoms: O_22  and  C_23
REMARK    9  A    between atoms: C_23  and  C_24
REMARK   10  A    between atoms: C_24  and  O_25
REMARK   11  A    between atoms: O_25  and  C_26
REMARK   12  A    between atoms: C_29  and  O_30
REMARK   13  A    between atoms: O_30  and  C_31
REMARK   14  A    between atoms: C_32  and  O_33
REMARK   15  A    between atoms: O_33  and  C_34
REMARK                            x       y       z     vdW  Elec       q    Type
REMARK                         _______ _______ _______ _____ _____    ______ ____
ROOT
ATOM      1  C   UNL     1       4.569   3.434  19.473  0.00  0.00    +0.000 C 
ATOM      2  O   UNL     1       5.158   2.463  19.930  0.00  0.00    +0.000 OA
ATOM      3  N   UNL     1       3.187   3.505  19.308  0.00  0.00    +0.000 N 
ATOM      4  C   UNL     1       2.351   2.422  19.815  0.00  0.00    +0.000 C 
ATOM      5  C   UNL     1       1.313   2.010  18.777  0.00  0.00    +0.000 C 
ATOM      6  C   UNL     1       0.499   3.208  18.291  0.00  0.00    +0.000 C 
ATOM      7  C   UNL     1       1.408   4.338  17.813  0.00  0.00    +0.000 C 
ATOM      8  C   UNL     1       2.471   4.712  18.850  0.00  0.00    +0.000 C 
ENDROOT
BRANCH   1   9
ATOM      9  C   UNL     1       5.407   4.632  19.032  0.00  0.00    +0.000 C 
ATOM     10  O   UNL     1       5.534   5.564  19.824  0.00  0.00    +0.000 OA
BRANCH   9  16
ATOM     11  C   UNL     1       5.364   5.720  16.709  0.00  0.00    +0.000 C 
ATOM     12  C   UNL     1       5.877   7.107  17.179  0.00  0.00    +0.000 C 
ATOM     13  C   UNL     1       7.402   7.190  17.273  0.00  0.00    +0.000 C 
ATOM     14  C   UNL     1       8.001   6.039  18.072  0.00  0.00    +0.000 C 
ATOM     15  C   UNL     1       7.512   4.687  17.565  0.00  0.00    +0.000 C 
ATOM     16  C   UNL     1       5.979   4.585  17.591  0.00  0.00    +0.000 C 
BRANCH  11  18
ATOM     17  C   UNL     1       5.358   4.248  14.543  0.00  0.00    +0.000 C 
ATOM     18  C   UNL     1       5.613   5.607  15.176  0.00  0.00    +0.000 C 
ENDBRANCH  11  18
BRANCH  16  19
ATOM     19  O   UNL     1       5.573   3.310  17.073  0.00  0.00    +0.000 OA
ATOM     20  H   UNL     1       5.749   3.287  16.115  0.00  0.00    +0.000 HD
ENDBRANCH  16  19
ENDBRANCH   9  16
ENDBRANCH   1   9
BRANCH   8  21
ATOM     21  C   UNL     1       1.901   5.581  19.989  0.00  0.00    +0.000 C 
ATOM     22  O   UNL     1       1.290   5.133  20.951  0.00  0.00    +0.000 OA
BRANCH  21  23
ATOM     23  O   UNL     1       1.999   6.909  19.698  0.00  0.00    +0.000 OA
BRANCH  23  24
ATOM     24  C   UNL     1       2.448   7.188  18.365  0.00  0.00    +0.000 C 
BRANCH  24  25
ATOM     25  C   UNL     1       2.495   8.671  18.025  0.00  0.00    +0.000 C 
BRANCH  25  26
ATOM     26  O   UNL     1       1.177   9.094  17.667  0.00  0.00    +0.000 OA
BRANCH  26  27
ATOM     27  C   UNL     1       0.574   9.986  18.511  0.00  0.00    +0.000 A 
ATOM     28  C   UNL     1      -0.788  10.176  18.301  0.00  0.00    +0.000 A 
ATOM     29  C   UNL     1      -1.494  11.077  19.098  0.00  0.00    +0.000 A 
ATOM     30  C   UNL     1      -0.856  11.801  20.115  0.00  0.00    +0.000 A 
ATOM     31  C   UNL     1       0.524  11.619  20.328  0.00  0.00    +0.000 A 
ATOM     32  C   UNL     1       1.217  10.703  19.521  0.00  0.00    +0.000 A 
BRANCH  30  33
ATOM     33  O   UNL     1      -1.724  12.629  20.782  0.00  0.00    +0.000 OA
ATOM     34  C   UNL     1      -1.837  13.979  20.360  0.00  0.00    +0.000 C 
ENDBRANCH  30  33
BRANCH  31  35
ATOM     35  O   UNL     1       1.141  12.351  21.307  0.00  0.00    +0.000 OA
ATOM     36  C   UNL     1       1.822  13.544  20.937  0.00  0.00    +0.000 C 
ENDBRANCH  31  35
ENDBRANCH  26  27
ENDBRANCH  25  26
ENDBRANCH  24  25
ENDBRANCH  23  24
ENDBRANCH  21  23
ENDBRANCH   8  21
TORSDOF 12
ENDMDL
MODEL 4
REMARK VINA RESULT:      -7.5      4.543      7.904
REMARK  Name = 
REMARK  15 active torsions:
REMARK  status: ('A' for Active; 'I' for Inactive)
REMARK    1  A    between atoms: C_1  and  C_2
REMARK    2  A    between atoms: C_2  and  C_3
REMARK    3  A    between atoms: C_8  and  O_9
REMARK    4  A    between atoms: C_8  and  C_10
REMARK    5  A    between atoms: C_10  and  C_12
REMARK    6  A    between atoms: C_19  and  C_20
REMARK    7  A    between atoms: C_20  and  O_22
REMARK    8  A    between atoms: O_22  and  C_23
REMARK    9  A    between atoms: C_23  and  C_24
REMARK   10  A    between atoms: C_24  and  O_25
REMARK   11  A    between atoms: O_25  and  C_26
REMARK   12  A    between atoms: C_29  and  O_30
REMARK   13  A    between atoms: O_30  and  C_31
REMARK   14  A    between atoms: C_32  and  O_33
REMARK   15  A    between atoms: O_33  and  C_34
REMARK                            x       y       z     vdW  Elec       q    Type
REMARK                         _______ _______ _______ _____ _____    ______ ____
ROOT
ATOM      1  C   UNL     1       3.991   6.234  17.613  0.00  0.00    +0.000 C 
ATOM      2  O   UNL     1       3.319   7.231  17.385  0.00  0.00    +0.000 OA
ATOM      3  N   UNL     1       4.979   5.746  16.760  0.00  0.00    +0.000 N 
ATOM      4  C   UNL     1       5.345   6.515  15.575  0.00  0.00    +0.000 C 
ATOM      5  C   UNL     1       5.437   5.611  14.351  0.00  0.00    +0.000 C 
ATOM      6  C   UNL     1       6.368   4.426  14.598  0.00  0.00    +0.000 C 
ATOM      7  C   UNL     1       5.984   3.674  15.870  0.00  0.00    +0.000 C 
ATOM      8  C   UNL     1       5.856   4.602  17.082  0.00  0.00    +0.000 C 
ENDROOT
BRANCH   1   9
ATOM      9  C   UNL     1       3.708   5.464  18.900  0.00  0.00    +0.000 C 
ATOM     10  O   UNL     1       4.456   5.656  19.857  0.00  0.00    +0.000 OA
BRANCH   9  16
ATOM     11  C   UNL     1       3.049   2.988  18.778  0.00  0.00    +0.000 C 
ATOM     12  C   UNL     1       3.732   2.580  20.110  0.00  0.00    +0.000 C 
ATOM     13  C   UNL     1       2.860   2.830  21.342  0.00  0.00    +0.000 C 
ATOM     14  C   UNL     1       2.294   4.245  21.379  0.00  0.00    +0.000 C 
ATOM     15  C   UNL     1       1.593   4.606  20.074  0.00  0.00    +0.000 C 
ATOM     16  C   UNL     1       2.528   4.460  18.862  0.00  0.00    +0.000 C 
BRANCH  11  18
ATOM     17  C   UNL     1       0.540   2.237  18.758  0.00  0.00    +0.000 C 
ATOM     18  C   UNL     1       1.986   1.904  18.429  0.00  0.00    +0.000 C 
ENDBRANCH  11  18
BRANCH  16  19
ATOM     19  O   UNL     1       1.810   4.777  17.661  0.00  0.00    +0.000 OA
ATOM     20  H   UNL     1       0.923   4.376  17.706  0.00  0.00    +0.000 HD
ENDBRANCH  16  19
ENDBRANCH   9  16
ENDBRANCH   1   9
BRANCH   8  21
ATOM     21  C   UNL     1       7.226   4.998  17.666  0.00  0.00    +0.000 C 
ATOM     22  O   UNL     1       7.802   4.369  18.545  0.00  0.00    +0.000 OA
BRANCH  21  23
ATOM     23  O   UNL     1       7.622   6.223  17.218  0.00  0.00    +0.000 OA
BRANCH  23  24
ATOM     24  C   UNL     1       8.063   7.113  18.252  0.00  0.00    +0.000 C 
BRANCH  24  25
ATOM     25  C   UNL     1       8.132   8.573  17.823  0.00  0.00    +0.000 C 
BRANCH  25  26
ATOM     26  O   UNL     1       8.876   9.297  18.806  0.00  0.00    +0.000 OA
BRANCH  26  27
ATOM     27  C   UNL     1       9.118  10.616  18.533  0.00  0.00    +0.000 A 
ATOM     28  C   UNL     1      10.364  11.086  18.935  0.00  0.00    +0.000 A 
ATOM     29  C   UNL     1      10.704  12.422  18.718  0.00  0.00    +0.000 A 
ATOM     30  C   UNL     1       9.811  13.307  18.099  0.00  0.00    +0.000 A 
ATOM     31  C   UNL     1       8.546  12.839  17.697  0.00  0.00    +0.000 A 
ATOM     32  C   UNL     1       8.223  11.491  17.916  0.00  0.00    +0.000 A 
BRANCH  30  33
ATOM     33  O   UNL     1      10.336  14.569  17.978  0.00  0.00    +0.000 OA
ATOM     34  C   UNL     1      11.645  14.813  18.469  0.00  0.00    +0.000 C 
ENDBRANCH  30  33
BRANCH  31  35
ATOM     35  O   UNL     1       7.672  13.720  17.116  0.00  0.00    +0.000 OA
ATOM     36  C   UNL     1       6.769  14.432  17.953  0.00  0.00    +0.000 C 
ENDBRANCH  31  35
ENDBRANCH  26  27
ENDBRANCH  25  26
ENDBRANCH  24  25
ENDBRANCH  23  24
ENDBRANCH  21  23
ENDBRANCH   8  21
TORSDOF 12
ENDMDL
MODEL 5
REMARK VINA RESULT:      -7.5      1.123      2.168
REMARK  Name = 
REMARK  15 active torsions:
REMARK  status: ('A' for Active; 'I' for Inactive)
REMARK    1  A    between atoms: C_1  and  C_2
REMARK    2  A    between atoms: C_2  and  C_3
REMARK    3  A    between atoms: C_8  and  O_9
REMARK    4  A    between atoms: C_8  and  C_10
REMARK    5  A    between atoms: C_10  and  C_12
REMARK    6  A    between atoms: C_19  and  C_20
REMARK    7  A    between atoms: C_20  and  O_22
REMARK    8  A    between atoms: O_22  and  C_23
REMARK    9  A    between atoms: C_23  and  C_24
REMARK   10  A    between atoms: C_24  and  O_25
REMARK   11  A    between atoms: O_25  and  C_26
REMARK   12  A    between atoms: C_29  and  O_30
REMARK   13  A    between atoms: O_30  and  C_31
REMARK   14  A    between atoms: C_32  and  O_33
REMARK   15  A    between atoms: O_33  and  C_34
REMARK                            x       y       z     vdW  Elec       q    Type
REMARK                         _______ _______ _______ _____ _____    ______ ____
ROOT
ATOM      1  C   UNL     1       4.587   3.434  19.494  0.00  0.00    +0.000 C 
ATOM      2  O   UNL     1       5.199   2.475  19.947  0.00  0.00    +0.000 OA
ATOM      3  N   UNL     1       3.201   3.481  19.354  0.00  0.00    +0.000 N 
ATOM      4  C   UNL     1       2.392   2.389  19.885  0.00  0.00    +0.000 C 
ATOM      5  C   UNL     1       1.341   1.951  18.871  0.00  0.00    +0.000 C 
ATOM      6  C   UNL     1       0.500   3.132  18.390  0.00  0.00    +0.000 C 
ATOM      7  C   UNL     1       1.381   4.272  17.886  0.00  0.00    +0.000 C 
ATOM      8  C   UNL     1       2.457   4.673  18.900  0.00  0.00    +0.000 C 
ENDROOT
BRANCH   1   9
ATOM      9  C   UNL     1       5.397   4.641  19.027  0.00  0.00    +0.000 C 
ATOM     10  O   UNL     1       5.510   5.588  19.803  0.00  0.00    +0.000 OA
BRANCH   9  16
ATOM     11  C   UNL     1       5.345   5.716  16.699  0.00  0.00    +0.000 C 
ATOM     12  C   UNL     1       5.870   7.103  17.157  0.00  0.00    +0.000 C 
ATOM     13  C   UNL     1       7.396   7.177  17.241  0.00  0.00    +0.000 C 
ATOM     14  C   UNL     1       7.993   6.026  18.043  0.00  0.00    +0.000 C 
ATOM     15  C   UNL     1       7.493   4.674  17.547  0.00  0.00    +0.000 C 
ATOM     16  C   UNL     1       5.959   4.582  17.583  0.00  0.00    +0.000 C 
BRANCH  11  18
ATOM     17  C   UNL     1       6.635   4.591  14.717  0.00  0.00    +0.000 C 
ATOM     18  C   UNL     1       5.583   5.594  15.165  0.00  0.00    +0.000 C 
ENDBRANCH  11  18
BRANCH  16  19
ATOM     19  O   UNL     1       5.542   3.308  17.075  0.00  0.00    +0.000 OA
ATOM     20  H   UNL     1       5.071   2.825  17.777  0.00  0.00    +0.000 HD
ENDBRANCH  16  19
ENDBRANCH   9  16
ENDBRANCH   1   9
BRANCH   8  21
ATOM     21  C   UNL     1       1.894   5.541  20.042  0.00  0.00    +0.000 C 
ATOM     22  O   UNL     1       1.110   5.133  20.889  0.00  0.00    +0.000 OA
BRANCH  21  23
ATOM     23  O   UNL     1       2.230   6.853  19.881  0.00  0.00    +0.000 OA
BRANCH  23  24
ATOM     24  C   UNL     1       2.653   7.193  18.554  0.00  0.00    +0.000 C 
BRANCH  24  25
ATOM     25  C   UNL     1       1.816   8.282  17.898  0.00  0.00    +0.000 C 
BRANCH  25  26
ATOM     26  O   UNL     1       1.892   9.460  18.706  0.00  0.00    +0.000 OA
BRANCH  26  27
ATOM     27  C   UNL     1       0.718  10.133  18.912  0.00  0.00    +0.000 A 
ATOM     28  C   UNL     1       0.609  10.773  20.142  0.00  0.00    +0.000 A 
ATOM     29  C   UNL     1      -0.555  11.474  20.458  0.00  0.00    +0.000 A 
ATOM     30  C   UNL     1      -1.625  11.549  19.555  0.00  0.00    +0.000 A 
ATOM     31  C   UNL     1      -1.523  10.896  18.312  0.00  0.00    +0.000 A 
ATOM     32  C   UNL     1      -0.342  10.202  18.008  0.00  0.00    +0.000 A 
BRANCH  30  33
ATOM     33  O   UNL     1      -2.670  12.283  20.055  0.00  0.00    +0.000 OA
ATOM     34  C   UNL     1      -2.395  13.536  20.663  0.00  0.00    +0.000 C 
ENDBRANCH  30  33
BRANCH  31  35
ATOM     35  O   UNL     1      -2.585  10.955  17.449  0.00  0.00    +0.000 OA
ATOM     36  C   UNL     1      -3.608   9.973  17.564  0.00  0.00    +0.000 C 
ENDBRANCH  31  35
ENDBRANCH  26  27
ENDBRANCH  25  26
ENDBRANCH  24  25
ENDBRANCH  23  24
ENDBRANCH  21  23
ENDBRANCH   8  21
TORSDOF 12
ENDMDL
MODEL 6
REMARK VINA RESULT:      -7.4      4.745      7.917
REMARK  Name = 
REMARK  15 active torsions:
REMARK  status: ('A' for Active; 'I' for Inactive)
REMARK    1  A    between atoms: C_1  and  C_2
REMARK    2  A    between atoms: C_2  and  C_3
REMARK    3  A    between atoms: C_8  and  O_9
REMARK    4  A    between atoms: C_8  and  C_10
REMARK    5  A    between atoms: C_10  and  C_12
REMARK    6  A    between atoms: C_19  and  C_20
REMARK    7  A    between atoms: C_20  and  O_22
REMARK    8  A    between atoms: O_22  and  C_23
REMARK    9  A    between atoms: C_23  and  C_24
REMARK   10  A    between atoms: C_24  and  O_25
REMARK   11  A    between atoms: O_25  and  C_26
REMARK   12  A    between atoms: C_29  and  O_30
REMARK   13  A    between atoms: O_30  and  C_31
REMARK   14  A    between atoms: C_32  and  O_33
REMARK   15  A    between atoms: O_33  and  C_34
REMARK                            x       y       z     vdW  Elec       q    Type
REMARK                         _______ _______ _______ _____ _____    ______ ____
ROOT
ATOM      1  C   UNL     1       4.293   6.022  17.894  0.00  0.00    +0.000 C 
ATOM      2  O   UNL     1       3.531   6.977  17.810  0.00  0.00    +0.000 OA
ATOM      3  N   UNL     1       5.142   5.607  16.870  0.00  0.00    +0.000 N 
ATOM      4  C   UNL     1       5.246   6.411  15.657  0.00  0.00    +0.000 C 
ATOM      5  C   UNL     1       5.175   5.529  14.416  0.00  0.00    +0.000 C 
ATOM      6  C   UNL     1       6.205   4.402  14.469  0.00  0.00    +0.000 C 
ATOM      7  C   UNL     1       6.097   3.613  15.772  0.00  0.00    +0.000 C 
ATOM      8  C   UNL     1       6.129   4.517  17.008  0.00  0.00    +0.000 C 
ENDROOT
BRANCH   1   9
ATOM      9  C   UNL     1       4.288   5.221  19.194  0.00  0.00    +0.000 C 
ATOM     10  O   UNL     1       5.322   5.208  19.861  0.00  0.00    +0.000 OA
BRANCH   9  16
ATOM     11  C   UNL     1       2.327   3.881  18.225  0.00  0.00    +0.000 C 
ATOM     12  C   UNL     1       3.198   2.744  17.626  0.00  0.00    +0.000 C 
ATOM     13  C   UNL     1       3.547   1.649  18.636  0.00  0.00    +0.000 C 
ATOM     14  C   UNL     1       4.122   2.212  19.931  0.00  0.00    +0.000 C 
ATOM     15  C   UNL     1       3.228   3.297  20.520  0.00  0.00    +0.000 C 
ATOM     16  C   UNL     1       2.988   4.444  19.525  0.00  0.00    +0.000 C 
BRANCH  11  18
ATOM     17  C   UNL     1       0.440   2.922  19.767  0.00  0.00    +0.000 C 
ATOM     18  C   UNL     1       0.872   3.346  18.373  0.00  0.00    +0.000 C 
ENDBRANCH  11  18
BRANCH  16  19
ATOM     19  O   UNL     1       2.115   5.418  20.116  0.00  0.00    +0.000 OA
ATOM     20  H   UNL     1       2.650   6.151  20.468  0.00  0.00    +0.000 HD
ENDBRANCH  16  19
ENDBRANCH   9  16
ENDBRANCH   1   9
BRANCH   8  21
ATOM     21  C   UNL     1       7.554   4.993  17.351  0.00  0.00    +0.000 C 
ATOM     22  O   UNL     1       8.356   4.336  18.004  0.00  0.00    +0.000 OA
BRANCH  21  23
ATOM     23  O   UNL     1       7.742   6.297  17.000  0.00  0.00    +0.000 OA
BRANCH  23  24
ATOM     24  C   UNL     1       7.985   7.175  18.107  0.00  0.00    +0.000 C 
BRANCH  24  25
ATOM     25  C   UNL     1       7.573   8.619  17.854  0.00  0.00    +0.000 C 
BRANCH  25  26
ATOM     26  O   UNL     1       8.746   9.377  17.553  0.00  0.00    +0.000 OA
BRANCH  26  27
ATOM     27  C   UNL     1       8.975  10.479  18.332  0.00  0.00    +0.000 A 
ATOM     28  C   UNL     1       9.273  10.212  19.664  0.00  0.00    +0.000 A 
ATOM     29  C   UNL     1       9.507  11.267  20.547  0.00  0.00    +0.000 A 
ATOM     30  C   UNL     1       9.448  12.600  20.117  0.00  0.00    +0.000 A 
ATOM     31  C   UNL     1       9.138  12.876  18.772  0.00  0.00    +0.000 A 
ATOM     32  C   UNL     1       8.913  11.803  17.896  0.00  0.00    +0.000 A 
BRANCH  30  33
ATOM     33  O   UNL     1       9.709  13.482  21.135  0.00  0.00    +0.000 OA
ATOM     34  C   UNL     1       9.082  13.278  22.392  0.00  0.00    +0.000 C 
ENDBRANCH  30  33
BRANCH  31  35
ATOM     35  O   UNL     1       9.058  14.183  18.370  0.00  0.00    +0.000 OA
ATOM     36  C   UNL     1      10.210  14.788  17.793  0.00  0.00    +0.000 C 
ENDBRANCH  31  35
ENDBRANCH  26  27
ENDBRANCH  25  26
ENDBRANCH  24  25
ENDBRANCH  23  24
ENDBRANCH  21  23
ENDBRANCH   8  21
TORSDOF 12
ENDMDL
MODEL 7
REMARK VINA RESULT:      -7.4      2.228      2.612
REMARK  Name = 
REMARK  15 active torsions:
REMARK  status: ('A' for Active; 'I' for Inactive)
REMARK    1  A    between atoms: C_1  and  C_2
REMARK    2  A    between atoms: C_2  and  C_3
REMARK    3  A    between atoms: C_8  and  O_9
REMARK    4  A    between atoms: C_8  and  C_10
REMARK    5  A    between atoms: C_10  and  C_12
REMARK    6  A    between atoms: C_19  and  C_20
REMARK    7  A    between atoms: C_20  and  O_22
REMARK    8  A    between atoms: O_22  and  C_23
REMARK    9  A    between atoms: C_23  and  C_24
REMARK   10  A    between atoms: C_24  and  O_25
REMARK   11  A    between atoms: O_25  and  C_26
REMARK   12  A    between atoms: C_29  and  O_30
REMARK   13  A    between atoms: O_30  and  C_31
REMARK   14  A    between atoms: C_32  and  O_33
REMARK   15  A    between atoms: O_33  and  C_34
REMARK                            x       y       z     vdW  Elec       q    Type
REMARK                         _______ _______ _______ _____ _____    ______ ____
ROOT
ATOM      1  C   UNL     1       4.853   3.569  19.268  0.00  0.00    +0.000 C 
ATOM      2  O   UNL     1       5.445   2.548  19.592  0.00  0.00    +0.000 OA
ATOM      3  N   UNL     1       3.471   3.655  19.111  0.00  0.00    +0.000 N 
ATOM      4  C   UNL     1       2.639   2.511  19.468  0.00  0.00    +0.000 C 
ATOM      5  C   UNL     1       1.604   2.235  18.384  0.00  0.00    +0.000 C 
ATOM      6  C   UNL     1       0.785   3.484  18.060  0.00  0.00    +0.000 C 
ATOM      7  C   UNL     1       1.690   4.671  17.737  0.00  0.00    +0.000 C 
ATOM      8  C   UNL     1       2.750   4.909  18.816  0.00  0.00    +0.000 C 
ENDROOT
BRANCH   1   9
ATOM      9  C   UNL     1       5.687   4.818  18.990  0.00  0.00    +0.000 C 
ATOM     10  O   UNL     1       5.563   5.770  19.758  0.00  0.00    +0.000 OA
BRANCH   9  16
ATOM     11  C   UNL     1       5.762   4.299  16.479  0.00  0.00    +0.000 C 
ATOM     12  C   UNL     1       4.707   5.361  16.069  0.00  0.00    +0.000 C 
ATOM     13  C   UNL     1       5.297   6.759  15.876  0.00  0.00    +0.000 C 
ATOM     14  C   UNL     1       6.151   7.202  17.059  0.00  0.00    +0.000 C 
ATOM     15  C   UNL     1       7.205   6.159  17.415  0.00  0.00    +0.000 C 
ATOM     16  C   UNL     1       6.576   4.790  17.720  0.00  0.00    +0.000 C 
BRANCH  11  18
ATOM     17  C   UNL     1       5.825   3.781  13.913  0.00  0.00    +0.000 C 
ATOM     18  C   UNL     1       6.595   3.934  15.214  0.00  0.00    +0.000 C 
ENDBRANCH  11  18
BRANCH  16  19
ATOM     19  O   UNL     1       7.611   3.841  18.013  0.00  0.00    +0.000 OA
ATOM     20  H   UNL     1       8.261   4.255  18.609  0.00  0.00    +0.000 HD
ENDBRANCH  16  19
ENDBRANCH   9  16
ENDBRANCH   1   9
BRANCH   8  21
ATOM     21  C   UNL     1       2.175   5.617  20.059  0.00  0.00    +0.000 C 
ATOM     22  O   UNL     1       1.302   5.141  20.774  0.00  0.00    +0.000 OA
BRANCH  21  23
ATOM     23  O   UNL     1       2.622   6.902  20.151  0.00  0.00    +0.000 OA
BRANCH  23  24
ATOM     24  C   UNL     1       1.857   7.847  19.392  0.00  0.00    +0.000 C 
BRANCH  24  25
ATOM     25  C   UNL     1       1.272   8.980  20.223  0.00  0.00    +0.000 C 
BRANCH  25  26
ATOM     26  O   UNL     1       0.751   9.971  19.334  0.00  0.00    +0.000 OA
BRANCH  26  27
ATOM     27  C   UNL     1       1.212  11.248  19.510  0.00  0.00    +0.000 A 
ATOM     28  C   UNL     1       1.840  11.810  18.404  0.00  0.00    +0.000 A 
ATOM     29  C   UNL     1       2.360  13.102  18.484  0.00  0.00    +0.000 A 
ATOM     30  C   UNL     1       2.262  13.852  19.664  0.00  0.00    +0.000 A 
ATOM     31  C   UNL     1       1.634  13.286  20.789  0.00  0.00    +0.000 A 
ATOM     32  C   UNL     1       1.111  11.988  20.689  0.00  0.00    +0.000 A 
BRANCH  30  33
ATOM     33  O   UNL     1       2.832  15.094  19.535  0.00  0.00    +0.000 OA
ATOM     34  C   UNL     1       2.254  16.019  18.627  0.00  0.00    +0.000 C 
ENDBRANCH  30  33
BRANCH  31  35
ATOM     35  O   UNL     1       1.567  14.018  21.944  0.00  0.00    +0.000 OA
ATOM     36  C   UNL     1       0.464  14.900  22.125  0.00  0.00    +0.000 C 
ENDBRANCH  31  35
ENDBRANCH  26  27
ENDBRANCH  25  26
ENDBRANCH  24  25
ENDBRANCH  23  24
ENDBRANCH  21  23
ENDBRANCH   8  21
TORSDOF 12
ENDMDL
MODEL 8
REMARK VINA RESULT:      -7.4      1.890      2.426
REMARK  Name = 
REMARK  15 active torsions:
REMARK  status: ('A' for Active; 'I' for Inactive)
REMARK    1  A    between atoms: C_1  and  C_2
REMARK    2  A    between atoms: C_2  and  C_3
REMARK    3  A    between atoms: C_8  and  O_9
REMARK    4  A    between atoms: C_8  and  C_10
REMARK    5  A    between atoms: C_10  and  C_12
REMARK    6  A    between atoms: C_19  and  C_20
REMARK    7  A    between atoms: C_20  and  O_22
REMARK    8  A    between atoms: O_22  and  C_23
REMARK    9  A    between atoms: C_23  and  C_24
REMARK   10  A    between atoms: C_24  and  O_25
REMARK   11  A    between atoms: O_25  and  C_26
REMARK   12  A    between atoms: C_29  and  O_30
REMARK   13  A    between atoms: O_30  and  C_31
REMARK   14  A    between atoms: C_32  and  O_33
REMARK   15  A    between atoms: O_33  and  C_34
REMARK                            x       y       z     vdW  Elec       q    Type
REMARK                         _______ _______ _______ _____ _____    ______ ____
ROOT
ATOM      1  C   UNL     1       4.842   3.561  19.410  0.00  0.00    +0.000 C 
ATOM      2  O   UNL     1       5.448   2.573  19.805  0.00  0.00    +0.000 OA
ATOM      3  N   UNL     1       3.459   3.617  19.248  0.00  0.00    +0.000 N 
ATOM      4  C   UNL     1       2.642   2.489  19.684  0.00  0.00    +0.000 C 
ATOM      5  C   UNL     1       1.612   2.124  18.622  0.00  0.00    +0.000 C 
ATOM      6  C   UNL     1       0.777   3.336  18.210  0.00  0.00    +0.000 C 
ATOM      7  C   UNL     1       1.666   4.509  17.805  0.00  0.00    +0.000 C 
ATOM      8  C   UNL     1       2.721   4.837  18.865  0.00  0.00    +0.000 C 
ENDROOT
BRANCH   1   9
ATOM      9  C   UNL     1       5.659   4.798  19.045  0.00  0.00    +0.000 C 
ATOM     10  O   UNL     1       5.551   5.788  19.768  0.00  0.00    +0.000 OA
BRANCH   9  16
ATOM     11  C   UNL     1       5.669   4.142  16.565  0.00  0.00    +0.000 C 
ATOM     12  C   UNL     1       4.590   5.169  16.129  0.00  0.00    +0.000 C 
ATOM     13  C   UNL     1       5.156   6.561  15.842  0.00  0.00    +0.000 C 
ATOM     14  C   UNL     1       6.038   7.077  16.974  0.00  0.00    +0.000 C 
ATOM     15  C   UNL     1       7.114   6.067  17.355  0.00  0.00    +0.000 C 
ATOM     16  C   UNL     1       6.512   4.710  17.753  0.00  0.00    +0.000 C 
BRANCH  11  18
ATOM     17  C   UNL     1       6.676   4.784  14.234  0.00  0.00    +0.000 C 
ATOM     18  C   UNL     1       6.470   3.718  15.299  0.00  0.00    +0.000 C 
ENDBRANCH  11  18
BRANCH  16  19
ATOM     19  O   UNL     1       7.567   3.790  18.068  0.00  0.00    +0.000 OA
ATOM     20  H   UNL     1       7.692   3.770  19.033  0.00  0.00    +0.000 HD
ENDBRANCH  16  19
ENDBRANCH   9  16
ENDBRANCH   1   9
BRANCH   8  21
ATOM     21  C   UNL     1       2.135   5.622  20.055  0.00  0.00    +0.000 C 
ATOM     22  O   UNL     1       1.909   5.131  21.154  0.00  0.00    +0.000 OA
BRANCH  21  23
ATOM     23  O   UNL     1       1.733   6.870  19.678  0.00  0.00    +0.000 OA
BRANCH  23  24
ATOM     24  C   UNL     1       2.722   7.612  18.952  0.00  0.00    +0.000 C 
BRANCH  24  25
ATOM     25  C   UNL     1       2.151   8.468  17.830  0.00  0.00    +0.000 C 
BRANCH  25  26
ATOM     26  O   UNL     1       0.875   8.963  18.243  0.00  0.00    +0.000 OA
BRANCH  26  27
ATOM     27  C   UNL     1       0.885   9.980  19.159  0.00  0.00    +0.000 A 
ATOM     28  C   UNL     1       1.385  11.192  18.694  0.00  0.00    +0.000 A 
ATOM     29  C   UNL     1       1.454  12.289  19.553  0.00  0.00    +0.000 A 
ATOM     30  C   UNL     1       1.026  12.196  20.885  0.00  0.00    +0.000 A 
ATOM     31  C   UNL     1       0.527  10.970  21.363  0.00  0.00    +0.000 A 
ATOM     32  C   UNL     1       0.458   9.879  20.483  0.00  0.00    +0.000 A 
BRANCH  30  33
ATOM     33  O   UNL     1       1.175  13.382  21.559  0.00  0.00    +0.000 OA
ATOM     34  C   UNL     1       0.125  14.335  21.503  0.00  0.00    +0.000 C 
ENDBRANCH  30  33
BRANCH  31  35
ATOM     35  O   UNL     1       0.135  10.885  22.673  0.00  0.00    +0.000 OA
ATOM     36  C   UNL     1      -1.229  11.133  22.991  0.00  0.00    +0.000 C 
ENDBRANCH  31  35
ENDBRANCH  26  27
ENDBRANCH  25  26
ENDBRANCH  24  25
ENDBRANCH  23  24
ENDBRANCH  21  23
ENDBRANCH   8  21
TORSDOF 12
ENDMDL
MODEL 9
REMARK VINA RESULT:      -7.4      1.186      1.990
REMARK  Name = 
REMARK  15 active torsions:
REMARK  status: ('A' for Active; 'I' for Inactive)
REMARK    1  A    between atoms: C_1  and  C_2
REMARK    2  A    between atoms: C_2  and  C_3
REMARK    3  A    between atoms: C_8  and  O_9
REMARK    4  A    between atoms: C_8  and  C_10
REMARK    5  A    between atoms: C_10  and  C_12
REMARK    6  A    between atoms: C_19  and  C_20
REMARK    7  A    between atoms: C_20  and  O_22
REMARK    8  A    between atoms: O_22  and  C_23
REMARK    9  A    between atoms: C_23  and  C_24
REMARK   10  A    between atoms: C_24  and  O_25
REMARK   11  A    between atoms: O_25  and  C_26
REMARK   12  A    between atoms: C_29  and  O_30
REMARK   13  A    between atoms: O_30  and  C_31
REMARK   14  A    between atoms: C_32  and  O_33
REMARK   15  A    between atoms: O_33  and  C_34
REMARK                            x       y       z     vdW  Elec       q    Type
REMARK                         _______ _______ _______ _____ _____    ______ ____
ROOT
ATOM      1  C   UNL     1       4.848   3.661  19.498  0.00  0.00    +0.000 C 
ATOM      2  O   UNL     1       5.474   2.727  19.981  0.00  0.00    +0.000 OA
ATOM      3  N   UNL     1       3.467   3.659  19.305  0.00  0.00    +0.000 N 
ATOM      4  C   UNL     1       2.676   2.543  19.813  0.00  0.00    +0.000 C 
ATOM      5  C   UNL     1       1.681   2.064  18.763  0.00  0.00    +0.000 C 
ATOM      6  C   UNL     1       0.818   3.212  18.241  0.00  0.00    +0.000 C 
ATOM      7  C   UNL     1       1.679   4.378  17.762  0.00  0.00    +0.000 C 
ATOM      8  C   UNL     1       2.701   4.822  18.813  0.00  0.00    +0.000 C 
ENDROOT
BRANCH   1   9
ATOM      9  C   UNL     1       5.634   4.891  19.053  0.00  0.00    +0.000 C 
ATOM     10  O   UNL     1       5.504   5.921  19.712  0.00  0.00    +0.000 OA
BRANCH   9  16
ATOM     11  C   UNL     1       5.626   4.170  16.591  0.00  0.00    +0.000 C 
ATOM     12  C   UNL     1       4.579   5.217  16.126  0.00  0.00    +0.000 C 
ATOM     13  C   UNL     1       5.189   6.583  15.803  0.00  0.00    +0.000 C 
ATOM     14  C   UNL     1       6.085   7.101  16.922  0.00  0.00    +0.000 C 
ATOM     15  C   UNL     1       7.129   6.069  17.332  0.00  0.00    +0.000 C 
ATOM     16  C   UNL     1       6.485   4.742  17.765  0.00  0.00    +0.000 C 
BRANCH  11  18
ATOM     17  C   UNL     1       6.698   4.730  14.268  0.00  0.00    +0.000 C 
ATOM     18  C   UNL     1       6.414   3.687  15.338  0.00  0.00    +0.000 C 
ENDBRANCH  11  18
BRANCH  16  19
ATOM     19  O   UNL     1       7.510   3.799  18.106  0.00  0.00    +0.000 OA
ATOM     20  H   UNL     1       7.984   4.117  18.895  0.00  0.00    +0.000 HD
ENDBRANCH  16  19
ENDBRANCH   9  16
ENDBRANCH   1   9
BRANCH   8  21
ATOM     21  C   UNL     1       2.065   5.678  19.926  0.00  0.00    +0.000 C 
ATOM     22  O   UNL     1       1.258   5.250  20.741  0.00  0.00    +0.000 OA
BRANCH  21  23
ATOM     23  O   UNL     1       2.371   6.998  19.774  0.00  0.00    +0.000 OA
BRANCH  23  24
ATOM     24  C   UNL     1       2.259   7.476  18.427  0.00  0.00    +0.000 C 
BRANCH  24  25
ATOM     25  C   UNL     1       2.318   8.992  18.302  0.00  0.00    +0.000 C 
BRANCH  25  26
ATOM     26  O   UNL     1       1.043   9.460  17.857  0.00  0.00    +0.000 OA
BRANCH  26  27
ATOM     27  C   UNL     1       0.287  10.132  18.779  0.00  0.00    +0.000 A 
ATOM     28  C   UNL     1      -0.824  10.795  18.267  0.00  0.00    +0.000 A 
ATOM     29  C   UNL     1      -1.651  11.524  19.121  0.00  0.00    +0.000 A 
ATOM     30  C   UNL     1      -1.387  11.603  20.495  0.00  0.00    +0.000 A 
ATOM     31  C   UNL     1      -0.260  10.941  21.018  0.00  0.00    +0.000 A 
ATOM     32  C   UNL     1       0.557  10.207  20.146  0.00  0.00    +0.000 A 
BRANCH  30  33
ATOM     33  O   UNL     1      -2.317  12.364  21.157  0.00  0.00    +0.000 OA
ATOM     34  C   UNL     1      -3.522  12.703  20.487  0.00  0.00    +0.000 C 
ENDBRANCH  30  33
BRANCH  31  35
ATOM     35  O   UNL     1       0.002  11.047  22.358  0.00  0.00    +0.000 OA
ATOM     36  C   UNL     1      -0.396   9.982  23.214  0.00  0.00    +0.000 C 
ENDBRANCH  31  35
ENDBRANCH  26  27
ENDBRANCH  25  26
ENDBRANCH  24  25
ENDBRANCH  23  24
ENDBRANCH  21  23
ENDBRANCH   8  21
TORSDOF 12
ENDMDL
