MODEL 1
REMARK VINA RESULT:      -8.8      0.000      0.000
REMARK  Name = 
REMARK  7 active torsions:
REMARK  status: ('A' for Active; 'I' for Inactive)
REMARK    1  A    between atoms: C_1  and  C_2
REMARK    2  A    between atoms: C_3  and  C_4
REMARK    3  A    between atoms: N_6  and  C_7
REMARK    4  A    between atoms: C_7  and  C_8
REMARK    5  A    between atoms: C_13  and  N_14
REMARK    6  A    between atoms: N_17  and  C_18
REMARK    7  A    between atoms: N_21  and  C_22
REMARK                            x       y       z     vdW  Elec       q    Type
REMARK                         _______ _______ _______ _____ _____    ______ ____
ROOT
ATOM      1  C   UNL     1       2.214   8.808  18.096  0.00  0.00    +0.000 C 
ATOM      2  O   UNL     1       1.955   9.253  16.985  0.00  0.00    +0.000 OA
ATOM      3  N   UNL     1       3.165   7.777  18.261  0.00  0.00    +0.000 N 
ATOM      4  H   UNL     1       3.598   7.741  19.167  0.00  0.00    +0.000 HD
ENDROOT
BRANCH   1   7
ATOM      5  C   UNL     1       1.436   7.069  20.708  0.00  0.00    +0.000 C 
ATOM      6  C   UNL     1       1.210   8.519  20.490  0.00  0.00    +0.000 A 
ATOM      7  C   UNL     1       1.538   9.283  19.355  0.00  0.00    +0.000 A 
ATOM      8  N   UNL     1       0.979  10.550  19.628  0.00  0.00    +0.000 N 
ATOM      9  C   UNL     1       0.979  11.752  18.820  0.00  0.00    +0.000 C 
ATOM     10  C   UNL     1       0.341  10.573  20.877  0.00  0.00    +0.000 A 
ATOM     11  C   UNL     1      -0.385  11.589  21.550  0.00  0.00    +0.000 A 
ATOM     12  C   UNL     1      -0.942  11.297  22.807  0.00  0.00    +0.000 A 
ATOM     13  C   UNL     1      -0.764  10.053  23.391  0.00  0.00    +0.000 A 
ATOM     14  C   UNL     1      -0.040   9.066  22.720  0.00  0.00    +0.000 A 
ATOM     15  C   UNL     1       0.509   9.322  21.442  0.00  0.00    +0.000 A 
ENDBRANCH   1   7
BRANCH   3  16
ATOM     16  C   UNL     1       3.899   6.992  17.215  0.00  0.00    +0.000 C 
BRANCH  16  17
ATOM     17  C   UNL     1       5.215   6.343  17.709  0.00  0.00    +0.000 A 
ATOM     18  C   UNL     1       6.426   7.043  17.557  0.00  0.00    +0.000 A 
ATOM     19  C   UNL     1       7.657   6.455  17.840  0.00  0.00    +0.000 A 
ATOM     20  C   UNL     1       7.660   5.183  18.356  0.00  0.00    +0.000 A 
ATOM     21  N   UNL     1       6.532   4.511  18.636  0.00  0.00    +0.000 NA
ATOM     22  C   UNL     1       5.324   5.068  18.325  0.00  0.00    +0.000 A 
BRANCH  22  23
ATOM     23  N   UNL     1       4.222   4.245  18.525  0.00  0.00    +0.000 N 
ATOM     24  C   UNL     1       3.861   3.457  17.320  0.00  0.00    +0.000 C 
ATOM     25  C   UNL     1       2.387   3.074  17.498  0.00  0.00    +0.000 C 
ATOM     26  N   UNL     1       2.159   2.216  18.688  0.00  0.00    +0.000 NA
ATOM     27  C   UNL     1       0.715   2.105  18.907  0.00  0.00    +0.000 C 
ATOM     28  C   UNL     1       2.832   2.779  19.895  0.00  0.00    +0.000 C 
ATOM     29  C   UNL     1       4.286   3.303  19.662  0.00  0.00    +0.000 C 
ENDBRANCH  22  23
ENDBRANCH  16  17
ENDBRANCH   3  16
TORSDOF 4
ENDMDL
MODEL 2
REMARK VINA RESULT:      -8.6      1.553      3.503
REMARK  Name = 
REMARK  7 active torsions:
REMARK  status: ('A' for Active; 'I' for Inactive)
REMARK    1  A    between atoms: C_1  and  C_2
REMARK    2  A    between atoms: C_3  and  C_4
REMARK    3  A    between atoms: N_6  and  C_7
REMARK    4  A    between atoms: C_7  and  C_8
REMARK    5  A    between atoms: C_13  and  N_14
REMARK    6  A    between atoms: N_17  and  C_18
REMARK    7  A    between atoms: N_21  and  C_22
REMARK                            x       y       z     vdW  Elec       q    Type
REMARK                         _______ _______ _______ _____ _____    ______ ____
ROOT
ATOM      1  C   UNL     1       1.422   9.191  18.928  0.00  0.00    +0.000 C 
ATOM      2  O   UNL     1       1.290   9.395  17.728  0.00  0.00    +0.000 OA
ATOM      3  N   UNL     1       2.125   8.061  19.399  0.00  0.00    +0.000 N 
ATOM      4  H   UNL     1       2.520   8.160  20.318  0.00  0.00    +0.000 HD
ENDROOT
BRANCH   1   7
ATOM      5  C   UNL     1      -0.455   8.345  21.421  0.00  0.00    +0.000 C 
ATOM      6  C   UNL     1       0.024   9.706  21.074  0.00  0.00    +0.000 A 
ATOM      7  C   UNL     1       0.834  10.085  19.988  0.00  0.00    +0.000 A 
ATOM      8  N   UNL     1       0.859  11.494  20.062  0.00  0.00    +0.000 N 
ATOM      9  C   UNL     1       1.521  12.452  19.200  0.00  0.00    +0.000 C 
ATOM     10  C   UNL     1       0.105  11.966  21.147  0.00  0.00    +0.000 A 
ATOM     11  C   UNL     1      -0.193  13.280  21.592  0.00  0.00    +0.000 A 
ATOM     12  C   UNL     1      -1.015  13.438  22.721  0.00  0.00    +0.000 A 
ATOM     13  C   UNL     1      -1.503  12.335  23.403  0.00  0.00    +0.000 A 
ATOM     14  C   UNL     1      -1.195  11.048  22.958  0.00  0.00    +0.000 A 
ATOM     15  C   UNL     1      -0.392  10.859  21.809  0.00  0.00    +0.000 A 
ENDBRANCH   1   7
BRANCH   3  16
ATOM     16  C   UNL     1       2.699   6.914  18.623  0.00  0.00    +0.000 C 
BRANCH  16  17
ATOM     17  C   UNL     1       2.681   5.560  19.375  0.00  0.00    +0.000 A 
ATOM     18  C   UNL     1       1.800   5.387  20.458  0.00  0.00    +0.000 A 
ATOM     19  C   UNL     1       1.841   4.255  21.268  0.00  0.00    +0.000 A 
ATOM     20  C   UNL     1       2.722   3.256  20.933  0.00  0.00    +0.000 A 
ATOM     21  N   UNL     1       3.502   3.312  19.842  0.00  0.00    +0.000 NA
ATOM     22  C   UNL     1       3.492   4.436  19.067  0.00  0.00    +0.000 A 
BRANCH  22  23
ATOM     23  N   UNL     1       4.429   4.458  18.040  0.00  0.00    +0.000 N 
ATOM     24  C   UNL     1       5.827   4.541  18.532  0.00  0.00    +0.000 C 
ATOM     25  C   UNL     1       6.646   5.110  17.368  0.00  0.00    +0.000 C 
ATOM     26  N   UNL     1       6.635   4.224  16.176  0.00  0.00    +0.000 NA
ATOM     27  C   UNL     1       7.233   4.953  15.055  0.00  0.00    +0.000 C 
ATOM     28  C   UNL     1       5.248   3.788  15.840  0.00  0.00    +0.000 C 
ATOM     29  C   UNL     1       4.375   3.352  17.060  0.00  0.00    +0.000 C 
ENDBRANCH  22  23
ENDBRANCH  16  17
ENDBRANCH   3  16
TORSDOF 4
ENDMDL
MODEL 3
REMARK VINA RESULT:      -8.4      0.513      1.746
REMARK  Name = 
REMARK  7 active torsions:
REMARK  status: ('A' for Active; 'I' for Inactive)
REMARK    1  A    between atoms: C_1  and  C_2
REMARK    2  A    between atoms: C_3  and  C_4
REMARK    3  A    between atoms: N_6  and  C_7
REMARK    4  A    between atoms: C_7  and  C_8
REMARK    5  A    between atoms: C_13  and  N_14
REMARK    6  A    between atoms: N_17  and  C_18
REMARK    7  A    between atoms: N_21  and  C_22
REMARK                            x       y       z     vdW  Elec       q    Type
REMARK                         _______ _______ _______ _____ _____    ______ ____
ROOT
ATOM      1  C   UNL     1       2.293   8.963  18.103  0.00  0.00    +0.000 C 
ATOM      2  O   UNL     1       2.378   9.655  17.096  0.00  0.00    +0.000 OA
ATOM      3  N   UNL     1       2.979   7.733  18.198  0.00  0.00    +0.000 N 
ATOM      4  H   UNL     1       3.181   7.431  19.136  0.00  0.00    +0.000 HD
ENDROOT
BRANCH   1   7
ATOM      5  C   UNL     1       0.912  11.815  18.743  0.00  0.00    +0.000 C 
ATOM      6  C   UNL     1       0.841  10.577  19.557  0.00  0.00    +0.000 A 
ATOM      7  C   UNL     1       1.444   9.333  19.290  0.00  0.00    +0.000 A 
ATOM      8  N   UNL     1       1.168   8.571  20.445  0.00  0.00    +0.000 N 
ATOM      9  C   UNL     1       1.546   7.210  20.764  0.00  0.00    +0.000 C 
ATOM     10  C   UNL     1       0.423   9.304  21.381  0.00  0.00    +0.000 A 
ATOM     11  C   UNL     1      -0.046   8.981  22.681  0.00  0.00    +0.000 A 
ATOM     12  C   UNL     1      -0.758   9.955  23.400  0.00  0.00    +0.000 A 
ATOM     13  C   UNL     1      -1.024  11.196  22.844  0.00  0.00    +0.000 A 
ATOM     14  C   UNL     1      -0.563  11.497  21.560  0.00  0.00    +0.000 A 
ATOM     15  C   UNL     1       0.180  10.546  20.823  0.00  0.00    +0.000 A 
ENDBRANCH   1   7
BRANCH   3  16
ATOM     16  C   UNL     1       3.779   7.014  17.154  0.00  0.00    +0.000 C 
BRANCH  16  17
ATOM     17  C   UNL     1       5.105   6.404  17.671  0.00  0.00    +0.000 A 
ATOM     18  C   UNL     1       6.303   7.125  17.510  0.00  0.00    +0.000 A 
ATOM     19  C   UNL     1       7.544   6.570  17.815  0.00  0.00    +0.000 A 
ATOM     20  C   UNL     1       7.569   5.310  18.360  0.00  0.00    +0.000 A 
ATOM     21  N   UNL     1       6.453   4.622  18.649  0.00  0.00    +0.000 NA
ATOM     22  C   UNL     1       5.237   5.146  18.317  0.00  0.00    +0.000 A 
BRANCH  22  23
ATOM     23  N   UNL     1       4.150   4.305  18.529  0.00  0.00    +0.000 N 
ATOM     24  C   UNL     1       3.853   3.436  17.362  0.00  0.00    +0.000 C 
ATOM     25  C   UNL     1       2.385   3.022  17.513  0.00  0.00    +0.000 C 
ATOM     26  N   UNL     1       2.137   2.231  18.745  0.00  0.00    +0.000 NA
ATOM     27  C   UNL     1       0.690   2.092  18.921  0.00  0.00    +0.000 C 
ATOM     28  C   UNL     1       2.752   2.884  19.938  0.00  0.00    +0.000 C 
ATOM     29  C   UNL     1       4.198   3.434  19.723  0.00  0.00    +0.000 C 
ENDBRANCH  22  23
ENDBRANCH  16  17
ENDBRANCH   3  16
TORSDOF 4
ENDMDL
MODEL 4
REMARK VINA RESULT:      -8.3      1.690      3.881
REMARK  Name = 
REMARK  7 active torsions:
REMARK  status: ('A' for Active; 'I' for Inactive)
REMARK    1  A    between atoms: C_1  and  C_2
REMARK    2  A    between atoms: C_3  and  C_4
REMARK    3  A    between atoms: N_6  and  C_7
REMARK    4  A    between atoms: C_7  and  C_8
REMARK    5  A    between atoms: C_13  and  N_14
REMARK    6  A    between atoms: N_17  and  C_18
REMARK    7  A    between atoms: N_21  and  C_22
REMARK                            x       y       z     vdW  Elec       q    Type
REMARK                         _______ _______ _______ _____ _____    ______ ____
ROOT
ATOM      1  C   UNL     1       1.511   9.158  19.067  0.00  0.00    +0.000 C 
ATOM      2  O   UNL     1       2.027   9.644  18.068  0.00  0.00    +0.000 OA
ATOM      3  N   UNL     1       1.824   7.844  19.480  0.00  0.00    +0.000 N 
ATOM      4  H   UNL     1       1.689   7.664  20.459  0.00  0.00    +0.000 HD
ENDROOT
BRANCH   1   7
ATOM      5  C   UNL     1      -0.765  11.231  18.081  0.00  0.00    +0.000 C 
ATOM      6  C   UNL     1      -0.497  10.780  19.468  0.00  0.00    +0.000 A 
ATOM      7  C   UNL     1       0.496   9.884  19.908  0.00  0.00    +0.000 A 
ATOM      8  N   UNL     1       0.389   9.928  21.315  0.00  0.00    +0.000 N 
ATOM      9  C   UNL     1       1.160   9.227  22.320  0.00  0.00    +0.000 C 
ATOM     10  C   UNL     1      -0.627  10.804  21.728  0.00  0.00    +0.000 A 
ATOM     11  C   UNL     1      -1.068  11.200  23.016  0.00  0.00    +0.000 A 
ATOM     12  C   UNL     1      -2.113  12.135  23.111  0.00  0.00    +0.000 A 
ATOM     13  C   UNL     1      -2.720  12.639  21.972  0.00  0.00    +0.000 A 
ATOM     14  C   UNL     1      -2.280  12.233  20.710  0.00  0.00    +0.000 A 
ATOM     15  C   UNL     1      -1.212  11.315  20.584  0.00  0.00    +0.000 A 
ENDBRANCH   1   7
BRANCH   3  16
ATOM     16  C   UNL     1       2.670   6.814  18.794  0.00  0.00    +0.000 C 
BRANCH  16  17
ATOM     17  C   UNL     1       2.658   5.422  19.470  0.00  0.00    +0.000 A 
ATOM     18  C   UNL     1       1.779   5.187  20.544  0.00  0.00    +0.000 A 
ATOM     19  C   UNL     1       1.825   4.012  21.291  0.00  0.00    +0.000 A 
ATOM     20  C   UNL     1       2.708   3.036  20.901  0.00  0.00    +0.000 A 
ATOM     21  N   UNL     1       3.487   3.154  19.813  0.00  0.00    +0.000 NA
ATOM     22  C   UNL     1       3.472   4.318  19.101  0.00  0.00    +0.000 A 
BRANCH  22  23
ATOM     23  N   UNL     1       4.406   4.399  18.075  0.00  0.00    +0.000 N 
ATOM     24  C   UNL     1       5.807   4.401  18.567  0.00  0.00    +0.000 C 
ATOM     25  C   UNL     1       6.640   5.041  17.450  0.00  0.00    +0.000 C 
ATOM     26  N   UNL     1       6.602   4.259  16.189  0.00  0.00    +0.000 NA
ATOM     27  C   UNL     1       7.218   5.061  15.129  0.00  0.00    +0.000 C 
ATOM     28  C   UNL     1       5.202   3.892  15.824  0.00  0.00    +0.000 C 
ATOM     29  C   UNL     1       4.320   3.380  17.007  0.00  0.00    +0.000 C 
ENDBRANCH  22  23
ENDBRANCH  16  17
ENDBRANCH   3  16
TORSDOF 4
ENDMDL
MODEL 5
REMARK VINA RESULT:      -8.2      2.180      4.010
REMARK  Name = 
REMARK  7 active torsions:
REMARK  status: ('A' for Active; 'I' for Inactive)
REMARK    1  A    between atoms: C_1  and  C_2
REMARK    2  A    between atoms: C_3  and  C_4
REMARK    3  A    between atoms: N_6  and  C_7
REMARK    4  A    between atoms: C_7  and  C_8
REMARK    5  A    between atoms: C_13  and  N_14
REMARK    6  A    between atoms: N_17  and  C_18
REMARK    7  A    between atoms: N_21  and  C_22
REMARK                            x       y       z     vdW  Elec       q    Type
REMARK                         _______ _______ _______ _____ _____    ______ ____
ROOT
ATOM      1  C   UNL     1       1.471   9.604  18.290  0.00  0.00    +0.000 C 
ATOM      2  O   UNL     1       2.172  10.054  17.392  0.00  0.00    +0.000 OA
ATOM      3  N   UNL     1       1.755   8.349  18.872  0.00  0.00    +0.000 N 
ATOM      4  H   UNL     1       1.413   8.230  19.809  0.00  0.00    +0.000 HD
ENDROOT
BRANCH   1   7
ATOM      5  C   UNL     1      -1.469   9.772  16.957  0.00  0.00    +0.000 C 
ATOM      6  C   UNL     1      -1.024  10.374  18.238  0.00  0.00    +0.000 A 
ATOM      7  C   UNL     1       0.254  10.313  18.822  0.00  0.00    +0.000 A 
ATOM      8  N   UNL     1       0.153  11.164  19.944  0.00  0.00    +0.000 N 
ATOM      9  C   UNL     1       1.155  11.515  20.929  0.00  0.00    +0.000 C 
ATOM     10  C   UNL     1      -1.130  11.721  20.053  0.00  0.00    +0.000 A 
ATOM     11  C   UNL     1      -1.684  12.648  20.974  0.00  0.00    +0.000 A 
ATOM     12  C   UNL     1      -3.021  13.044  20.806  0.00  0.00    +0.000 A 
ATOM     13  C   UNL     1      -3.794  12.523  19.781  0.00  0.00    +0.000 A 
ATOM     14  C   UNL     1      -3.237  11.605  18.887  0.00  0.00    +0.000 A 
ATOM     15  C   UNL     1      -1.886  11.208  19.015  0.00  0.00    +0.000 A 
ENDBRANCH   1   7
BRANCH   3  16
ATOM     16  C   UNL     1       2.789   7.337  18.479  0.00  0.00    +0.000 C 
BRANCH  16  17
ATOM     17  C   UNL     1       2.688   5.991  19.237  0.00  0.00    +0.000 A 
ATOM     18  C   UNL     1       1.797   5.878  20.322  0.00  0.00    +0.000 A 
ATOM     19  C   UNL     1       1.768   4.750  21.137  0.00  0.00    +0.000 A 
ATOM     20  C   UNL     1       2.585   3.696  20.808  0.00  0.00    +0.000 A 
ATOM     21  N   UNL     1       3.367   3.698  19.716  0.00  0.00    +0.000 NA
ATOM     22  C   UNL     1       3.427   4.817  18.935  0.00  0.00    +0.000 A 
BRANCH  22  23
ATOM     23  N   UNL     1       4.362   4.775  17.909  0.00  0.00    +0.000 N 
ATOM     24  C   UNL     1       5.758   4.929  18.390  0.00  0.00    +0.000 C 
ATOM     25  C   UNL     1       6.565   5.418  17.181  0.00  0.00    +0.000 C 
ATOM     26  N   UNL     1       6.574   4.439  16.066  0.00  0.00    +0.000 NA
ATOM     27  C   UNL     1       7.155   5.086  14.888  0.00  0.00    +0.000 C 
ATOM     28  C   UNL     1       5.196   3.946  15.769  0.00  0.00    +0.000 C 
ATOM     29  C   UNL     1       4.333   3.592  17.022  0.00  0.00    +0.000 C 
ENDBRANCH  22  23
ENDBRANCH  16  17
ENDBRANCH   3  16
TORSDOF 4
ENDMDL
MODEL 6
REMARK VINA RESULT:      -8.2      1.588      3.842
REMARK  Name = 
REMARK  7 active torsions:
REMARK  status: ('A' for Active; 'I' for Inactive)
REMARK    1  A    between atoms: C_1  and  C_2
REMARK    2  A    between atoms: C_3  and  C_4
REMARK    3  A    between atoms: N_6  and  C_7
REMARK    4  A    between atoms: C_7  and  C_8
REMARK    5  A    between atoms: C_13  and  N_14
REMARK    6  A    between atoms: N_17  and  C_18
REMARK    7  A    between atoms: N_21  and  C_22
REMARK                            x       y       z     vdW  Elec       q    Type
REMARK                         _______ _______ _______ _____ _____    ______ ____
ROOT
ATOM      1  C   UNL     1       1.429   9.270  18.672  0.00  0.00    +0.000 C 
ATOM      2  O   UNL     1       1.384   9.448  17.461  0.00  0.00    +0.000 OA
ATOM      3  N   UNL     1       2.135   8.176  19.218  0.00  0.00    +0.000 N 
ATOM      4  H   UNL     1       2.452   8.306  20.163  0.00  0.00    +0.000 HD
ENDROOT
BRANCH   1   7
ATOM      5  C   UNL     1       1.468  12.499  18.818  0.00  0.00    +0.000 C 
ATOM      6  C   UNL     1       0.745  11.565  19.715  0.00  0.00    +0.000 A 
ATOM      7  C   UNL     1       0.728  10.159  19.664  0.00  0.00    +0.000 A 
ATOM      8  N   UNL     1       0.008   9.789  20.820  0.00  0.00    +0.000 N 
ATOM      9  C   UNL     1      -0.325   8.470  21.317  0.00  0.00    +0.000 C 
ATOM     10  C   UNL     1      -0.407  10.913  21.550  0.00  0.00    +0.000 A 
ATOM     11  C   UNL     1      -1.108  11.038  22.778  0.00  0.00    +0.000 A 
ATOM     12  C   UNL     1      -1.360  12.326  23.279  0.00  0.00    +0.000 A 
ATOM     13  C   UNL     1      -0.959  13.452  22.579  0.00  0.00    +0.000 A 
ATOM     14  C   UNL     1      -0.277  13.313  21.368  0.00  0.00    +0.000 A 
ATOM     15  C   UNL     1       0.014  12.029  20.852  0.00  0.00    +0.000 A 
ENDBRANCH   1   7
BRANCH   3  16
ATOM     16  C   UNL     1       2.809   7.038  18.512  0.00  0.00    +0.000 C 
BRANCH  16  17
ATOM     17  C   UNL     1       2.778   5.697  19.285  0.00  0.00    +0.000 A 
ATOM     18  C   UNL     1       1.913   5.558  20.386  0.00  0.00    +0.000 A 
ATOM     19  C   UNL     1       1.946   4.437  21.212  0.00  0.00    +0.000 A 
ATOM     20  C   UNL     1       2.800   3.416  20.878  0.00  0.00    +0.000 A 
ATOM     21  N   UNL     1       3.562   3.439  19.772  0.00  0.00    +0.000 NA
ATOM     22  C   UNL     1       3.561   4.552  18.980  0.00  0.00    +0.000 A 
BRANCH  22  23
ATOM     23  N   UNL     1       4.479   4.539  17.937  0.00  0.00    +0.000 N 
ATOM     24  C   UNL     1       5.887   4.497  18.405  0.00  0.00    +0.000 C 
ATOM     25  C   UNL     1       6.728   5.043  17.245  0.00  0.00    +0.000 C 
ATOM     26  N   UNL     1       6.630   4.205  16.023  0.00  0.00    +0.000 NA
ATOM     27  C   UNL     1       7.263   4.926  14.917  0.00  0.00    +0.000 C 
ATOM     28  C   UNL     1       5.208   3.889  15.699  0.00  0.00    +0.000 C 
ATOM     29  C   UNL     1       4.324   3.477  16.920  0.00  0.00    +0.000 C 
ENDBRANCH  22  23
ENDBRANCH  16  17
ENDBRANCH   3  16
TORSDOF 4
ENDMDL
MODEL 7
REMARK VINA RESULT:      -8.1      1.673      4.304
REMARK  Name = 
REMARK  7 active torsions:
REMARK  status: ('A' for Active; 'I' for Inactive)
REMARK    1  A    between atoms: C_1  and  C_2
REMARK    2  A    between atoms: C_3  and  C_4
REMARK    3  A    between atoms: N_6  and  C_7
REMARK    4  A    between atoms: C_7  and  C_8
REMARK    5  A    between atoms: C_13  and  N_14
REMARK    6  A    between atoms: N_17  and  C_18
REMARK    7  A    between atoms: N_21  and  C_22
REMARK                            x       y       z     vdW  Elec       q    Type
REMARK                         _______ _______ _______ _____ _____    ______ ____
ROOT
ATOM      1  C   UNL     1       1.807   7.901  20.084  0.00  0.00    +0.000 C 
ATOM      2  O   UNL     1       2.602   7.863  19.153  0.00  0.00    +0.000 OA
ATOM      3  N   UNL     1       1.771   6.870  21.049  0.00  0.00    +0.000 N 
ATOM      4  H   UNL     1       1.405   7.141  21.944  0.00  0.00    +0.000 HD
ENDROOT
BRANCH   1   7
ATOM      5  C   UNL     1       0.334   9.638  17.790  0.00  0.00    +0.000 C 
ATOM      6  C   UNL     1       0.157   9.749  19.258  0.00  0.00    +0.000 A 
ATOM      7  C   UNL     1       0.799   9.003  20.264  0.00  0.00    +0.000 A 
ATOM      8  N   UNL     1       0.367   9.612  21.462  0.00  0.00    +0.000 N 
ATOM      9  C   UNL     1       0.704   9.291  22.834  0.00  0.00    +0.000 C 
ATOM     10  C   UNL     1      -0.507  10.681  21.211  0.00  0.00    +0.000 A 
ATOM     11  C   UNL     1      -1.151  11.600  22.079  0.00  0.00    +0.000 A 
ATOM     12  C   UNL     1      -1.963  12.599  21.516  0.00  0.00    +0.000 A 
ATOM     13  C   UNL     1      -2.155  12.671  20.146  0.00  0.00    +0.000 A 
ATOM     14  C   UNL     1      -1.520  11.754  19.305  0.00  0.00    +0.000 A 
ATOM     15  C   UNL     1      -0.675  10.755  19.841  0.00  0.00    +0.000 A 
ENDBRANCH   1   7
BRANCH   3  16
ATOM     16  C   UNL     1       2.528   5.576  21.079  0.00  0.00    +0.000 C 
BRANCH  16  17
ATOM     17  C   UNL     1       2.117   4.569  19.978  0.00  0.00    +0.000 A 
ATOM     18  C   UNL     1       0.944   3.808  20.145  0.00  0.00    +0.000 A 
ATOM     19  C   UNL     1       0.601   2.781  19.269  0.00  0.00    +0.000 A 
ATOM     20  C   UNL     1       1.402   2.575  18.173  0.00  0.00    +0.000 A 
ATOM     21  N   UNL     1       2.465   3.347  17.896  0.00  0.00    +0.000 NA
ATOM     22  C   UNL     1       2.827   4.330  18.771  0.00  0.00    +0.000 A 
BRANCH  22  23
ATOM     23  N   UNL     1       4.015   4.986  18.470  0.00  0.00    +0.000 N 
ATOM     24  C   UNL     1       5.219   4.230  18.897  0.00  0.00    +0.000 C 
ATOM     25  C   UNL     1       6.341   5.268  19.022  0.00  0.00    +0.000 C 
ATOM     26  N   UNL     1       6.653   5.929  17.730  0.00  0.00    +0.000 NA
ATOM     27  C   UNL     1       7.553   7.054  17.994  0.00  0.00    +0.000 C 
ATOM     28  C   UNL     1       5.411   6.397  17.049  0.00  0.00    +0.000 C 
ATOM     29  C   UNL     1       4.224   5.381  17.061  0.00  0.00    +0.000 C 
ENDBRANCH  22  23
ENDBRANCH  16  17
ENDBRANCH   3  16
TORSDOF 4
ENDMDL
MODEL 8
REMARK VINA RESULT:      -8.0      1.666      4.147
REMARK  Name = 
REMARK  7 active torsions:
REMARK  status: ('A' for Active; 'I' for Inactive)
REMARK    1  A    between atoms: C_1  and  C_2
REMARK    2  A    between atoms: C_3  and  C_4
REMARK    3  A    between atoms: N_6  and  C_7
REMARK    4  A    between atoms: C_7  and  C_8
REMARK    5  A    between atoms: C_13  and  N_14
REMARK    6  A    between atoms: N_17  and  C_18
REMARK    7  A    between atoms: N_21  and  C_22
REMARK                            x       y       z     vdW  Elec       q    Type
REMARK                         _______ _______ _______ _____ _____    ______ ____
ROOT
ATOM      1  C   UNL     1       1.831   8.005  20.013  0.00  0.00    +0.000 C 
ATOM      2  O   UNL     1       2.574   7.903  19.045  0.00  0.00    +0.000 OA
ATOM      3  N   UNL     1       1.816   7.019  21.024  0.00  0.00    +0.000 N 
ATOM      4  H   UNL     1       1.505   7.340  21.924  0.00  0.00    +0.000 HD
ENDROOT
BRANCH   1   7
ATOM      5  C   UNL     1       0.809   9.316  22.785  0.00  0.00    +0.000 C 
ATOM      6  C   UNL     1       0.431   9.713  21.407  0.00  0.00    +0.000 A 
ATOM      7  C   UNL     1       0.864   9.145  20.195  0.00  0.00    +0.000 A 
ATOM      8  N   UNL     1       0.092   9.808  19.217  0.00  0.00    +0.000 N 
ATOM      9  C   UNL     1       0.082   9.638  17.779  0.00  0.00    +0.000 C 
ATOM     10  C   UNL     1      -0.774  10.749  19.795  0.00  0.00    +0.000 A 
ATOM     11  C   UNL     1      -1.751  11.608  19.230  0.00  0.00    +0.000 A 
ATOM     12  C   UNL     1      -2.495  12.436  20.087  0.00  0.00    +0.000 A 
ATOM     13  C   UNL     1      -2.263  12.436  21.453  0.00  0.00    +0.000 A 
ATOM     14  C   UNL     1      -1.292  11.590  21.994  0.00  0.00    +0.000 A 
ATOM     15  C   UNL     1      -0.547  10.726  21.159  0.00  0.00    +0.000 A 
ENDBRANCH   1   7
BRANCH   3  16
ATOM     16  C   UNL     1       2.537   5.705  21.073  0.00  0.00    +0.000 C 
BRANCH  16  17
ATOM     17  C   UNL     1       2.088   4.688  19.996  0.00  0.00    +0.000 A 
ATOM     18  C   UNL     1       0.894   3.967  20.188  0.00  0.00    +0.000 A 
ATOM     19  C   UNL     1       0.513   2.933  19.336  0.00  0.00    +0.000 A 
ATOM     20  C   UNL     1       1.300   2.679  18.239  0.00  0.00    +0.000 A 
ATOM     21  N   UNL     1       2.384   3.413  17.939  0.00  0.00    +0.000 NA
ATOM     22  C   UNL     1       2.782   4.402  18.791  0.00  0.00    +0.000 A 
BRANCH  22  23
ATOM     23  N   UNL     1       3.987   5.015  18.468  0.00  0.00    +0.000 N 
ATOM     24  C   UNL     1       5.168   4.282  18.990  0.00  0.00    +0.000 C 
ATOM     25  C   UNL     1       6.302   5.312  19.057  0.00  0.00    +0.000 C 
ATOM     26  N   UNL     1       6.658   5.858  17.723  0.00  0.00    +0.000 NA
ATOM     27  C   UNL     1       7.567   6.990  17.916  0.00  0.00    +0.000 C 
ATOM     28  C   UNL     1       5.440   6.284  16.972  0.00  0.00    +0.000 C 
ATOM     29  C   UNL     1       4.238   5.288  17.037  0.00  0.00    +0.000 C 
ENDBRANCH  22  23
ENDBRANCH  16  17
ENDBRANCH   3  16
TORSDOF 4
ENDMDL
MODEL 9
REMARK VINA RESULT:      -7.9      1.732      4.570
REMARK  Name = 
REMARK  7 active torsions:
REMARK  status: ('A' for Active; 'I' for Inactive)
REMARK    1  A    between atoms: C_1  and  C_2
REMARK    2  A    between atoms: C_3  and  C_4
REMARK    3  A    between atoms: N_6  and  C_7
REMARK    4  A    between atoms: C_7  and  C_8
REMARK    5  A    between atoms: C_13  and  N_14
REMARK    6  A    between atoms: N_17  and  C_18
REMARK    7  A    between atoms: N_21  and  C_22
REMARK                            x       y       z     vdW  Elec       q    Type
REMARK                         _______ _______ _______ _____ _____    ______ ____
ROOT
ATOM      1  C   UNL     1       0.919   7.905  20.722  0.00  0.00    +0.000 C 
ATOM      2  O   UNL     1      -0.060   7.401  21.259  0.00  0.00    +0.000 OA
ATOM      3  N   UNL     1       2.101   7.159  20.520  0.00  0.00    +0.000 N 
ATOM      4  H   UNL     1       2.681   7.481  19.765  0.00  0.00    +0.000 HD
ENDROOT
BRANCH   1   7
ATOM      5  C   UNL     1       2.141   9.077  17.968  0.00  0.00    +0.000 C 
ATOM      6  C   UNL     1       1.493   9.840  19.063  0.00  0.00    +0.000 A 
ATOM      7  C   UNL     1       0.965   9.340  20.269  0.00  0.00    +0.000 A 
ATOM      8  N   UNL     1       0.609  10.501  20.987  0.00  0.00    +0.000 N 
ATOM      9  C   UNL     1       0.027  10.626  22.307  0.00  0.00    +0.000 C 
ATOM     10  C   UNL     1       0.896  11.666  20.259  0.00  0.00    +0.000 A 
ATOM     11  C   UNL     1       0.755  13.041  20.580  0.00  0.00    +0.000 A 
ATOM     12  C   UNL     1       1.163  13.997  19.635  0.00  0.00    +0.000 A 
ATOM     13  C   UNL     1       1.666  13.609  18.403  0.00  0.00    +0.000 A 
ATOM     14  C   UNL     1       1.791  12.251  18.099  0.00  0.00    +0.000 A 
ATOM     15  C   UNL     1       1.414  11.267  19.041  0.00  0.00    +0.000 A 
ENDBRANCH   1   7
BRANCH   3  16
ATOM     16  C   UNL     1       2.432   5.771  20.980  0.00  0.00    +0.000 C 
BRANCH  16  17
ATOM     17  C   UNL     1       2.096   4.660  19.955  0.00  0.00    +0.000 A 
ATOM     18  C   UNL     1       0.944   3.874  20.145  0.00  0.00    +0.000 A 
ATOM     19  C   UNL     1       0.668   2.766  19.348  0.00  0.00    +0.000 A 
ATOM     20  C   UNL     1       1.517   2.498  18.303  0.00  0.00    +0.000 A 
ATOM     21  N   UNL     1       2.564   3.281  17.998  0.00  0.00    +0.000 NA
ATOM     22  C   UNL     1       2.860   4.347  18.799  0.00  0.00    +0.000 A 
BRANCH  22  23
ATOM     23  N   UNL     1       4.036   5.017  18.485  0.00  0.00    +0.000 N 
ATOM     24  C   UNL     1       5.252   4.305  18.955  0.00  0.00    +0.000 C 
ATOM     25  C   UNL     1       6.349   5.372  19.051  0.00  0.00    +0.000 C 
ATOM     26  N   UNL     1       6.662   5.990  17.738  0.00  0.00    +0.000 NA
ATOM     27  C   UNL     1       7.533   7.145  17.967  0.00  0.00    +0.000 C 
ATOM     28  C   UNL     1       5.417   6.403  17.026  0.00  0.00    +0.000 C 
ATOM     29  C   UNL     1       4.253   5.363  17.064  0.00  0.00    +0.000 C 
ENDBRANCH  22  23
ENDBRANCH  16  17
ENDBRANCH   3  16
TORSDOF 4
ENDMDL
