MODEL 1
REMARK VINA RESULT:      -8.2      0.000      0.000
REMARK  Name = 
REMARK  8 active torsions:
REMARK  status: ('A' for Active; 'I' for Inactive)
REMARK    1  A    between atoms: C_1  and  O_2
REMARK    2  A    between atoms: O_2  and  C_3
REMARK    3  A    between atoms: N_7  and  C_8
REMARK    4  A    between atoms: C_11  and  C_12
REMARK    5  A    between atoms: C_12  and  C_13
REMARK    6  A    between atoms: C_13  and  C_14
REMARK    7  A    between atoms: C_13  and  N_16
REMARK    8  A    between atoms: C_17  and  C_19
REMARK                            x       y       z     vdW  Elec       q    Type
REMARK                         _______ _______ _______ _____ _____    ______ ____
ROOT
ATOM      1  C   UNL     1       8.402   9.095  18.424  0.00  0.00    +0.000 A 
ATOM      2  C   UNL     1       7.553   8.936  17.321  0.00  0.00    +0.000 A 
ATOM      3  C   UNL     1       7.024   7.699  16.961  0.00  0.00    +0.000 A 
ATOM      4  C   UNL     1       7.329   6.560  17.702  0.00  0.00    +0.000 A 
ATOM      5  C   UNL     1       8.200   6.701  18.786  0.00  0.00    +0.000 A 
ATOM      6  F   UNL     1       8.552   5.627  19.502  0.00  0.00    +0.000 F 
ATOM      7  C   UNL     1       8.714   7.946  19.146  0.00  0.00    +0.000 A 
ENDROOT
BRANCH   1  12
ATOM      8  C   UNL     1      11.861  13.948  17.868  0.00  0.00    +0.000 C 
ATOM      9  C   UNL     1      10.970  13.054  16.990  0.00  0.00    +0.000 C 
ATOM     10  C   UNL     1      10.595  11.884  17.884  0.00  0.00    +0.000 C 
ATOM     11  C   UNL     1       9.160  11.372  17.735  0.00  0.00    +0.000 C 
ATOM     12  N   UNL     1       8.923  10.324  18.750  0.00  0.00    +0.000 N 
ATOM     13  C   UNL     1       9.304  10.653  20.141  0.00  0.00    +0.000 C 
ATOM     14  C   UNL     1      10.716  11.303  20.202  0.00  0.00    +0.000 C 
ATOM     15  N   UNL     1      10.795  12.407  19.246  0.00  0.00    +0.000 NA
ATOM     16  C   UNL     1      12.035  13.160  19.186  0.00  0.00    +0.000 C 
BRANCH   8  18
ATOM     17  C   UNL     1      11.960  16.335  18.121  0.00  0.00    +0.000 C 
ATOM     18  O   UNL     1      11.148  15.184  17.985  0.00  0.00    +0.000 OA
ENDBRANCH   8  18
ENDBRANCH   1  12
BRANCH   4  19
ATOM     19  C   UNL     1       6.733   5.227  17.323  0.00  0.00    +0.000 C 
BRANCH  19  20
ATOM     20  C   UNL     1       5.483   5.320  16.433  0.00  0.00    +0.000 C 
BRANCH  20  21
ATOM     21  N   UNL     1       4.312   4.750  17.120  0.00  0.00    +0.000 N 
ATOM     22  C   UNL     1       3.407   5.602  17.699  0.00  0.00    +0.000 C 
ATOM     23  O   UNL     1       3.586   6.822  17.675  0.00  0.00    +0.000 OA
ATOM     24  H   UNL     1       4.175   3.744  17.163  0.00  0.00    +0.000 HD
BRANCH  22  25
ATOM     25  C   UNL     1       2.152   4.970  18.315  0.00  0.00    +0.000 C 
ATOM     26  N   UNL     1       1.684   3.749  17.583  0.00  0.00    +0.000 NA
ATOM     27  C   UNL     1       1.724   2.676  18.618  0.00  0.00    +0.000 C 
ATOM     28  C   UNL     1       0.619   2.934  19.660  0.00  0.00    +0.000 C 
ATOM     29  C   UNL     1       1.153   4.143  20.439  0.00  0.00    +0.000 C 
ATOM     30  C   UNL     1       2.475   4.429  19.721  0.00  0.00    +0.000 C 
ATOM     31  C   UNL     1       2.980   3.025  19.398  0.00  0.00    +0.000 C 
ATOM     32  H   UNL     1       2.355   3.510  16.852  0.00  0.00    +0.000 HD
ENDBRANCH  22  25
ENDBRANCH  20  21
BRANCH  20  33
ATOM     33  C   UNL     1       5.702   4.657  15.131  0.00  0.00    +0.000 C 
ATOM     34  N   UNL     1       5.887   4.133  14.110  0.00  0.00    +0.000 NA
ENDBRANCH  20  33
ENDBRANCH  19  20
ENDBRANCH   4  19
TORSDOF 7
ENDMDL
MODEL 2
REMARK VINA RESULT:      -8.0      1.031      1.281
REMARK  Name = 
REMARK  8 active torsions:
REMARK  status: ('A' for Active; 'I' for Inactive)
REMARK    1  A    between atoms: C_1  and  O_2
REMARK    2  A    between atoms: O_2  and  C_3
REMARK    3  A    between atoms: N_7  and  C_8
REMARK    4  A    between atoms: C_11  and  C_12
REMARK    5  A    between atoms: C_12  and  C_13
REMARK    6  A    between atoms: C_13  and  C_14
REMARK    7  A    between atoms: C_13  and  N_16
REMARK    8  A    between atoms: C_17  and  C_19
REMARK                            x       y       z     vdW  Elec       q    Type
REMARK                         _______ _______ _______ _____ _____    ______ ____
ROOT
ATOM      1  C   UNL     1       8.410   8.939  18.464  0.00  0.00    +0.000 A 
ATOM      2  C   UNL     1       7.669   8.719  17.295  0.00  0.00    +0.000 A 
ATOM      3  C   UNL     1       7.206   7.456  16.936  0.00  0.00    +0.000 A 
ATOM      4  C   UNL     1       7.471   6.352  17.742  0.00  0.00    +0.000 A 
ATOM      5  C   UNL     1       8.235   6.554  18.894  0.00  0.00    +0.000 A 
ATOM      6  F   UNL     1       8.547   5.516  19.679  0.00  0.00    +0.000 F 
ATOM      7  C   UNL     1       8.684   7.825  19.253  0.00  0.00    +0.000 A 
ENDROOT
BRANCH   1  12
ATOM      8  C   UNL     1      11.676  13.929  17.948  0.00  0.00    +0.000 C 
ATOM      9  C   UNL     1      10.849  12.989  17.056  0.00  0.00    +0.000 C 
ATOM     10  C   UNL     1      10.498  11.814  17.953  0.00  0.00    +0.000 C 
ATOM     11  C   UNL     1       9.091  11.239  17.769  0.00  0.00    +0.000 C 
ATOM     12  N   UNL     1       8.870  10.193  18.790  0.00  0.00    +0.000 N 
ATOM     13  C   UNL     1       9.196  10.553  20.187  0.00  0.00    +0.000 C 
ATOM     14  C   UNL     1      10.576  11.263  20.280  0.00  0.00    +0.000 C 
ATOM     15  N   UNL     1      10.636  12.359  19.314  0.00  0.00    +0.000 NA
ATOM     16  C   UNL     1      11.844  13.164  19.280  0.00  0.00    +0.000 C 
BRANCH   8  18
ATOM     17  C   UNL     1      10.982  15.973  16.894  0.00  0.00    +0.000 C 
ATOM     18  O   UNL     1      10.908  15.135  18.030  0.00  0.00    +0.000 OA
ENDBRANCH   8  18
ENDBRANCH   1  12
BRANCH   4  19
ATOM     19  C   UNL     1       6.945   4.991  17.361  0.00  0.00    +0.000 C 
BRANCH  19  20
ATOM     20  C   UNL     1       5.530   5.002  16.758  0.00  0.00    +0.000 C 
BRANCH  20  21
ATOM     21  N   UNL     1       4.650   4.067  17.480  0.00  0.00    +0.000 N 
ATOM     22  C   UNL     1       4.164   4.433  18.709  0.00  0.00    +0.000 C 
ATOM     23  O   UNL     1       4.482   5.511  19.217  0.00  0.00    +0.000 OA
ATOM     24  H   UNL     1       4.406   3.168  17.075  0.00  0.00    +0.000 HD
BRANCH  22  25
ATOM     25  C   UNL     1       3.171   3.473  19.378  0.00  0.00    +0.000 C 
ATOM     26  N   UNL     1       3.497   3.193  20.814  0.00  0.00    +0.000 NA
ATOM     27  C   UNL     1       2.281   3.647  21.550  0.00  0.00    +0.000 C 
ATOM     28  C   UNL     1       1.113   2.691  21.237  0.00  0.00    +0.000 C 
ATOM     29  C   UNL     1       0.755   3.045  19.788  0.00  0.00    +0.000 C 
ATOM     30  C   UNL     1       1.782   4.133  19.460  0.00  0.00    +0.000 C 
ATOM     31  C   UNL     1       1.882   4.894  20.779  0.00  0.00    +0.000 C 
ATOM     32  H   UNL     1       4.280   3.777  21.108  0.00  0.00    +0.000 HD
ENDBRANCH  22  25
ENDBRANCH  20  21
BRANCH  20  33
ATOM     33  C   UNL     1       5.560   4.687  15.316  0.00  0.00    +0.000 C 
ATOM     34  N   UNL     1       5.594   4.433  14.182  0.00  0.00    +0.000 NA
ENDBRANCH  20  33
ENDBRANCH  19  20
ENDBRANCH   4  19
TORSDOF 7
ENDMDL
MODEL 3
REMARK VINA RESULT:      -7.9      5.984      8.359
REMARK  Name = 
REMARK  8 active torsions:
REMARK  status: ('A' for Active; 'I' for Inactive)
REMARK    1  A    between atoms: C_1  and  O_2
REMARK    2  A    between atoms: O_2  and  C_3
REMARK    3  A    between atoms: N_7  and  C_8
REMARK    4  A    between atoms: C_11  and  C_12
REMARK    5  A    between atoms: C_12  and  C_13
REMARK    6  A    between atoms: C_13  and  C_14
REMARK    7  A    between atoms: C_13  and  N_16
REMARK    8  A    between atoms: C_17  and  C_19
REMARK                            x       y       z     vdW  Elec       q    Type
REMARK                         _______ _______ _______ _____ _____    ______ ____
ROOT
ATOM      1  C   UNL     1       1.714   8.080  19.665  0.00  0.00    +0.000 A 
ATOM      2  C   UNL     1       2.304   7.618  18.482  0.00  0.00    +0.000 A 
ATOM      3  C   UNL     1       2.722   6.299  18.326  0.00  0.00    +0.000 A 
ATOM      4  C   UNL     1       2.562   5.382  19.361  0.00  0.00    +0.000 A 
ATOM      5  C   UNL     1       2.002   5.839  20.557  0.00  0.00    +0.000 A 
ATOM      6  F   UNL     1       1.865   5.002  21.592  0.00  0.00    +0.000 F 
ATOM      7  C   UNL     1       1.575   7.158  20.700  0.00  0.00    +0.000 A 
ENDROOT
BRANCH   1  12
ATOM      8  C   UNL     1      -1.667  12.675  21.480  0.00  0.00    +0.000 C 
ATOM      9  C   UNL     1      -1.060  11.385  22.056  0.00  0.00    +0.000 C 
ATOM     10  C   UNL     1      -0.486  10.657  20.853  0.00  0.00    +0.000 C 
ATOM     11  C   UNL     1       0.847   9.940  21.088  0.00  0.00    +0.000 C 
ATOM     12  N   UNL     1       1.323   9.391  19.801  0.00  0.00    +0.000 N 
ATOM     13  C   UNL     1       1.333  10.320  18.649  0.00  0.00    +0.000 C 
ATOM     14  C   UNL     1       0.002  11.119  18.556  0.00  0.00    +0.000 C 
ATOM     15  N   UNL     1      -0.305  11.723  19.852  0.00  0.00    +0.000 NA
ATOM     16  C   UNL     1      -1.500  12.542  19.949  0.00  0.00    +0.000 C 
BRANCH   8  18
ATOM     17  C   UNL     1      -1.106  13.884  23.479  0.00  0.00    +0.000 C 
ATOM     18  O   UNL     1      -0.923  13.739  22.084  0.00  0.00    +0.000 OA
ENDBRANCH   8  18
ENDBRANCH   1  12
BRANCH   4  19
ATOM     19  C   UNL     1       2.993   3.948  19.177  0.00  0.00    +0.000 C 
BRANCH  19  20
ATOM     20  C   UNL     1       4.507   3.717  19.310  0.00  0.00    +0.000 C 
BRANCH  20  21
ATOM     21  N   UNL     1       5.128   3.562  17.984  0.00  0.00    +0.000 N 
ATOM     22  C   UNL     1       6.039   4.500  17.568  0.00  0.00    +0.000 C 
ATOM     23  O   UNL     1       6.310   5.472  18.276  0.00  0.00    +0.000 OA
ATOM     24  H   UNL     1       4.888   2.776  17.388  0.00  0.00    +0.000 HD
BRANCH  22  25
ATOM     25  C   UNL     1       6.735   4.245  16.224  0.00  0.00    +0.000 C 
ATOM     26  N   UNL     1       6.102   3.144  15.429  0.00  0.00    +0.000 NA
ATOM     27  C   UNL     1       5.703   3.808  14.155  0.00  0.00    +0.000 C 
ATOM     28  C   UNL     1       6.969   4.170  13.353  0.00  0.00    +0.000 C 
ATOM     29  C   UNL     1       7.559   5.342  14.149  0.00  0.00    +0.000 C 
ATOM     30  C   UNL     1       6.570   5.473  15.310  0.00  0.00    +0.000 C 
ATOM     31  C   UNL     1       5.234   5.172  14.634  0.00  0.00    +0.000 C 
ATOM     32  H   UNL     1       5.255   2.826  15.899  0.00  0.00    +0.000 HD
ENDBRANCH  22  25
ENDBRANCH  20  21
BRANCH  20  33
ATOM     33  C   UNL     1       4.798   2.548  20.165  0.00  0.00    +0.000 C 
ATOM     34  N   UNL     1       5.018   1.633  20.847  0.00  0.00    +0.000 NA
ENDBRANCH  20  33
ENDBRANCH  19  20
ENDBRANCH   4  19
TORSDOF 7
ENDMDL
MODEL 4
REMARK VINA RESULT:      -7.5      6.913      9.872
REMARK  Name = 
REMARK  8 active torsions:
REMARK  status: ('A' for Active; 'I' for Inactive)
REMARK    1  A    between atoms: C_1  and  O_2
REMARK    2  A    between atoms: O_2  and  C_3
REMARK    3  A    between atoms: N_7  and  C_8
REMARK    4  A    between atoms: C_11  and  C_12
REMARK    5  A    between atoms: C_12  and  C_13
REMARK    6  A    between atoms: C_13  and  C_14
REMARK    7  A    between atoms: C_13  and  N_16
REMARK    8  A    between atoms: C_17  and  C_19
REMARK                            x       y       z     vdW  Elec       q    Type
REMARK                         _______ _______ _______ _____ _____    ______ ____
ROOT
ATOM      1  C   UNL     1       2.533   7.333  19.010  0.00  0.00    +0.000 A 
ATOM      2  C   UNL     1       1.991   7.395  20.301  0.00  0.00    +0.000 A 
ATOM      3  C   UNL     1       1.120   8.408  20.693  0.00  0.00    +0.000 A 
ATOM      4  C   UNL     1       0.755   9.410  19.798  0.00  0.00    +0.000 A 
ATOM      5  C   UNL     1       1.314   9.376  18.518  0.00  0.00    +0.000 A 
ATOM      6  F   UNL     1       1.022  10.339  17.636  0.00  0.00    +0.000 F 
ATOM      7  C   UNL     1       2.175   8.350  18.129  0.00  0.00    +0.000 A 
ENDROOT
BRANCH   1  12
ATOM      8  C   UNL     1       6.748   4.578  15.774  0.00  0.00    +0.000 C 
ATOM      9  C   UNL     1       6.468   5.968  16.367  0.00  0.00    +0.000 C 
ATOM     10  C   UNL     1       5.046   5.884  16.896  0.00  0.00    +0.000 C 
ATOM     11  C   UNL     1       4.789   6.611  18.219  0.00  0.00    +0.000 C 
ATOM     12  N   UNL     1       3.403   6.331  18.651  0.00  0.00    +0.000 N 
ATOM     13  C   UNL     1       2.984   4.912  18.651  0.00  0.00    +0.000 C 
ATOM     14  C   UNL     1       3.406   4.199  17.336  0.00  0.00    +0.000 C 
ATOM     15  N   UNL     1       4.824   4.439  17.074  0.00  0.00    +0.000 NA
ATOM     16  C   UNL     1       5.409   3.818  15.899  0.00  0.00    +0.000 C 
BRANCH   8  18
ATOM     17  C   UNL     1       7.942   4.585  17.859  0.00  0.00    +0.000 C 
ATOM     18  O   UNL     1       7.825   4.049  16.555  0.00  0.00    +0.000 OA
ENDBRANCH   8  18
ENDBRANCH   1  12
BRANCH   4  19
ATOM     19  C   UNL     1      -0.209  10.490  20.221  0.00  0.00    +0.000 C 
BRANCH  19  20
ATOM     20  C   UNL     1       0.410  11.584  21.108  0.00  0.00    +0.000 C 
BRANCH  20  21
ATOM     21  N   UNL     1      -0.641  12.417  21.715  0.00  0.00    +0.000 N 
ATOM     22  C   UNL     1      -1.207  12.010  22.896  0.00  0.00    +0.000 C 
ATOM     23  O   UNL     1      -0.867  10.948  23.424  0.00  0.00    +0.000 OA
ATOM     24  H   UNL     1      -0.940  13.280  21.269  0.00  0.00    +0.000 HD
BRANCH  22  25
ATOM     25  C   UNL     1      -2.224  12.959  23.544  0.00  0.00    +0.000 C 
ATOM     26  N   UNL     1      -2.426  14.227  22.771  0.00  0.00    +0.000 NA
ATOM     27  C   UNL     1      -3.882  14.219  22.449  0.00  0.00    +0.000 C 
ATOM     28  C   UNL     1      -4.689  14.436  23.744  0.00  0.00    +0.000 C 
ATOM     29  C   UNL     1      -4.523  13.103  24.484  0.00  0.00    +0.000 C 
ATOM     30  C   UNL     1      -3.623  12.315  23.528  0.00  0.00    +0.000 C 
ATOM     31  C   UNL     1      -4.143  12.750  22.160  0.00  0.00    +0.000 C 
ATOM     32  H   UNL     1      -1.908  14.179  21.894  0.00  0.00    +0.000 HD
ENDBRANCH  22  25
ENDBRANCH  20  21
BRANCH  20  33
ATOM     33  C   UNL     1       1.365  12.414  20.346  0.00  0.00    +0.000 C 
ATOM     34  N   UNL     1       2.108  13.068  19.738  0.00  0.00    +0.000 NA
ENDBRANCH  20  33
ENDBRANCH  19  20
ENDBRANCH   4  19
TORSDOF 7
ENDMDL
MODEL 5
REMARK VINA RESULT:      -7.5      5.716      7.422
REMARK  Name = 
REMARK  8 active torsions:
REMARK  status: ('A' for Active; 'I' for Inactive)
REMARK    1  A    between atoms: C_1  and  O_2
REMARK    2  A    between atoms: O_2  and  C_3
REMARK    3  A    between atoms: N_7  and  C_8
REMARK    4  A    between atoms: C_11  and  C_12
REMARK    5  A    between atoms: C_12  and  C_13
REMARK    6  A    between atoms: C_13  and  C_14
REMARK    7  A    between atoms: C_13  and  N_16
REMARK    8  A    between atoms: C_17  and  C_19
REMARK                            x       y       z     vdW  Elec       q    Type
REMARK                         _______ _______ _______ _____ _____    ______ ____
ROOT
ATOM      1  C   UNL     1       1.544   8.104  19.564  0.00  0.00    +0.000 A 
ATOM      2  C   UNL     1       1.368   7.202  20.623  0.00  0.00    +0.000 A 
ATOM      3  C   UNL     1       1.789   5.877  20.549  0.00  0.00    +0.000 A 
ATOM      4  C   UNL     1       2.410   5.399  19.398  0.00  0.00    +0.000 A 
ATOM      5  C   UNL     1       2.563   6.280  18.324  0.00  0.00    +0.000 A 
ATOM      6  F   UNL     1       3.120   5.853  17.185  0.00  0.00    +0.000 F 
ATOM      7  C   UNL     1       2.150   7.609  18.412  0.00  0.00    +0.000 A 
ENDROOT
BRANCH   1  12
ATOM      8  C   UNL     1       1.811  14.066  19.104  0.00  0.00    +0.000 C 
ATOM      9  C   UNL     1       2.173  12.823  18.275  0.00  0.00    +0.000 C 
ATOM     10  C   UNL     1       1.961  11.652  19.219  0.00  0.00    +0.000 C 
ATOM     11  C   UNL     1       1.357  10.394  18.588  0.00  0.00    +0.000 C 
ATOM     12  N   UNL     1       1.105   9.403  19.655  0.00  0.00    +0.000 N 
ATOM     13  C   UNL     1       0.378   9.887  20.850  0.00  0.00    +0.000 C 
ATOM     14  C   UNL     1       0.954  11.242  21.351  0.00  0.00    +0.000 C 
ATOM     15  N   UNL     1       1.040  12.186  20.237  0.00  0.00    +0.000 NA
ATOM     16  C   UNL     1       1.525  13.525  20.523  0.00  0.00    +0.000 C 
BRANCH   8  18
ATOM     17  C   UNL     1      -0.236  15.311  19.275  0.00  0.00    +0.000 C 
ATOM     18  O   UNL     1       0.686  14.646  18.434  0.00  0.00    +0.000 OA
ENDBRANCH   8  18
ENDBRANCH   1  12
BRANCH   4  19
ATOM     19  C   UNL     1       2.888   3.969  19.333  0.00  0.00    +0.000 C 
BRANCH  19  20
ATOM     20  C   UNL     1       4.412   3.801  19.452  0.00  0.00    +0.000 C 
BRANCH  20  21
ATOM     21  N   UNL     1       5.029   3.690  18.119  0.00  0.00    +0.000 N 
ATOM     22  C   UNL     1       6.090   4.502  17.813  0.00  0.00    +0.000 C 
ATOM     23  O   UNL     1       6.502   5.334  18.626  0.00  0.00    +0.000 OA
ATOM     24  H   UNL     1       4.676   3.023  17.439  0.00  0.00    +0.000 HD
BRANCH  22  25
ATOM     25  C   UNL     1       6.765   4.282  16.453  0.00  0.00    +0.000 C 
ATOM     26  N   UNL     1       6.125   3.195  15.644  0.00  0.00    +0.000 NA
ATOM     27  C   UNL     1       5.701   3.885  14.392  0.00  0.00    +0.000 C 
ATOM     28  C   UNL     1       6.951   4.272  13.578  0.00  0.00    +0.000 C 
ATOM     29  C   UNL     1       7.548   5.430  14.389  0.00  0.00    +0.000 C 
ATOM     30  C   UNL     1       6.577   5.529  15.569  0.00  0.00    +0.000 C 
ATOM     31  C   UNL     1       5.232   5.235  14.909  0.00  0.00    +0.000 C 
ATOM     32  H   UNL     1       5.288   2.861  16.121  0.00  0.00    +0.000 HD
ENDBRANCH  22  25
ENDBRANCH  20  21
BRANCH  20  33
ATOM     33  C   UNL     1       4.758   2.636  20.290  0.00  0.00    +0.000 C 
ATOM     34  N   UNL     1       5.020   1.713  20.947  0.00  0.00    +0.000 NA
ENDBRANCH  20  33
ENDBRANCH  19  20
ENDBRANCH   4  19
TORSDOF 7
ENDMDL
MODEL 6
REMARK VINA RESULT:      -7.5      6.733     10.189
REMARK  Name = 
REMARK  8 active torsions:
REMARK  status: ('A' for Active; 'I' for Inactive)
REMARK    1  A    between atoms: C_1  and  O_2
REMARK    2  A    between atoms: O_2  and  C_3
REMARK    3  A    between atoms: N_7  and  C_8
REMARK    4  A    between atoms: C_11  and  C_12
REMARK    5  A    between atoms: C_12  and  C_13
REMARK    6  A    between atoms: C_13  and  C_14
REMARK    7  A    between atoms: C_13  and  N_16
REMARK    8  A    between atoms: C_17  and  C_19
REMARK                            x       y       z     vdW  Elec       q    Type
REMARK                         _______ _______ _______ _____ _____    ______ ____
ROOT
ATOM      1  C   UNL     1       1.388   8.588  19.907  0.00  0.00    +0.000 A 
ATOM      2  C   UNL     1       1.245   9.902  19.442  0.00  0.00    +0.000 A 
ATOM      3  C   UNL     1       0.618  10.893  20.193  0.00  0.00    +0.000 A 
ATOM      4  C   UNL     1       0.104  10.601  21.454  0.00  0.00    +0.000 A 
ATOM      5  C   UNL     1       0.213   9.287  21.915  0.00  0.00    +0.000 A 
ATOM      6  F   UNL     1      -0.302   8.952  23.104  0.00  0.00    +0.000 F 
ATOM      7  C   UNL     1       0.854   8.304  21.161  0.00  0.00    +0.000 A 
ENDROOT
BRANCH   1  12
ATOM      8  C   UNL     1       4.915   3.903  18.705  0.00  0.00    +0.000 C 
ATOM      9  C   UNL     1       3.874   4.330  19.752  0.00  0.00    +0.000 C 
ATOM     10  C   UNL     1       3.587   5.789  19.440  0.00  0.00    +0.000 C 
ATOM     11  C   UNL     1       2.126   6.223  19.595  0.00  0.00    +0.000 C 
ATOM     12  N   UNL     1       1.998   7.624  19.140  0.00  0.00    +0.000 N 
ATOM     13  C   UNL     1       2.587   7.948  17.822  0.00  0.00    +0.000 C 
ATOM     14  C   UNL     1       4.016   7.352  17.680  0.00  0.00    +0.000 C 
ATOM     15  N   UNL     1       4.000   5.934  18.033  0.00  0.00    +0.000 NA
ATOM     16  C   UNL     1       5.246   5.196  17.926  0.00  0.00    +0.000 C 
BRANCH   8  18
ATOM     17  C   UNL     1       3.490   1.969  18.688  0.00  0.00    +0.000 C 
ATOM     18  O   UNL     1       4.275   2.877  17.939  0.00  0.00    +0.000 OA
ENDBRANCH   8  18
ENDBRANCH   1  12
BRANCH   4  19
ATOM     19  C   UNL     1      -0.552  11.684  22.274  0.00  0.00    +0.000 C 
BRANCH  19  20
ATOM     20  C   UNL     1      -1.792  12.315  21.619  0.00  0.00    +0.000 C 
BRANCH  20  21
ATOM     21  N   UNL     1      -1.813  12.042  20.172  0.00  0.00    +0.000 N 
ATOM     22  C   UNL     1      -3.005  12.129  19.501  0.00  0.00    +0.000 C 
ATOM     23  O   UNL     1      -4.048  12.399  20.102  0.00  0.00    +0.000 OA
ATOM     24  H   UNL     1      -0.960  11.796  19.680  0.00  0.00    +0.000 HD
BRANCH  22  25
ATOM     25  C   UNL     1      -2.963  11.937  17.979  0.00  0.00    +0.000 C 
ATOM     26  N   UNL     1      -1.651  11.405  17.487  0.00  0.00    +0.000 NA
ATOM     27  C   UNL     1      -2.017  10.129  16.807  0.00  0.00    +0.000 C 
ATOM     28  C   UNL     1      -2.801  10.448  15.518  0.00  0.00    +0.000 C 
ATOM     29  C   UNL     1      -4.159  10.925  16.047  0.00  0.00    +0.000 C 
ATOM     30  C   UNL     1      -3.961  10.841  17.563  0.00  0.00    +0.000 C 
ATOM     31  C   UNL     1      -3.110   9.582  17.710  0.00  0.00    +0.000 C 
ATOM     32  H   UNL     1      -1.053  11.179  18.282  0.00  0.00    +0.000 HD
ENDBRANCH  22  25
ENDBRANCH  20  21
BRANCH  20  33
ATOM     33  C   UNL     1      -1.857  13.767  21.882  0.00  0.00    +0.000 C 
ATOM     34  N   UNL     1      -1.898  14.911  22.080  0.00  0.00    +0.000 NA
ENDBRANCH  20  33
ENDBRANCH  19  20
ENDBRANCH   4  19
TORSDOF 7
ENDMDL
MODEL 7
REMARK VINA RESULT:      -7.4      5.758      7.327
REMARK  Name = 
REMARK  8 active torsions:
REMARK  status: ('A' for Active; 'I' for Inactive)
REMARK    1  A    between atoms: C_1  and  O_2
REMARK    2  A    between atoms: O_2  and  C_3
REMARK    3  A    between atoms: N_7  and  C_8
REMARK    4  A    between atoms: C_11  and  C_12
REMARK    5  A    between atoms: C_12  and  C_13
REMARK    6  A    between atoms: C_13  and  C_14
REMARK    7  A    between atoms: C_13  and  N_16
REMARK    8  A    between atoms: C_17  and  C_19
REMARK                            x       y       z     vdW  Elec       q    Type
REMARK                         _______ _______ _______ _____ _____    ______ ____
ROOT
ATOM      1  C   UNL     1       1.555   8.281  19.397  0.00  0.00    +0.000 A 
ATOM      2  C   UNL     1       2.052   7.817  18.172  0.00  0.00    +0.000 A 
ATOM      3  C   UNL     1       2.489   6.507  17.995  0.00  0.00    +0.000 A 
ATOM      4  C   UNL     1       2.444   5.601  19.051  0.00  0.00    +0.000 A 
ATOM      5  C   UNL     1       1.979   6.060  20.286  0.00  0.00    +0.000 A 
ATOM      6  F   UNL     1       1.954   5.234  21.339  0.00  0.00    +0.000 F 
ATOM      7  C   UNL     1       1.531   7.370  20.450  0.00  0.00    +0.000 A 
ENDROOT
BRANCH   1  12
ATOM      8  C   UNL     1       1.941  14.251  19.207  0.00  0.00    +0.000 C 
ATOM      9  C   UNL     1       2.270  13.041  18.319  0.00  0.00    +0.000 C 
ATOM     10  C   UNL     1       2.042  11.833  19.211  0.00  0.00    +0.000 C 
ATOM     11  C   UNL     1       1.407  10.617  18.528  0.00  0.00    +0.000 C 
ATOM     12  N   UNL     1       1.144   9.584  19.552  0.00  0.00    +0.000 N 
ATOM     13  C   UNL     1       0.436  10.027  20.773  0.00  0.00    +0.000 C 
ATOM     14  C   UNL     1       1.043  11.346  21.330  0.00  0.00    +0.000 C 
ATOM     15  N   UNL     1       1.140  12.338  20.261  0.00  0.00    +0.000 NA
ATOM     16  C   UNL     1       1.654  13.652  20.602  0.00  0.00    +0.000 C 
BRANCH   8  18
ATOM     17  C   UNL     1       0.852  16.299  18.577  0.00  0.00    +0.000 C 
ATOM     18  O   UNL     1       0.823  14.885  18.574  0.00  0.00    +0.000 OA
ENDBRANCH   8  18
ENDBRANCH   1  12
BRANCH   4  19
ATOM     19  C   UNL     1       2.894   4.176  18.846  0.00  0.00    +0.000 C 
BRANCH  19  20
ATOM     20  C   UNL     1       4.408   3.957  19.012  0.00  0.00    +0.000 C 
BRANCH  20  21
ATOM     21  N   UNL     1       5.055   3.782  17.700  0.00  0.00    +0.000 N 
ATOM     22  C   UNL     1       6.096   4.608  17.363  0.00  0.00    +0.000 C 
ATOM     23  O   UNL     1       6.464   5.502  18.128  0.00  0.00    +0.000 OA
ATOM     24  H   UNL     1       4.737   3.062  17.058  0.00  0.00    +0.000 HD
BRANCH  22  25
ATOM     25  C   UNL     1       6.805   4.325  16.032  0.00  0.00    +0.000 C 
ATOM     26  N   UNL     1       6.221   3.163  15.286  0.00  0.00    +0.000 NA
ATOM     27  C   UNL     1       5.797   3.754  13.984  0.00  0.00    +0.000 C 
ATOM     28  C   UNL     1       7.047   4.134  13.167  0.00  0.00    +0.000 C 
ATOM     29  C   UNL     1       7.586   5.364  13.910  0.00  0.00    +0.000 C 
ATOM     30  C   UNL     1       6.589   5.503  15.064  0.00  0.00    +0.000 C 
ATOM     31  C   UNL     1       5.269   5.116  14.402  0.00  0.00    +0.000 C 
ATOM     32  H   UNL     1       5.387   2.830  15.769  0.00  0.00    +0.000 HD
ENDBRANCH  22  25
ENDBRANCH  20  21
BRANCH  20  33
ATOM     33  C   UNL     1       4.689   2.806  19.894  0.00  0.00    +0.000 C 
ATOM     34  N   UNL     1       4.902   1.894  20.581  0.00  0.00    +0.000 NA
ENDBRANCH  20  33
ENDBRANCH  19  20
ENDBRANCH   4  19
TORSDOF 7
ENDMDL
MODEL 8
REMARK VINA RESULT:      -7.3      5.827     10.104
REMARK  Name = 
REMARK  8 active torsions:
REMARK  status: ('A' for Active; 'I' for Inactive)
REMARK    1  A    between atoms: C_1  and  O_2
REMARK    2  A    between atoms: O_2  and  C_3
REMARK    3  A    between atoms: N_7  and  C_8
REMARK    4  A    between atoms: C_11  and  C_12
REMARK    5  A    between atoms: C_12  and  C_13
REMARK    6  A    between atoms: C_13  and  C_14
REMARK    7  A    between atoms: C_13  and  N_16
REMARK    8  A    between atoms: C_17  and  C_19
REMARK                            x       y       z     vdW  Elec       q    Type
REMARK                         _______ _______ _______ _____ _____    ______ ____
ROOT
ATOM      1  C   UNL     1       1.940   8.025  19.289  0.00  0.00    +0.000 A 
ATOM      2  C   UNL     1       1.591   8.891  18.244  0.00  0.00    +0.000 A 
ATOM      3  C   UNL     1       0.660   9.913  18.405  0.00  0.00    +0.000 A 
ATOM      4  C   UNL     1       0.035  10.109  19.633  0.00  0.00    +0.000 A 
ATOM      5  C   UNL     1       0.351   9.233  20.674  0.00  0.00    +0.000 A 
ATOM      6  F   UNL     1      -0.254   9.360  21.861  0.00  0.00    +0.000 F 
ATOM      7  C   UNL     1       1.295   8.220  20.507  0.00  0.00    +0.000 A 
ENDROOT
BRANCH   1  12
ATOM      8  C   UNL     1       5.334   4.147  16.243  0.00  0.00    +0.000 C 
ATOM      9  C   UNL     1       4.944   5.633  16.193  0.00  0.00    +0.000 C 
ATOM     10  C   UNL     1       3.854   5.783  17.240  0.00  0.00    +0.000 C 
ATOM     11  C   UNL     1       3.894   7.079  18.055  0.00  0.00    +0.000 C 
ATOM     12  N   UNL     1       2.851   7.013  19.101  0.00  0.00    +0.000 N 
ATOM     13  C   UNL     1       2.816   5.784  19.923  0.00  0.00    +0.000 C 
ATOM     14  C   UNL     1       2.924   4.509  19.039  0.00  0.00    +0.000 C 
ATOM     15  N   UNL     1       4.064   4.630  18.132  0.00  0.00    +0.000 NA
ATOM     16  C   UNL     1       4.346   3.513  17.248  0.00  0.00    +0.000 C 
BRANCH   8  18
ATOM     17  C   UNL     1       7.349   5.397  16.634  0.00  0.00    +0.000 C 
ATOM     18  O   UNL     1       6.708   4.136  16.649  0.00  0.00    +0.000 OA
ENDBRANCH   8  18
ENDBRANCH   1  12
BRANCH   4  19
ATOM     19  C   UNL     1      -0.955  11.235  19.809  0.00  0.00    +0.000 C 
BRANCH  19  20
ATOM     20  C   UNL     1      -0.383  12.482  20.503  0.00  0.00    +0.000 C 
BRANCH  20  21
ATOM     21  N   UNL     1       1.040  12.659  20.165  0.00  0.00    +0.000 N 
ATOM     22  C   UNL     1       1.379  13.555  19.184  0.00  0.00    +0.000 C 
ATOM     23  O   UNL     1       0.508  14.179  18.572  0.00  0.00    +0.000 OA
ATOM     24  H   UNL     1       1.757  12.129  20.651  0.00  0.00    +0.000 HD
BRANCH  22  25
ATOM     25  C   UNL     1       2.876  13.782  18.935  0.00  0.00    +0.000 C 
ATOM     26  N   UNL     1       3.197  14.094  17.505  0.00  0.00    +0.000 NA
ATOM     27  C   UNL     1       3.850  15.433  17.571  0.00  0.00    +0.000 C 
ATOM     28  C   UNL     1       5.230  15.293  18.243  0.00  0.00    +0.000 C 
ATOM     29  C   UNL     1       4.874  15.043  19.714  0.00  0.00    +0.000 C 
ATOM     30  C   UNL     1       3.343  15.046  19.680  0.00  0.00    +0.000 C 
ATOM     31  C   UNL     1       3.044  16.134  18.652  0.00  0.00    +0.000 C 
ATOM     32  H   UNL     1       2.332  14.189  16.973  0.00  0.00    +0.000 HD
ENDBRANCH  22  25
ENDBRANCH  20  21
BRANCH  20  33
ATOM     33  C   UNL     1      -0.571  12.415  21.966  0.00  0.00    +0.000 C 
ATOM     34  N   UNL     1      -0.706  12.362  23.119  0.00  0.00    +0.000 NA
ENDBRANCH  20  33
ENDBRANCH  19  20
ENDBRANCH   4  19
TORSDOF 7
ENDMDL
MODEL 9
REMARK VINA RESULT:      -7.3      7.076     10.636
REMARK  Name = 
REMARK  8 active torsions:
REMARK  status: ('A' for Active; 'I' for Inactive)
REMARK    1  A    between atoms: C_1  and  O_2
REMARK    2  A    between atoms: O_2  and  C_3
REMARK    3  A    between atoms: N_7  and  C_8
REMARK    4  A    between atoms: C_11  and  C_12
REMARK    5  A    between atoms: C_12  and  C_13
REMARK    6  A    between atoms: C_13  and  C_14
REMARK    7  A    between atoms: C_13  and  N_16
REMARK    8  A    between atoms: C_17  and  C_19
REMARK                            x       y       z     vdW  Elec       q    Type
REMARK                         _______ _______ _______ _____ _____    ______ ____
ROOT
ATOM      1  C   UNL     1       2.212   7.933  18.728  0.00  0.00    +0.000 A 
ATOM      2  C   UNL     1       2.273   9.013  17.837  0.00  0.00    +0.000 A 
ATOM      3  C   UNL     1       1.664  10.236  18.108  0.00  0.00    +0.000 A 
ATOM      4  C   UNL     1       0.963  10.426  19.296  0.00  0.00    +0.000 A 
ATOM      5  C   UNL     1       0.869   9.347  20.178  0.00  0.00    +0.000 A 
ATOM      6  F   UNL     1       0.173   9.472  21.314  0.00  0.00    +0.000 F 
ATOM      7  C   UNL     1       1.493   8.130  19.905  0.00  0.00    +0.000 A 
ENDROOT
BRANCH   1  12
ATOM      8  C   UNL     1       4.121   2.338  19.664  0.00  0.00    +0.000 C 
ATOM      9  C   UNL     1       2.869   3.192  19.919  0.00  0.00    +0.000 C 
ATOM     10  C   UNL     1       3.281   4.605  19.544  0.00  0.00    +0.000 C 
ATOM     11  C   UNL     1       2.212   5.438  18.831  0.00  0.00    +0.000 C 
ATOM     12  N   UNL     1       2.808   6.731  18.431  0.00  0.00    +0.000 N 
ATOM     13  C   UNL     1       4.101   6.670  17.716  0.00  0.00    +0.000 C 
ATOM     14  C   UNL     1       5.089   5.693  18.416  0.00  0.00    +0.000 C 
ATOM     15  N   UNL     1       4.433   4.407  18.648  0.00  0.00    +0.000 NA
ATOM     16  C   UNL     1       5.216   3.352  19.265  0.00  0.00    +0.000 C 
BRANCH   8  18
ATOM     17  C   UNL     1       2.541   1.735  17.957  0.00  0.00    +0.000 C 
ATOM     18  O   UNL     1       3.740   1.416  18.636  0.00  0.00    +0.000 OA
ENDBRANCH   8  18
ENDBRANCH   1  12
BRANCH   4  19
ATOM     19  C   UNL     1       0.328  11.761  19.595  0.00  0.00    +0.000 C 
BRANCH  19  20
ATOM     20  C   UNL     1       0.794  12.407  20.911  0.00  0.00    +0.000 C 
BRANCH  20  21
ATOM     21  N   UNL     1      -0.327  13.082  21.585  0.00  0.00    +0.000 N 
ATOM     22  C   UNL     1      -0.895  12.486  22.681  0.00  0.00    +0.000 C 
ATOM     23  O   UNL     1      -0.496  11.388  23.078  0.00  0.00    +0.000 OA
ATOM     24  H   UNL     1      -0.673  13.975  21.245  0.00  0.00    +0.000 HD
BRANCH  22  25
ATOM     25  C   UNL     1      -1.991  13.272  23.412  0.00  0.00    +0.000 C 
ATOM     26  N   UNL     1      -2.472  14.467  22.646  0.00  0.00    +0.000 NA
ATOM     27  C   UNL     1      -3.930  14.210  22.465  0.00  0.00    +0.000 C 
ATOM     28  C   UNL     1      -4.640  14.328  23.829  0.00  0.00    +0.000 C 
ATOM     29  C   UNL     1      -4.186  13.062  24.566  0.00  0.00    +0.000 C 
ATOM     30  C   UNL     1      -3.259  12.406  23.538  0.00  0.00    +0.000 C 
ATOM     31  C   UNL     1      -3.968  12.711  22.220  0.00  0.00    +0.000 C 
ATOM     32  H   UNL     1      -2.036  14.481  21.724  0.00  0.00    +0.000 HD
ENDBRANCH  22  25
ENDBRANCH  20  21
BRANCH  20  33
ATOM     33  C   UNL     1       1.911  13.345  20.680  0.00  0.00    +0.000 C 
ATOM     34  N   UNL     1       2.789  14.087  20.510  0.00  0.00    +0.000 NA
ENDBRANCH  20  33
ENDBRANCH  19  20
ENDBRANCH   4  19
TORSDOF 7
ENDMDL
