MODEL 1
REMARK VINA RESULT:      -5.6      0.000      0.000
REMARK  Name = 
REMARK  17 active torsions:
REMARK  status: ('A' for Active; 'I' for Inactive)
REMARK    1  A    between atoms: C_1  and  C_2
REMARK    2  A    between atoms: C_2  and  C_3
REMARK    3  A    between atoms: C_3  and  C_4
REMARK    4  A    between atoms: C_4  and  C_5
REMARK    5  A    between atoms: C_5  and  C_6
REMARK    6  A    between atoms: C_6  and  C_7
REMARK    7  A    between atoms: C_7  and  N_8
REMARK    8  A    between atoms: C_12  and  C_13
REMARK    9  A    between atoms: C_14  and  C_15
REMARK   10  A    between atoms: C_15  and  C_16
REMARK   11  A    between atoms: C_16  and  O_18
REMARK   12  A    between atoms: C_19  and  C_20
REMARK   13  A    between atoms: C_21  and  N_22
REMARK   14  A    between atoms: C_23  and  C_25
REMARK   15  A    between atoms: C_25  and  C_26
REMARK   16  A    between atoms: C_25  and  C_27
REMARK   17  A    between atoms: C_25  and  C_28
REMARK                            x       y       z     vdW  Elec       q    Type
REMARK                         _______ _______ _______ _____ _____    ______ ____
ROOT
ATOM      1  N   UNL     1      -0.640  13.091  20.996  0.00  0.00    +0.000 N 
ATOM      2  C   UNL     1       0.659  12.411  21.085  0.00  0.00    +0.000 C 
ATOM      3  C   UNL     1       0.786  11.481  19.888  0.00  0.00    +0.000 C 
ATOM      4  C   UNL     1      -0.630  11.422  19.401  0.00  0.00    +0.000 A 
ATOM      5  C   UNL     1      -1.118  10.583  18.398  0.00  0.00    +0.000 A 
ATOM      6  C   UNL     1      -0.224   9.541  17.774  0.00  0.00    +0.000 C 
ATOM      7  C   UNL     1      -2.474  10.722  18.035  0.00  0.00    +0.000 A 
ATOM      8  C   UNL     1      -3.305  11.650  18.744  0.00  0.00    +0.000 A 
ATOM      9  C   UNL     1      -4.810  11.564  18.583  0.00  0.00    +0.000 C 
ATOM     10  C   UNL     1      -2.739  12.574  19.670  0.00  0.00    +0.000 A 
ATOM     11  C   UNL     1      -1.397  12.420  20.038  0.00  0.00    +0.000 A 
ENDROOT
BRANCH  10  12
ATOM     12  N   UNL     1      -3.529  13.585  20.289  0.00  0.00    +0.000 N 
ATOM     13  C   UNL     1      -4.239  13.361  21.464  0.00  0.00    +0.000 C 
ATOM     14  O   UNL     1      -4.194  12.301  22.088  0.00  0.00    +0.000 OA
ATOM     15  H   UNL     1      -3.941  14.242  19.645  0.00  0.00    +0.000 HD
BRANCH  13  16
ATOM     16  C   UNL     1      -5.139  14.534  21.950  0.00  0.00    +0.000 C 
ATOM     17  C   UNL     1      -4.701  15.885  21.368  0.00  0.00    +0.000 C 
ATOM     18  C   UNL     1      -6.590  14.276  21.488  0.00  0.00    +0.000 C 
ATOM     19  C   UNL     1      -5.124  14.618  23.483  0.00  0.00    +0.000 C 
ENDBRANCH  13  16
ENDBRANCH  10  12
BRANCH   1  20
ATOM     20  C   UNL     1      -0.753  14.462  21.463  0.00  0.00    +0.000 C 
BRANCH  20  21
ATOM     21  C   UNL     1      -0.438  15.449  20.329  0.00  0.00    +0.000 C 
BRANCH  21  22
ATOM     22  C   UNL     1      -1.130  16.802  20.494  0.00  0.00    +0.000 C 
BRANCH  22  23
ATOM     23  C   UNL     1      -1.501  17.429  19.153  0.00  0.00    +0.000 C 
BRANCH  23  24
ATOM     24  C   UNL     1      -0.528  16.966  18.068  0.00  0.00    +0.000 C 
BRANCH  24  26
ATOM     25  C   UNL     1       0.614  18.486  16.423  0.00  0.00    +0.000 C 
ATOM     26  C   UNL     1       0.588  17.985  17.857  0.00  0.00    +0.000 C 
ENDBRANCH  24  26
ENDBRANCH  23  24
ENDBRANCH  22  23
ENDBRANCH  21  22
ENDBRANCH  20  21
ENDBRANCH   1  20
BRANCH   7  27
ATOM     27  C   UNL     1      -3.042   9.881  16.897  0.00  0.00    +0.000 C 
BRANCH  27  28
ATOM     28  C   UNL     1      -3.019  10.472  15.506  0.00  0.00    +0.000 C 
ATOM     29  O   UNL     1      -2.677   9.818  14.524  0.00  0.00    +0.000 OA
BRANCH  28  30
ATOM     30  O   UNL     1      -3.398  11.758  15.387  0.00  0.00    +0.000 OA
ATOM     31  H   UNL     1      -4.016  11.937  14.658  0.00  0.00    +0.000 HD
ENDBRANCH  28  30
ENDBRANCH  27  28
ENDBRANCH   7  27
TORSDOF 11
ENDMDL
MODEL 2
REMARK VINA RESULT:      -5.6      1.306      1.548
REMARK  Name = 
REMARK  17 active torsions:
REMARK  status: ('A' for Active; 'I' for Inactive)
REMARK    1  A    between atoms: C_1  and  C_2
REMARK    2  A    between atoms: C_2  and  C_3
REMARK    3  A    between atoms: C_3  and  C_4
REMARK    4  A    between atoms: C_4  and  C_5
REMARK    5  A    between atoms: C_5  and  C_6
REMARK    6  A    between atoms: C_6  and  C_7
REMARK    7  A    between atoms: C_7  and  N_8
REMARK    8  A    between atoms: C_12  and  C_13
REMARK    9  A    between atoms: C_14  and  C_15
REMARK   10  A    between atoms: C_15  and  C_16
REMARK   11  A    between atoms: C_16  and  O_18
REMARK   12  A    between atoms: C_19  and  C_20
REMARK   13  A    between atoms: C_21  and  N_22
REMARK   14  A    between atoms: C_23  and  C_25
REMARK   15  A    between atoms: C_25  and  C_26
REMARK   16  A    between atoms: C_25  and  C_27
REMARK   17  A    between atoms: C_25  and  C_28
REMARK                            x       y       z     vdW  Elec       q    Type
REMARK                         _______ _______ _______ _____ _____    ______ ____
ROOT
ATOM      1  N   UNL     1      -1.776  13.471  21.637  0.00  0.00    +0.000 N 
ATOM      2  C   UNL     1      -0.472  12.984  22.104  0.00  0.00    +0.000 C 
ATOM      3  C   UNL     1       0.092  12.056  21.039  0.00  0.00    +0.000 C 
ATOM      4  C   UNL     1      -1.120  11.786  20.201  0.00  0.00    +0.000 A 
ATOM      5  C   UNL     1      -1.207  10.865  19.155  0.00  0.00    +0.000 A 
ATOM      6  C   UNL     1      -0.050   9.948  18.850  0.00  0.00    +0.000 C 
ATOM      7  C   UNL     1      -2.422  10.803  18.441  0.00  0.00    +0.000 A 
ATOM      8  C   UNL     1      -3.527  11.619  18.851  0.00  0.00    +0.000 A 
ATOM      9  C   UNL     1      -4.908  11.318  18.305  0.00  0.00    +0.000 C 
ATOM     10  C   UNL     1      -3.356  12.635  19.838  0.00  0.00    +0.000 A 
ATOM     11  C   UNL     1      -2.154  12.679  20.554  0.00  0.00    +0.000 A 
ENDROOT
BRANCH  10  12
ATOM     12  N   UNL     1      -4.408  13.536  20.167  0.00  0.00    +0.000 N 
ATOM     13  C   UNL     1      -5.355  13.251  21.144  0.00  0.00    +0.000 C 
ATOM     14  O   UNL     1      -5.326  12.234  21.836  0.00  0.00    +0.000 OA
ATOM     15  H   UNL     1      -4.729  14.099  19.394  0.00  0.00    +0.000 HD
BRANCH  13  16
ATOM     16  C   UNL     1      -6.501  14.292  21.307  0.00  0.00    +0.000 C 
ATOM     17  C   UNL     1      -5.971  15.723  21.465  0.00  0.00    +0.000 C 
ATOM     18  C   UNL     1      -7.387  14.261  20.042  0.00  0.00    +0.000 C 
ATOM     19  C   UNL     1      -7.373  13.941  22.520  0.00  0.00    +0.000 C 
ENDBRANCH  13  16
ENDBRANCH  10  12
BRANCH   1  20
ATOM     20  C   UNL     1      -2.188  14.822  21.976  0.00  0.00    +0.000 C 
BRANCH  20  21
ATOM     21  C   UNL     1      -1.212  15.851  21.388  0.00  0.00    +0.000 C 
BRANCH  21  22
ATOM     22  C   UNL     1      -1.665  16.415  20.041  0.00  0.00    +0.000 C 
BRANCH  22  23
ATOM     23  C   UNL     1      -0.531  16.459  19.021  0.00  0.00    +0.000 C 
BRANCH  23  24
ATOM     24  C   UNL     1      -0.060  15.041  18.696  0.00  0.00    +0.000 C 
BRANCH  24  26
ATOM     25  C   UNL     1       2.057  16.195  19.407  0.00  0.00    +0.000 C 
ATOM     26  C   UNL     1       1.440  14.891  18.929  0.00  0.00    +0.000 C 
ENDBRANCH  24  26
ENDBRANCH  23  24
ENDBRANCH  22  23
ENDBRANCH  21  22
ENDBRANCH  20  21
ENDBRANCH   1  20
BRANCH   7  27
ATOM     27  C   UNL     1      -2.548   9.867  17.245  0.00  0.00    +0.000 C 
BRANCH  27  28
ATOM     28  C   UNL     1      -2.616  10.488  15.868  0.00  0.00    +0.000 C 
ATOM     29  O   UNL     1      -3.082   9.888  14.903  0.00  0.00    +0.000 OA
BRANCH  28  30
ATOM     30  O   UNL     1      -2.144  11.743  15.745  0.00  0.00    +0.000 OA
ATOM     31  H   UNL     1      -2.545  12.263  15.029  0.00  0.00    +0.000 HD
ENDBRANCH  28  30
ENDBRANCH  27  28
ENDBRANCH   7  27
TORSDOF 11
ENDMDL
MODEL 3
REMARK VINA RESULT:      -5.6      1.167      1.574
REMARK  Name = 
REMARK  17 active torsions:
REMARK  status: ('A' for Active; 'I' for Inactive)
REMARK    1  A    between atoms: C_1  and  C_2
REMARK    2  A    between atoms: C_2  and  C_3
REMARK    3  A    between atoms: C_3  and  C_4
REMARK    4  A    between atoms: C_4  and  C_5
REMARK    5  A    between atoms: C_5  and  C_6
REMARK    6  A    between atoms: C_6  and  C_7
REMARK    7  A    between atoms: C_7  and  N_8
REMARK    8  A    between atoms: C_12  and  C_13
REMARK    9  A    between atoms: C_14  and  C_15
REMARK   10  A    between atoms: C_15  and  C_16
REMARK   11  A    between atoms: C_16  and  O_18
REMARK   12  A    between atoms: C_19  and  C_20
REMARK   13  A    between atoms: C_21  and  N_22
REMARK   14  A    between atoms: C_23  and  C_25
REMARK   15  A    between atoms: C_25  and  C_26
REMARK   16  A    between atoms: C_25  and  C_27
REMARK   17  A    between atoms: C_25  and  C_28
REMARK                            x       y       z     vdW  Elec       q    Type
REMARK                         _______ _______ _______ _____ _____    ______ ____
ROOT
ATOM      1  N   UNL     1      -1.238  13.127  21.190  0.00  0.00    +0.000 N 
ATOM      2  C   UNL     1       0.078  12.510  21.401  0.00  0.00    +0.000 C 
ATOM      3  C   UNL     1       0.373  11.614  20.208  0.00  0.00    +0.000 C 
ATOM      4  C   UNL     1      -0.980  11.496  19.577  0.00  0.00    +0.000 A 
ATOM      5  C   UNL     1      -1.321  10.656  18.515  0.00  0.00    +0.000 A 
ATOM      6  C   UNL     1      -0.317   9.673  17.969  0.00  0.00    +0.000 C 
ATOM      7  C   UNL     1      -2.639  10.736  18.018  0.00  0.00    +0.000 A 
ATOM      8  C   UNL     1      -3.584  11.606  18.653  0.00  0.00    +0.000 A 
ATOM      9  C   UNL     1      -5.058  11.450  18.337  0.00  0.00    +0.000 C 
ATOM     10  C   UNL     1      -3.162  12.537  19.647  0.00  0.00    +0.000 A 
ATOM     11  C   UNL     1      -1.858  12.441  20.149  0.00  0.00    +0.000 A 
ENDROOT
BRANCH  10  12
ATOM     12  N   UNL     1      -4.062  13.494  20.199  0.00  0.00    +0.000 N 
ATOM     13  C   UNL     1      -4.822  13.235  21.334  0.00  0.00    +0.000 C 
ATOM     14  O   UNL     1      -4.736  12.190  21.980  0.00  0.00    +0.000 OA
ATOM     15  H   UNL     1      -4.482  14.109  19.519  0.00  0.00    +0.000 HD
BRANCH  13  16
ATOM     16  C   UNL     1      -5.835  14.343  21.744  0.00  0.00    +0.000 C 
ATOM     17  C   UNL     1      -7.268  13.808  21.865  0.00  0.00    +0.000 C 
ATOM     18  C   UNL     1      -5.429  14.905  23.124  0.00  0.00    +0.000 C 
ATOM     19  C   UNL     1      -5.811  15.492  20.726  0.00  0.00    +0.000 C 
ENDBRANCH  13  16
ENDBRANCH  10  12
BRANCH   1  20
ATOM     20  C   UNL     1      -1.467  14.481  21.665  0.00  0.00    +0.000 C 
BRANCH  20  21
ATOM     21  C   UNL     1      -0.312  15.405  21.250  0.00  0.00    +0.000 C 
BRANCH  21  22
ATOM     22  C   UNL     1      -0.635  16.267  20.030  0.00  0.00    +0.000 C 
BRANCH  22  23
ATOM     23  C   UNL     1      -0.272  15.575  18.720  0.00  0.00    +0.000 C 
BRANCH  23  24
ATOM     24  C   UNL     1       1.124  14.958  18.819  0.00  0.00    +0.000 C 
BRANCH  24  26
ATOM     25  C   UNL     1       3.532  15.236  18.153  0.00  0.00    +0.000 C 
ATOM     26  C   UNL     1       2.192  15.931  18.331  0.00  0.00    +0.000 C 
ENDBRANCH  24  26
ENDBRANCH  23  24
ENDBRANCH  22  23
ENDBRANCH  21  22
ENDBRANCH  20  21
ENDBRANCH   1  20
BRANCH   7  27
ATOM     27  C   UNL     1      -3.044   9.893  16.813  0.00  0.00    +0.000 C 
BRANCH  27  28
ATOM     28  C   UNL     1      -2.958  10.533  15.446  0.00  0.00    +0.000 C 
ATOM     29  O   UNL     1      -2.464   9.951  14.484  0.00  0.00    +0.000 OA
BRANCH  28  30
ATOM     30  O   UNL     1      -3.456  11.777  15.326  0.00  0.00    +0.000 OA
ATOM     31  H   UNL     1      -3.722  12.026  14.424  0.00  0.00    +0.000 HD
ENDBRANCH  28  30
ENDBRANCH  27  28
ENDBRANCH   7  27
TORSDOF 11
ENDMDL
MODEL 4
REMARK VINA RESULT:      -5.5      6.552     10.285
REMARK  Name = 
REMARK  17 active torsions:
REMARK  status: ('A' for Active; 'I' for Inactive)
REMARK    1  A    between atoms: C_1  and  C_2
REMARK    2  A    between atoms: C_2  and  C_3
REMARK    3  A    between atoms: C_3  and  C_4
REMARK    4  A    between atoms: C_4  and  C_5
REMARK    5  A    between atoms: C_5  and  C_6
REMARK    6  A    between atoms: C_6  and  C_7
REMARK    7  A    between atoms: C_7  and  N_8
REMARK    8  A    between atoms: C_12  and  C_13
REMARK    9  A    between atoms: C_14  and  C_15
REMARK   10  A    between atoms: C_15  and  C_16
REMARK   11  A    between atoms: C_16  and  O_18
REMARK   12  A    between atoms: C_19  and  C_20
REMARK   13  A    between atoms: C_21  and  N_22
REMARK   14  A    between atoms: C_23  and  C_25
REMARK   15  A    between atoms: C_25  and  C_26
REMARK   16  A    between atoms: C_25  and  C_27
REMARK   17  A    between atoms: C_25  and  C_28
REMARK                            x       y       z     vdW  Elec       q    Type
REMARK                         _______ _______ _______ _____ _____    ______ ____
ROOT
ATOM      1  N   UNL     1       4.154   5.918  17.771  0.00  0.00    +0.000 N 
ATOM      2  C   UNL     1       4.538   6.722  16.603  0.00  0.00    +0.000 C 
ATOM      3  C   UNL     1       4.055   8.145  16.833  0.00  0.00    +0.000 C 
ATOM      4  C   UNL     1       3.090   7.958  17.964  0.00  0.00    +0.000 A 
ATOM      5  C   UNL     1       2.236   8.933  18.485  0.00  0.00    +0.000 A 
ATOM      6  C   UNL     1       2.144  10.290  17.836  0.00  0.00    +0.000 C 
ATOM      7  C   UNL     1       1.445   8.578  19.598  0.00  0.00    +0.000 A 
ATOM      8  C   UNL     1       1.490   7.236  20.099  0.00  0.00    +0.000 A 
ATOM      9  C   UNL     1       0.417   6.774  21.064  0.00  0.00    +0.000 C 
ATOM     10  C   UNL     1       2.466   6.312  19.622  0.00  0.00    +0.000 A 
ATOM     11  C   UNL     1       3.236   6.664  18.507  0.00  0.00    +0.000 A 
ENDROOT
BRANCH  10  12
ATOM     12  N   UNL     1       2.606   5.016  20.197  0.00  0.00    +0.000 N 
ATOM     13  C   UNL     1       1.982   3.894  19.665  0.00  0.00    +0.000 C 
ATOM     14  O   UNL     1       1.313   3.919  18.632  0.00  0.00    +0.000 OA
ATOM     15  H   UNL     1       2.731   5.018  21.198  0.00  0.00    +0.000 HD
BRANCH  13  16
ATOM     16  C   UNL     1       2.149   2.574  20.473  0.00  0.00    +0.000 C 
ATOM     17  C   UNL     1       1.655   1.347  19.695  0.00  0.00    +0.000 C 
ATOM     18  C   UNL     1       3.649   2.360  20.777  0.00  0.00    +0.000 C 
ATOM     19  C   UNL     1       1.392   2.664  21.805  0.00  0.00    +0.000 C 
ENDBRANCH  13  16
ENDBRANCH  10  12
BRANCH   1  20
ATOM     20  C   UNL     1       5.031   4.847  18.211  0.00  0.00    +0.000 C 
BRANCH  20  21
ATOM     21  C   UNL     1       6.082   5.377  19.199  0.00  0.00    +0.000 C 
BRANCH  21  22
ATOM     22  C   UNL     1       7.486   5.466  18.601  0.00  0.00    +0.000 C 
BRANCH  22  23
ATOM     23  C   UNL     1       8.098   6.854  18.765  0.00  0.00    +0.000 C 
BRANCH  23  24
ATOM     24  C   UNL     1       7.912   7.666  17.482  0.00  0.00    +0.000 C 
BRANCH  24  26
ATOM     25  C   UNL     1       8.908   9.633  18.689  0.00  0.00    +0.000 C 
ATOM     26  C   UNL     1       7.783   9.155  17.787  0.00  0.00    +0.000 C 
ENDBRANCH  24  26
ENDBRANCH  23  24
ENDBRANCH  22  23
ENDBRANCH  21  22
ENDBRANCH  20  21
ENDBRANCH   1  20
BRANCH   7  27
ATOM     27  C   UNL     1       0.548   9.624  20.251  0.00  0.00    +0.000 C 
BRANCH  27  28
ATOM     28  C   UNL     1       1.091  10.364  21.452  0.00  0.00    +0.000 C 
ATOM     29  O   UNL     1       1.276   9.808  22.532  0.00  0.00    +0.000 OA
BRANCH  28  30
ATOM     30  O   UNL     1       1.371  11.670  21.285  0.00  0.00    +0.000 OA
ATOM     31  H   UNL     1       2.186  11.853  20.788  0.00  0.00    +0.000 HD
ENDBRANCH  28  30
ENDBRANCH  27  28
ENDBRANCH   7  27
TORSDOF 11
ENDMDL
MODEL 5
REMARK VINA RESULT:      -5.5      2.270      3.376
REMARK  Name = 
REMARK  17 active torsions:
REMARK  status: ('A' for Active; 'I' for Inactive)
REMARK    1  A    between atoms: C_1  and  C_2
REMARK    2  A    between atoms: C_2  and  C_3
REMARK    3  A    between atoms: C_3  and  C_4
REMARK    4  A    between atoms: C_4  and  C_5
REMARK    5  A    between atoms: C_5  and  C_6
REMARK    6  A    between atoms: C_6  and  C_7
REMARK    7  A    between atoms: C_7  and  N_8
REMARK    8  A    between atoms: C_12  and  C_13
REMARK    9  A    between atoms: C_14  and  C_15
REMARK   10  A    between atoms: C_15  and  C_16
REMARK   11  A    between atoms: C_16  and  O_18
REMARK   12  A    between atoms: C_19  and  C_20
REMARK   13  A    between atoms: C_21  and  N_22
REMARK   14  A    between atoms: C_23  and  C_25
REMARK   15  A    between atoms: C_25  and  C_26
REMARK   16  A    between atoms: C_25  and  C_27
REMARK   17  A    between atoms: C_25  and  C_28
REMARK                            x       y       z     vdW  Elec       q    Type
REMARK                         _______ _______ _______ _____ _____    ______ ____
ROOT
ATOM      1  N   UNL     1      -1.681  13.099  21.136  0.00  0.00    +0.000 N 
ATOM      2  C   UNL     1      -0.357  12.523  21.406  0.00  0.00    +0.000 C 
ATOM      3  C   UNL     1       0.030  11.655  20.218  0.00  0.00    +0.000 C 
ATOM      4  C   UNL     1      -1.285  11.501  19.516  0.00  0.00    +0.000 A 
ATOM      5  C   UNL     1      -1.542  10.666  18.427  0.00  0.00    +0.000 A 
ATOM      6  C   UNL     1      -0.477   9.726  17.921  0.00  0.00    +0.000 C 
ATOM      7  C   UNL     1      -2.834  10.710  17.863  0.00  0.00    +0.000 A 
ATOM      8  C   UNL     1      -3.840  11.538  18.460  0.00  0.00    +0.000 A 
ATOM      9  C   UNL     1      -5.290  11.337  18.066  0.00  0.00    +0.000 C 
ATOM     10  C   UNL     1      -3.502  12.468  19.487  0.00  0.00    +0.000 A 
ATOM     11  C   UNL     1      -2.223  12.408  20.054  0.00  0.00    +0.000 A 
ENDROOT
BRANCH  10  12
ATOM     12  N   UNL     1      -4.461  13.386  20.004  0.00  0.00    +0.000 N 
ATOM     13  C   UNL     1      -5.254  13.092  21.108  0.00  0.00    +0.000 C 
ATOM     14  O   UNL     1      -5.150  12.051  21.756  0.00  0.00    +0.000 OA
ATOM     15  H   UNL     1      -4.880  13.984  19.308  0.00  0.00    +0.000 HD
BRANCH  13  16
ATOM     16  C   UNL     1      -6.326  14.157  21.479  0.00  0.00    +0.000 C 
ATOM     17  C   UNL     1      -6.630  14.180  22.983  0.00  0.00    +0.000 C 
ATOM     18  C   UNL     1      -5.798  15.556  21.090  0.00  0.00    +0.000 C 
ATOM     19  C   UNL     1      -7.627  13.897  20.707  0.00  0.00    +0.000 C 
ENDBRANCH  13  16
ENDBRANCH  10  12
BRANCH   1  20
ATOM     20  C   UNL     1      -1.981  14.436  21.616  0.00  0.00    +0.000 C 
BRANCH  20  21
ATOM     21  C   UNL     1      -1.078  14.801  22.804  0.00  0.00    +0.000 C 
BRANCH  21  22
ATOM     22  C   UNL     1      -1.792  14.722  24.154  0.00  0.00    +0.000 C 
BRANCH  22  23
ATOM     23  C   UNL     1      -1.425  15.885  25.071  0.00  0.00    +0.000 C 
BRANCH  23  24
ATOM     24  C   UNL     1      -2.614  16.837  25.215  0.00  0.00    +0.000 C 
BRANCH  24  26
ATOM     25  C   UNL     1      -5.094  17.084  24.887  0.00  0.00    +0.000 C 
ATOM     26  C   UNL     1      -3.858  16.273  24.536  0.00  0.00    +0.000 C 
ENDBRANCH  24  26
ENDBRANCH  23  24
ENDBRANCH  22  23
ENDBRANCH  21  22
ENDBRANCH  20  21
ENDBRANCH   1  20
BRANCH   7  27
ATOM     27  C   UNL     1      -3.148   9.872  16.629  0.00  0.00    +0.000 C 
BRANCH  27  28
ATOM     28  C   UNL     1      -3.044  10.543  15.278  0.00  0.00    +0.000 C 
ATOM     29  O   UNL     1      -2.556   9.976  14.304  0.00  0.00    +0.000 OA
BRANCH  28  30
ATOM     30  O   UNL     1      -3.519  11.799  15.187  0.00  0.00    +0.000 OA
ATOM     31  H   UNL     1      -4.437  11.912  15.484  0.00  0.00    +0.000 HD
ENDBRANCH  28  30
ENDBRANCH  27  28
ENDBRANCH   7  27
TORSDOF 11
ENDMDL
MODEL 6
REMARK VINA RESULT:      -5.4      6.827     11.029
REMARK  Name = 
REMARK  17 active torsions:
REMARK  status: ('A' for Active; 'I' for Inactive)
REMARK    1  A    between atoms: C_1  and  C_2
REMARK    2  A    between atoms: C_2  and  C_3
REMARK    3  A    between atoms: C_3  and  C_4
REMARK    4  A    between atoms: C_4  and  C_5
REMARK    5  A    between atoms: C_5  and  C_6
REMARK    6  A    between atoms: C_6  and  C_7
REMARK    7  A    between atoms: C_7  and  N_8
REMARK    8  A    between atoms: C_12  and  C_13
REMARK    9  A    between atoms: C_14  and  C_15
REMARK   10  A    between atoms: C_15  and  C_16
REMARK   11  A    between atoms: C_16  and  O_18
REMARK   12  A    between atoms: C_19  and  C_20
REMARK   13  A    between atoms: C_21  and  N_22
REMARK   14  A    between atoms: C_23  and  C_25
REMARK   15  A    between atoms: C_25  and  C_26
REMARK   16  A    between atoms: C_25  and  C_27
REMARK   17  A    between atoms: C_25  and  C_28
REMARK                            x       y       z     vdW  Elec       q    Type
REMARK                         _______ _______ _______ _____ _____    ______ ____
ROOT
ATOM      1  N   UNL     1       4.163   6.001  17.653  0.00  0.00    +0.000 N 
ATOM      2  C   UNL     1       4.470   6.832  16.481  0.00  0.00    +0.000 C 
ATOM      3  C   UNL     1       3.948   8.235  16.751  0.00  0.00    +0.000 C 
ATOM      4  C   UNL     1       3.037   7.999  17.917  0.00  0.00    +0.000 A 
ATOM      5  C   UNL     1       2.172   8.935  18.486  0.00  0.00    +0.000 A 
ATOM      6  C   UNL     1       2.006  10.297  17.861  0.00  0.00    +0.000 C 
ATOM      7  C   UNL     1       1.440   8.538  19.625  0.00  0.00    +0.000 A 
ATOM      8  C   UNL     1       1.552   7.192  20.105  0.00  0.00    +0.000 A 
ATOM      9  C   UNL     1       0.536   6.679  21.106  0.00  0.00    +0.000 C 
ATOM     10  C   UNL     1       2.539   6.310  19.576  0.00  0.00    +0.000 A 
ATOM     11  C   UNL     1       3.250   6.704  18.435  0.00  0.00    +0.000 A 
ENDROOT
BRANCH  10  12
ATOM     12  N   UNL     1       2.748   5.013  20.125  0.00  0.00    +0.000 N 
ATOM     13  C   UNL     1       2.151   3.874  19.597  0.00  0.00    +0.000 C 
ATOM     14  O   UNL     1       1.447   3.888  18.587  0.00  0.00    +0.000 OA
ATOM     15  H   UNL     1       2.907   5.005  21.121  0.00  0.00    +0.000 HD
BRANCH  13  16
ATOM     16  C   UNL     1       2.395   2.551  20.379  0.00  0.00    +0.000 C 
ATOM     17  C   UNL     1       1.723   2.556  21.758  0.00  0.00    +0.000 C 
ATOM     18  C   UNL     1       1.796   1.377  19.574  0.00  0.00    +0.000 C 
ATOM     19  C   UNL     1       3.900   2.303  20.552  0.00  0.00    +0.000 C 
ENDBRANCH  13  16
ENDBRANCH  10  12
BRANCH   1  20
ATOM     20  C   UNL     1       5.095   4.956  18.041  0.00  0.00    +0.000 C 
BRANCH  20  21
ATOM     21  C   UNL     1       5.556   4.156  16.813  0.00  0.00    +0.000 C 
BRANCH  21  22
ATOM     22  C   UNL     1       6.973   4.505  16.359  0.00  0.00    +0.000 C 
BRANCH  22  23
ATOM     23  C   UNL     1       7.077   4.646  14.844  0.00  0.00    +0.000 C 
BRANCH  23  24
ATOM     24  C   UNL     1       5.874   3.983  14.170  0.00  0.00    +0.000 C 
BRANCH  24  26
ATOM     25  C   UNL     1       4.931   3.339  11.931  0.00  0.00    +0.000 C 
ATOM     26  C   UNL     1       6.197   3.586  12.733  0.00  0.00    +0.000 C 
ENDBRANCH  24  26
ENDBRANCH  23  24
ENDBRANCH  22  23
ENDBRANCH  21  22
ENDBRANCH  20  21
ENDBRANCH   1  20
BRANCH   7  27
ATOM     27  C   UNL     1       0.534   9.542  20.329  0.00  0.00    +0.000 C 
BRANCH  27  28
ATOM     28  C   UNL     1       1.121  10.338  21.473  0.00  0.00    +0.000 C 
ATOM     29  O   UNL     1       1.369  11.537  21.374  0.00  0.00    +0.000 OA
BRANCH  28  30
ATOM     30  O   UNL     1       1.357   9.671  22.617  0.00  0.00    +0.000 OA
ATOM     31  H   UNL     1       1.011   8.763  22.641  0.00  0.00    +0.000 HD
ENDBRANCH  28  30
ENDBRANCH  27  28
ENDBRANCH   7  27
TORSDOF 11
ENDMDL
MODEL 7
REMARK VINA RESULT:      -5.3     10.988     13.607
REMARK  Name = 
REMARK  17 active torsions:
REMARK  status: ('A' for Active; 'I' for Inactive)
REMARK    1  A    between atoms: C_1  and  C_2
REMARK    2  A    between atoms: C_2  and  C_3
REMARK    3  A    between atoms: C_3  and  C_4
REMARK    4  A    between atoms: C_4  and  C_5
REMARK    5  A    between atoms: C_5  and  C_6
REMARK    6  A    between atoms: C_6  and  C_7
REMARK    7  A    between atoms: C_7  and  N_8
REMARK    8  A    between atoms: C_12  and  C_13
REMARK    9  A    between atoms: C_14  and  C_15
REMARK   10  A    between atoms: C_15  and  C_16
REMARK   11  A    between atoms: C_16  and  O_18
REMARK   12  A    between atoms: C_19  and  C_20
REMARK   13  A    between atoms: C_21  and  N_22
REMARK   14  A    between atoms: C_23  and  C_25
REMARK   15  A    between atoms: C_25  and  C_26
REMARK   16  A    between atoms: C_25  and  C_27
REMARK   17  A    between atoms: C_25  and  C_28
REMARK                            x       y       z     vdW  Elec       q    Type
REMARK                         _______ _______ _______ _____ _____    ______ ____
ROOT
ATOM      1  N   UNL     1      11.588  15.665  20.301  0.00  0.00    +0.000 N 
ATOM      2  C   UNL     1      12.332  16.834  20.788  0.00  0.00    +0.000 C 
ATOM      3  C   UNL     1      12.056  16.980  22.276  0.00  0.00    +0.000 C 
ATOM      4  C   UNL     1      10.862  16.092  22.451  0.00  0.00    +0.000 A 
ATOM      5  C   UNL     1      10.093  15.968  23.610  0.00  0.00    +0.000 A 
ATOM      6  C   UNL     1      10.365  16.850  24.802  0.00  0.00    +0.000 C 
ATOM      7  C   UNL     1       9.042  15.027  23.596  0.00  0.00    +0.000 A 
ATOM      8  C   UNL     1       8.759  14.299  22.395  0.00  0.00    +0.000 A 
ATOM      9  C   UNL     1       7.448  13.547  22.280  0.00  0.00    +0.000 C 
ATOM     10  C   UNL     1       9.644  14.362  21.279  0.00  0.00    +0.000 A 
ATOM     11  C   UNL     1      10.675  15.310  21.291  0.00  0.00    +0.000 A 
ENDROOT
BRANCH  10  12
ATOM     12  N   UNL     1       9.445  13.551  20.125  0.00  0.00    +0.000 N 
ATOM     13  C   UNL     1       9.978  12.271  20.014  0.00  0.00    +0.000 C 
ATOM     14  O   UNL     1      10.608  11.721  20.917  0.00  0.00    +0.000 OA
ATOM     15  H   UNL     1       9.359  14.068  19.264  0.00  0.00    +0.000 HD
BRANCH  13  16
ATOM     16  C   UNL     1       9.761  11.560  18.647  0.00  0.00    +0.000 C 
ATOM     17  C   UNL     1      11.050  11.482  17.818  0.00  0.00    +0.000 C 
ATOM     18  C   UNL     1       9.287  10.112  18.906  0.00  0.00    +0.000 C 
ATOM     19  C   UNL     1       8.682  12.285  17.832  0.00  0.00    +0.000 C 
ENDBRANCH  13  16
ENDBRANCH  10  12
BRANCH   1  20
ATOM     20  C   UNL     1      12.165  14.849  19.247  0.00  0.00    +0.000 C 
BRANCH  20  21
ATOM     21  C   UNL     1      12.118  15.588  17.901  0.00  0.00    +0.000 C 
BRANCH  21  22
ATOM     22  C   UNL     1      10.830  15.337  17.117  0.00  0.00    +0.000 C 
BRANCH  22  23
ATOM     23  C   UNL     1       9.850  16.501  17.226  0.00  0.00    +0.000 C 
BRANCH  23  24
ATOM     24  C   UNL     1       8.601  16.066  17.996  0.00  0.00    +0.000 C 
BRANCH  24  26
ATOM     25  C   UNL     1       9.274  18.169  19.197  0.00  0.00    +0.000 C 
ATOM     26  C   UNL     1       8.189  17.120  19.019  0.00  0.00    +0.000 C 
ENDBRANCH  24  26
ENDBRANCH  23  24
ENDBRANCH  22  23
ENDBRANCH  21  22
ENDBRANCH  20  21
ENDBRANCH   1  20
BRANCH   7  27
ATOM     27  C   UNL     1       8.217  14.799  24.858  0.00  0.00    +0.000 C 
BRANCH  27  28
ATOM     28  C   UNL     1       8.719  13.775  25.851  0.00  0.00    +0.000 C 
ATOM     29  O   UNL     1       9.213  14.099  26.928  0.00  0.00    +0.000 OA
BRANCH  28  30
ATOM     30  O   UNL     1       8.595  12.481  25.504  0.00  0.00    +0.000 OA
ATOM     31  H   UNL     1       7.687  12.135  25.533  0.00  0.00    +0.000 HD
ENDBRANCH  28  30
ENDBRANCH  27  28
ENDBRANCH   7  27
TORSDOF 11
ENDMDL
MODEL 8
REMARK VINA RESULT:      -5.3      3.265      5.053
REMARK  Name = 
REMARK  17 active torsions:
REMARK  status: ('A' for Active; 'I' for Inactive)
REMARK    1  A    between atoms: C_1  and  C_2
REMARK    2  A    between atoms: C_2  and  C_3
REMARK    3  A    between atoms: C_3  and  C_4
REMARK    4  A    between atoms: C_4  and  C_5
REMARK    5  A    between atoms: C_5  and  C_6
REMARK    6  A    between atoms: C_6  and  C_7
REMARK    7  A    between atoms: C_7  and  N_8
REMARK    8  A    between atoms: C_12  and  C_13
REMARK    9  A    between atoms: C_14  and  C_15
REMARK   10  A    between atoms: C_15  and  C_16
REMARK   11  A    between atoms: C_16  and  O_18
REMARK   12  A    between atoms: C_19  and  C_20
REMARK   13  A    between atoms: C_21  and  N_22
REMARK   14  A    between atoms: C_23  and  C_25
REMARK   15  A    between atoms: C_25  and  C_26
REMARK   16  A    between atoms: C_25  and  C_27
REMARK   17  A    between atoms: C_25  and  C_28
REMARK                            x       y       z     vdW  Elec       q    Type
REMARK                         _______ _______ _______ _____ _____    ______ ____
ROOT
ATOM      1  N   UNL     1      -4.149  12.015  18.160  0.00  0.00    +0.000 N 
ATOM      2  C   UNL     1      -3.924  11.236  16.935  0.00  0.00    +0.000 C 
ATOM      3  C   UNL     1      -2.716  10.340  17.165  0.00  0.00    +0.000 C 
ATOM      4  C   UNL     1      -2.110  10.957  18.388  0.00  0.00    +0.000 A 
ATOM      5  C   UNL     1      -0.881  10.617  18.957  0.00  0.00    +0.000 A 
ATOM      6  C   UNL     1       0.023   9.620  18.277  0.00  0.00    +0.000 C 
ATOM      7  C   UNL     1      -0.512  11.272  20.150  0.00  0.00    +0.000 A 
ATOM      8  C   UNL     1      -1.359  12.296  20.687  0.00  0.00    +0.000 A 
ATOM      9  C   UNL     1      -0.815  13.213  21.764  0.00  0.00    +0.000 C 
ATOM     10  C   UNL     1      -2.660  12.521  20.149  0.00  0.00    +0.000 A 
ATOM     11  C   UNL     1      -3.014  11.881  18.955  0.00  0.00    +0.000 A 
ENDROOT
BRANCH  10  12
ATOM     12  N   UNL     1      -3.563  13.446  20.748  0.00  0.00    +0.000 N 
ATOM     13  C   UNL     1      -4.262  13.156  21.915  0.00  0.00    +0.000 C 
ATOM     14  O   UNL     1      -4.114  12.111  22.548  0.00  0.00    +0.000 OA
ATOM     15  H   UNL     1      -4.033  14.051  20.092  0.00  0.00    +0.000 HD
BRANCH  13  16
ATOM     16  C   UNL     1      -5.289  14.230  22.378  0.00  0.00    +0.000 C 
ATOM     17  C   UNL     1      -6.477  14.354  21.415  0.00  0.00    +0.000 C 
ATOM     18  C   UNL     1      -5.850  13.822  23.758  0.00  0.00    +0.000 C 
ATOM     19  C   UNL     1      -4.607  15.597  22.516  0.00  0.00    +0.000 C 
ENDBRANCH  13  16
ENDBRANCH  10  12
BRANCH   1  20
ATOM     20  C   UNL     1      -5.510  12.343  18.547  0.00  0.00    +0.000 C 
BRANCH  20  21
ATOM     21  C   UNL     1      -6.420  12.432  17.312  0.00  0.00    +0.000 C 
BRANCH  21  22
ATOM     22  C   UNL     1      -7.384  13.617  17.355  0.00  0.00    +0.000 C 
BRANCH  22  23
ATOM     23  C   UNL     1      -6.948  14.752  16.433  0.00  0.00    +0.000 C 
BRANCH  23  24
ATOM     24  C   UNL     1      -7.288  16.103  17.063  0.00  0.00    +0.000 C 
BRANCH  24  26
ATOM     25  C   UNL     1      -7.005  17.507  19.129  0.00  0.00    +0.000 C 
ATOM     26  C   UNL     1      -6.442  16.361  18.306  0.00  0.00    +0.000 C 
ENDBRANCH  24  26
ENDBRANCH  23  24
ENDBRANCH  22  23
ENDBRANCH  21  22
ENDBRANCH  20  21
ENDBRANCH   1  20
BRANCH   7  27
ATOM     27  C   UNL     1       0.786  10.888  20.853  0.00  0.00    +0.000 C 
BRANCH  27  28
ATOM     28  C   UNL     1       0.725   9.793  21.893  0.00  0.00    +0.000 C 
ATOM     29  O   UNL     1       1.663   9.560  22.651  0.00  0.00    +0.000 OA
BRANCH  28  30
ATOM     30  O   UNL     1      -0.415   9.081  21.958  0.00  0.00    +0.000 OA
ATOM     31  H   UNL     1      -0.394   8.331  22.576  0.00  0.00    +0.000 HD
ENDBRANCH  28  30
ENDBRANCH  27  28
ENDBRANCH   7  27
TORSDOF 11
ENDMDL
MODEL 9
REMARK VINA RESULT:      -5.3      1.389      2.020
REMARK  Name = 
REMARK  17 active torsions:
REMARK  status: ('A' for Active; 'I' for Inactive)
REMARK    1  A    between atoms: C_1  and  C_2
REMARK    2  A    between atoms: C_2  and  C_3
REMARK    3  A    between atoms: C_3  and  C_4
REMARK    4  A    between atoms: C_4  and  C_5
REMARK    5  A    between atoms: C_5  and  C_6
REMARK    6  A    between atoms: C_6  and  C_7
REMARK    7  A    between atoms: C_7  and  N_8
REMARK    8  A    between atoms: C_12  and  C_13
REMARK    9  A    between atoms: C_14  and  C_15
REMARK   10  A    between atoms: C_15  and  C_16
REMARK   11  A    between atoms: C_16  and  O_18
REMARK   12  A    between atoms: C_19  and  C_20
REMARK   13  A    between atoms: C_21  and  N_22
REMARK   14  A    between atoms: C_23  and  C_25
REMARK   15  A    between atoms: C_25  and  C_26
REMARK   16  A    between atoms: C_25  and  C_27
REMARK   17  A    between atoms: C_25  and  C_28
REMARK                            x       y       z     vdW  Elec       q    Type
REMARK                         _______ _______ _______ _____ _____    ______ ____
ROOT
ATOM      1  N   UNL     1      -1.938  13.314  21.186  0.00  0.00    +0.000 N 
ATOM      2  C   UNL     1      -0.599  12.843  21.564  0.00  0.00    +0.000 C 
ATOM      3  C   UNL     1      -0.083  11.949  20.446  0.00  0.00    +0.000 C 
ATOM      4  C   UNL     1      -1.338  11.673  19.676  0.00  0.00    +0.000 A 
ATOM      5  C   UNL     1      -1.471  10.773  18.618  0.00  0.00    +0.000 A 
ATOM      6  C   UNL     1      -0.318   9.885  18.224  0.00  0.00    +0.000 C 
ATOM      7  C   UNL     1      -2.726  10.702  17.977  0.00  0.00    +0.000 A 
ATOM      8  C   UNL     1      -3.818  11.487  18.470  0.00  0.00    +0.000 A 
ATOM      9  C   UNL     1      -5.225  11.170  18.001  0.00  0.00    +0.000 C 
ATOM     10  C   UNL     1      -3.607  12.484  19.467  0.00  0.00    +0.000 A 
ATOM     11  C   UNL     1      -2.365  12.538  20.111  0.00  0.00    +0.000 A 
ENDROOT
BRANCH  10  12
ATOM     12  N   UNL     1      -4.654  13.358  19.878  0.00  0.00    +0.000 N 
ATOM     13  C   UNL     1      -5.515  13.048  20.926  0.00  0.00    +0.000 C 
ATOM     14  O   UNL     1      -5.405  12.032  21.611  0.00  0.00    +0.000 OA
ATOM     15  H   UNL     1      -5.049  13.912  19.134  0.00  0.00    +0.000 HD
BRANCH  13  16
ATOM     16  C   UNL     1      -6.672  14.058  21.178  0.00  0.00    +0.000 C 
ATOM     17  C   UNL     1      -7.775  13.958  20.117  0.00  0.00    +0.000 C 
ATOM     18  C   UNL     1      -7.314  13.749  22.549  0.00  0.00    +0.000 C 
ATOM     19  C   UNL     1      -6.130  15.494  21.208  0.00  0.00    +0.000 C 
ENDBRANCH  13  16
ENDBRANCH  10  12
BRANCH   1  20
ATOM     20  C   UNL     1      -2.353  14.649  21.580  0.00  0.00    +0.000 C 
BRANCH  20  21
ATOM     21  C   UNL     1      -1.254  15.674  21.266  0.00  0.00    +0.000 C 
BRANCH  21  22
ATOM     22  C   UNL     1      -1.353  16.257  19.856  0.00  0.00    +0.000 C 
BRANCH  22  23
ATOM     23  C   UNL     1      -0.380  15.594  18.886  0.00  0.00    +0.000 C 
BRANCH  23  24
ATOM     24  C   UNL     1       1.045  15.666  19.437  0.00  0.00    +0.000 C 
BRANCH  24  26
ATOM     25  C   UNL     1       2.908  14.032  19.862  0.00  0.00    +0.000 C 
ATOM     26  C   UNL     1       1.924  14.573  18.838  0.00  0.00    +0.000 C 
ENDBRANCH  24  26
ENDBRANCH  23  24
ENDBRANCH  22  23
ENDBRANCH  21  22
ENDBRANCH  20  21
ENDBRANCH   1  20
BRANCH   7  27
ATOM     27  C   UNL     1      -2.907   9.788  16.769  0.00  0.00    +0.000 C 
BRANCH  27  28
ATOM     28  C   UNL     1      -2.960  10.431  15.402  0.00  0.00    +0.000 C 
ATOM     29  O   UNL     1      -3.164  11.633  15.254  0.00  0.00    +0.000 OA
BRANCH  28  30
ATOM     30  O   UNL     1      -2.767   9.622  14.344  0.00  0.00    +0.000 OA
ATOM     31  H   UNL     1      -2.210   9.995  13.640  0.00  0.00    +0.000 HD
ENDBRANCH  28  30
ENDBRANCH  27  28
ENDBRANCH   7  27
TORSDOF 11
ENDMDL
