MODEL 1
REMARK VINA RESULT:      -8.0      0.000      0.000
REMARK  Name = 
REMARK  5 active torsions:
REMARK  status: ('A' for Active; 'I' for Inactive)
REMARK    1  A    between atoms: C_1  and  C_2
REMARK    2  A    between atoms: C_5  and  C_6
REMARK    3  A    between atoms: C_9  and  C_10
REMARK    4  A    between atoms: C_10  and  C_11
REMARK    5  A    between atoms: C_11  and  C_12
REMARK                            x       y       z     vdW  Elec       q    Type
REMARK                         _______ _______ _______ _____ _____    ______ ____
ROOT
ATOM      1  C   UNL     1       5.124   6.430  17.618  0.00  0.00    +0.000 C 
ENDROOT
BRANCH   1  10
ATOM      2  C   UNL     1       6.031   4.957  14.860  0.00  0.00    +0.000 C 
ATOM      3  C   UNL     1       6.843   5.171  16.113  0.00  0.00    +0.000 C 
ATOM      4  O   UNL     1       7.616   6.380  16.037  0.00  0.00    +0.000 OA
ATOM      5  O   UNL     1       8.052   6.581  17.438  0.00  0.00    +0.000 OA
ATOM      6  C   UNL     1       7.472   5.454  18.113  0.00  0.00    +0.000 C 
ATOM      7  C   UNL     1       7.505   5.621  19.613  0.00  0.00    +0.000 C 
ATOM      8  O   UNL     1       8.167   4.252  17.728  0.00  0.00    +0.000 OA
ATOM      9  O   UNL     1       7.724   4.053  16.330  0.00  0.00    +0.000 OA
ATOM     10  C   UNL     1       6.122   5.277  17.444  0.00  0.00    +0.000 C 
ENDBRANCH   1  10
BRANCH   1  11
ATOM     11  C   UNL     1       3.678   5.928  17.582  0.00  0.00    +0.000 C 
BRANCH  11  12
ATOM     12  C   UNL     1       3.017   5.988  18.949  0.00  0.00    +0.000 C 
ATOM     13  O   UNL     1       2.506   7.050  19.316  0.00  0.00    +0.000 OA
ATOM     14  N   UNL     1       2.912   4.827  19.692  0.00  0.00    +0.000 N 
ATOM     15  C   UNL     1       2.032   4.816  20.863  0.00  0.00    +0.000 C 
ATOM     16  C   UNL     1       1.040   3.657  20.764  0.00  0.00    +0.000 C 
ATOM     17  C   UNL     1       1.754   2.325  20.537  0.00  0.00    +0.000 C 
ATOM     18  C   UNL     1       2.707   2.405  19.342  0.00  0.00    +0.000 C 
ATOM     19  C   UNL     1       3.661   3.585  19.495  0.00  0.00    +0.000 C 
ENDBRANCH  11  12
ENDBRANCH   1  11
TORSDOF 3
ENDMDL
MODEL 2
REMARK VINA RESULT:      -8.0      1.884      2.395
REMARK  Name = 
REMARK  5 active torsions:
REMARK  status: ('A' for Active; 'I' for Inactive)
REMARK    1  A    between atoms: C_1  and  C_2
REMARK    2  A    between atoms: C_5  and  C_6
REMARK    3  A    between atoms: C_9  and  C_10
REMARK    4  A    between atoms: C_10  and  C_11
REMARK    5  A    between atoms: C_11  and  C_12
REMARK                            x       y       z     vdW  Elec       q    Type
REMARK                         _______ _______ _______ _____ _____    ______ ____
ROOT
ATOM      1  C   UNL     1       4.533   4.263  16.745  0.00  0.00    +0.000 C 
ENDROOT
BRANCH   1  10
ATOM      2  C   UNL     1       5.792   4.055  13.751  0.00  0.00    +0.000 C 
ATOM      3  C   UNL     1       6.128   5.047  14.836  0.00  0.00    +0.000 C 
ATOM      4  O   UNL     1       5.343   6.244  14.713  0.00  0.00    +0.000 OA
ATOM      5  O   UNL     1       5.560   6.916  16.015  0.00  0.00    +0.000 OA
ATOM      6  C   UNL     1       6.444   6.011  16.693  0.00  0.00    +0.000 C 
ATOM      7  C   UNL     1       6.545   6.322  18.166  0.00  0.00    +0.000 C 
ATOM      8  O   UNL     1       7.748   6.062  16.081  0.00  0.00    +0.000 OA
ATOM      9  O   UNL     1       7.527   5.385  14.784  0.00  0.00    +0.000 OA
ATOM     10  C   UNL     1       5.950   4.636  16.286  0.00  0.00    +0.000 C 
ENDBRANCH   1  10
BRANCH   1  11
ATOM     11  C   UNL     1       4.502   2.875  17.391  0.00  0.00    +0.000 C 
BRANCH  11  12
ATOM     12  C   UNL     1       4.386   2.949  18.905  0.00  0.00    +0.000 C 
ATOM     13  O   UNL     1       5.358   3.343  19.556  0.00  0.00    +0.000 OA
ATOM     14  N   UNL     1       3.167   2.677  19.495  0.00  0.00    +0.000 N 
ATOM     15  C   UNL     1       2.974   3.025  20.905  0.00  0.00    +0.000 C 
ATOM     16  C   UNL     1       1.729   3.898  21.067  0.00  0.00    +0.000 C 
ATOM     17  C   UNL     1       0.500   3.245  20.435  0.00  0.00    +0.000 C 
ATOM     18  C   UNL     1       0.771   2.845  18.982  0.00  0.00    +0.000 C 
ATOM     19  C   UNL     1       2.028   1.987  18.888  0.00  0.00    +0.000 C 
ENDBRANCH  11  12
ENDBRANCH   1  11
TORSDOF 3
ENDMDL
MODEL 3
REMARK VINA RESULT:      -8.0      1.565      1.685
REMARK  Name = 
REMARK  5 active torsions:
REMARK  status: ('A' for Active; 'I' for Inactive)
REMARK    1  A    between atoms: C_1  and  C_2
REMARK    2  A    between atoms: C_5  and  C_6
REMARK    3  A    between atoms: C_9  and  C_10
REMARK    4  A    between atoms: C_10  and  C_11
REMARK    5  A    between atoms: C_11  and  C_12
REMARK                            x       y       z     vdW  Elec       q    Type
REMARK                         _______ _______ _______ _____ _____    ______ ____
ROOT
ATOM      1  C   UNL     1       4.215   4.737  16.657  0.00  0.00    +0.000 C 
ENDROOT
BRANCH   1  10
ATOM      2  C   UNL     1       6.181   3.944  14.186  0.00  0.00    +0.000 C 
ATOM      3  C   UNL     1       6.537   4.645  15.473  0.00  0.00    +0.000 C 
ATOM      4  O   UNL     1       6.484   6.073  15.324  0.00  0.00    +0.000 OA
ATOM      5  O   UNL     1       6.523   6.553  16.725  0.00  0.00    +0.000 OA
ATOM      6  C   UNL     1       6.600   5.330  17.474  0.00  0.00    +0.000 C 
ATOM      7  C   UNL     1       6.319   5.552  18.940  0.00  0.00    +0.000 C 
ATOM      8  O   UNL     1       7.903   4.740  17.298  0.00  0.00    +0.000 OA
ATOM      9  O   UNL     1       7.857   4.258  15.900  0.00  0.00    +0.000 OA
ATOM     10  C   UNL     1       5.705   4.372  16.712  0.00  0.00    +0.000 C 
ENDBRANCH   1  10
BRANCH   1  11
ATOM     11  C   UNL     1       3.332   3.539  17.015  0.00  0.00    +0.000 C 
BRANCH  11  12
ATOM     12  C   UNL     1       2.127   3.943  17.848  0.00  0.00    +0.000 C 
ATOM     13  O   UNL     1       1.069   4.211  17.270  0.00  0.00    +0.000 OA
ATOM     14  N   UNL     1       2.221   3.893  19.226  0.00  0.00    +0.000 N 
ATOM     15  C   UNL     1       0.994   3.998  20.020  0.00  0.00    +0.000 C 
ATOM     16  C   UNL     1       0.888   2.816  20.983  0.00  0.00    +0.000 C 
ATOM     17  C   UNL     1       2.147   2.673  21.838  0.00  0.00    +0.000 C 
ATOM     18  C   UNL     1       3.405   2.630  20.966  0.00  0.00    +0.000 C 
ATOM     19  C   UNL     1       3.446   3.827  20.024  0.00  0.00    +0.000 C 
ENDBRANCH  11  12
ENDBRANCH   1  11
TORSDOF 3
ENDMDL
MODEL 4
REMARK VINA RESULT:      -8.0      1.728      3.072
REMARK  Name = 
REMARK  5 active torsions:
REMARK  status: ('A' for Active; 'I' for Inactive)
REMARK    1  A    between atoms: C_1  and  C_2
REMARK    2  A    between atoms: C_5  and  C_6
REMARK    3  A    between atoms: C_9  and  C_10
REMARK    4  A    between atoms: C_10  and  C_11
REMARK    5  A    between atoms: C_11  and  C_12
REMARK                            x       y       z     vdW  Elec       q    Type
REMARK                         _______ _______ _______ _____ _____    ______ ____
ROOT
ATOM      1  C   UNL     1       5.121   3.629  16.672  0.00  0.00    +0.000 C 
ENDROOT
BRANCH   1  10
ATOM      2  C   UNL     1       5.828   5.387  19.319  0.00  0.00    +0.000 C 
ATOM      3  C   UNL     1       6.573   5.335  18.009  0.00  0.00    +0.000 C 
ATOM      4  O   UNL     1       7.629   4.361  18.044  0.00  0.00    +0.000 OA
ATOM      5  O   UNL     1       7.997   4.222  16.616  0.00  0.00    +0.000 OA
ATOM      6  C   UNL     1       7.103   5.141  15.969  0.00  0.00    +0.000 C 
ATOM      7  C   UNL     1       7.066   4.930  14.475  0.00  0.00    +0.000 C 
ATOM      8  O   UNL     1       7.499   6.492  16.274  0.00  0.00    +0.000 OA
ATOM      9  O   UNL     1       7.124   6.628  17.699  0.00  0.00    +0.000 OA
ATOM     10  C   UNL     1       5.806   5.001  16.742  0.00  0.00    +0.000 C 
ENDBRANCH   1  10
BRANCH   1  11
ATOM     11  C   UNL     1       3.603   3.752  16.831  0.00  0.00    +0.000 C 
BRANCH  11  12
ATOM     12  C   UNL     1       3.044   2.735  17.812  0.00  0.00    +0.000 C 
ATOM     13  O   UNL     1       3.316   1.542  17.649  0.00  0.00    +0.000 OA
ATOM     14  N   UNL     1       2.341   3.185  18.913  0.00  0.00    +0.000 N 
ATOM     15  C   UNL     1       2.055   2.244  19.999  0.00  0.00    +0.000 C 
ATOM     16  C   UNL     1       2.547   2.812  21.331  0.00  0.00    +0.000 C 
ATOM     17  C   UNL     1       1.989   4.212  21.585  0.00  0.00    +0.000 C 
ATOM     18  C   UNL     1       2.259   5.139  20.398  0.00  0.00    +0.000 C 
ATOM     19  C   UNL     1       1.755   4.513  19.103  0.00  0.00    +0.000 C 
ENDBRANCH  11  12
ENDBRANCH   1  11
TORSDOF 3
ENDMDL
MODEL 5
REMARK VINA RESULT:      -7.9      1.135      1.474
REMARK  Name = 
REMARK  5 active torsions:
REMARK  status: ('A' for Active; 'I' for Inactive)
REMARK    1  A    between atoms: C_1  and  C_2
REMARK    2  A    between atoms: C_5  and  C_6
REMARK    3  A    between atoms: C_9  and  C_10
REMARK    4  A    between atoms: C_10  and  C_11
REMARK    5  A    between atoms: C_11  and  C_12
REMARK                            x       y       z     vdW  Elec       q    Type
REMARK                         _______ _______ _______ _____ _____    ______ ____
ROOT
ATOM      1  C   UNL     1       4.987   6.191  17.511  0.00  0.00    +0.000 C 
ENDROOT
BRANCH   1  10
ATOM      2  C   UNL     1       5.631   4.384  14.881  0.00  0.00    +0.000 C 
ATOM      3  C   UNL     1       6.589   4.852  15.948  0.00  0.00    +0.000 C 
ATOM      4  O   UNL     1       7.218   6.091  15.581  0.00  0.00    +0.000 OA
ATOM      5  O   UNL     1       7.828   6.540  16.855  0.00  0.00    +0.000 OA
ATOM      6  C   UNL     1       7.467   5.490  17.764  0.00  0.00    +0.000 C 
ATOM      7  C   UNL     1       7.699   5.888  19.201  0.00  0.00    +0.000 C 
ATOM      8  O   UNL     1       8.217   4.300  17.448  0.00  0.00    +0.000 OA
ATOM      9  O   UNL     1       7.600   3.853  16.180  0.00  0.00    +0.000 OA
ATOM     10  C   UNL     1       6.061   5.106  17.348  0.00  0.00    +0.000 C 
ENDBRANCH   1  10
BRANCH   1  11
ATOM     11  C   UNL     1       4.062   5.889  18.693  0.00  0.00    +0.000 C 
BRANCH  11  12
ATOM     12  C   UNL     1       2.937   4.939  18.314  0.00  0.00    +0.000 C 
ATOM     13  O   UNL     1       2.837   4.578  17.138  0.00  0.00    +0.000 OA
ATOM     14  N   UNL     1       2.131   4.427  19.312  0.00  0.00    +0.000 N 
ATOM     15  C   UNL     1       1.246   3.303  18.995  0.00  0.00    +0.000 C 
ATOM     16  C   UNL     1       1.483   2.154  19.975  0.00  0.00    +0.000 C 
ATOM     17  C   UNL     1       1.367   2.620  21.427  0.00  0.00    +0.000 C 
ATOM     18  C   UNL     1       2.263   3.833  21.691  0.00  0.00    +0.000 C 
ATOM     19  C   UNL     1       1.986   4.936  20.677  0.00  0.00    +0.000 C 
ENDBRANCH  11  12
ENDBRANCH   1  11
TORSDOF 3
ENDMDL
MODEL 6
REMARK VINA RESULT:      -7.9      1.599      2.831
REMARK  Name = 
REMARK  5 active torsions:
REMARK  status: ('A' for Active; 'I' for Inactive)
REMARK    1  A    between atoms: C_1  and  C_2
REMARK    2  A    between atoms: C_5  and  C_6
REMARK    3  A    between atoms: C_9  and  C_10
REMARK    4  A    between atoms: C_10  and  C_11
REMARK    5  A    between atoms: C_11  and  C_12
REMARK                            x       y       z     vdW  Elec       q    Type
REMARK                         _______ _______ _______ _____ _____    ______ ____
ROOT
ATOM      1  C   UNL     1       4.954   4.396  17.181  0.00  0.00    +0.000 C 
ENDROOT
BRANCH   1  10
ATOM      2  C   UNL     1       7.072   6.527  18.433  0.00  0.00    +0.000 C 
ATOM      3  C   UNL     1       7.187   5.744  17.149  0.00  0.00    +0.000 C 
ATOM      4  O   UNL     1       7.898   4.511  17.349  0.00  0.00    +0.000 OA
ATOM      5  O   UNL     1       7.612   3.760  16.104  0.00  0.00    +0.000 OA
ATOM      6  C   UNL     1       6.784   4.674  15.369  0.00  0.00    +0.000 C 
ATOM      7  C   UNL     1       6.097   3.997  14.208  0.00  0.00    +0.000 C 
ATOM      8  O   UNL     1       7.583   5.779  14.903  0.00  0.00    +0.000 OA
ATOM      9  O   UNL     1       7.861   6.528  16.148  0.00  0.00    +0.000 OA
ATOM     10  C   UNL     1       5.918   5.325  16.430  0.00  0.00    +0.000 C 
ENDBRANCH   1  10
BRANCH   1  11
ATOM     11  C   UNL     1       3.616   5.087  17.462  0.00  0.00    +0.000 C 
BRANCH  11  12
ATOM     12  C   UNL     1       2.487   4.090  17.659  0.00  0.00    +0.000 C 
ATOM     13  O   UNL     1       2.221   3.304  16.745  0.00  0.00    +0.000 OA
ATOM     14  N   UNL     1       1.865   4.021  18.892  0.00  0.00    +0.000 N 
ATOM     15  C   UNL     1       0.988   2.883  19.176  0.00  0.00    +0.000 C 
ATOM     16  C   UNL     1       1.419   2.196  20.472  0.00  0.00    +0.000 C 
ATOM     17  C   UNL     1       1.509   3.190  21.630  0.00  0.00    +0.000 C 
ATOM     18  C   UNL     1       2.386   4.390  21.263  0.00  0.00    +0.000 C 
ATOM     19  C   UNL     1       1.911   5.021  19.959  0.00  0.00    +0.000 C 
ENDBRANCH  11  12
ENDBRANCH   1  11
TORSDOF 3
ENDMDL
MODEL 7
REMARK VINA RESULT:      -7.9      1.634      3.100
REMARK  Name = 
REMARK  5 active torsions:
REMARK  status: ('A' for Active; 'I' for Inactive)
REMARK    1  A    between atoms: C_1  and  C_2
REMARK    2  A    between atoms: C_5  and  C_6
REMARK    3  A    between atoms: C_9  and  C_10
REMARK    4  A    between atoms: C_10  and  C_11
REMARK    5  A    between atoms: C_11  and  C_12
REMARK                            x       y       z     vdW  Elec       q    Type
REMARK                         _______ _______ _______ _____ _____    ______ ____
ROOT
ATOM      1  C   UNL     1       5.251   3.794  17.502  0.00  0.00    +0.000 C 
ENDROOT
BRANCH   1  10
ATOM      2  C   UNL     1       7.130   5.517  19.526  0.00  0.00    +0.000 C 
ATOM      3  C   UNL     1       7.280   5.343  18.035  0.00  0.00    +0.000 C 
ATOM      4  O   UNL     1       8.158   4.249  17.722  0.00  0.00    +0.000 OA
ATOM      5  O   UNL     1       7.910   4.031  16.278  0.00  0.00    +0.000 OA
ATOM      6  C   UNL     1       6.931   5.035  15.971  0.00  0.00    +0.000 C 
ATOM      7  C   UNL     1       6.281   4.794  14.631  0.00  0.00    +0.000 C 
ATOM      8  O   UNL     1       7.551   6.336  15.999  0.00  0.00    +0.000 OA
ATOM      9  O   UNL     1       7.792   6.552  17.443  0.00  0.00    +0.000 OA
ATOM     10  C   UNL     1       6.042   5.074  17.199  0.00  0.00    +0.000 C 
ENDBRANCH   1  10
BRANCH   1  11
ATOM     11  C   UNL     1       3.951   3.736  16.695  0.00  0.00    +0.000 C 
BRANCH  11  12
ATOM     12  C   UNL     1       2.769   3.292  17.541  0.00  0.00    +0.000 C 
ATOM     13  O   UNL     1       2.469   2.094  17.559  0.00  0.00    +0.000 OA
ATOM     14  N   UNL     1       2.137   4.221  18.346  0.00  0.00    +0.000 N 
ATOM     15  C   UNL     1       1.201   3.746  19.368  0.00  0.00    +0.000 C 
ATOM     16  C   UNL     1       1.588   4.305  20.737  0.00  0.00    +0.000 C 
ATOM     17  C   UNL     1       1.723   5.828  20.705  0.00  0.00    +0.000 C 
ATOM     18  C   UNL     1       2.663   6.276  19.583  0.00  0.00    +0.000 C 
ATOM     19  C   UNL     1       2.229   5.678  18.249  0.00  0.00    +0.000 C 
ENDBRANCH  11  12
ENDBRANCH   1  11
TORSDOF 3
ENDMDL
MODEL 8
REMARK VINA RESULT:      -7.8      1.054      2.418
REMARK  Name = 
REMARK  5 active torsions:
REMARK  status: ('A' for Active; 'I' for Inactive)
REMARK    1  A    between atoms: C_1  and  C_2
REMARK    2  A    between atoms: C_5  and  C_6
REMARK    3  A    between atoms: C_9  and  C_10
REMARK    4  A    between atoms: C_10  and  C_11
REMARK    5  A    between atoms: C_11  and  C_12
REMARK                            x       y       z     vdW  Elec       q    Type
REMARK                         _______ _______ _______ _____ _____    ______ ____
ROOT
ATOM      1  C   UNL     1       5.130   3.715  16.882  0.00  0.00    +0.000 C 
ENDROOT
BRANCH   1  10
ATOM      2  C   UNL     1       6.277   5.495  19.355  0.00  0.00    +0.000 C 
ATOM      3  C   UNL     1       6.838   5.365  17.961  0.00  0.00    +0.000 C 
ATOM      4  O   UNL     1       7.834   4.332  17.892  0.00  0.00    +0.000 OA
ATOM      5  O   UNL     1       8.002   4.134  16.433  0.00  0.00    +0.000 OA
ATOM      6  C   UNL     1       7.084   5.088  15.878  0.00  0.00    +0.000 C 
ATOM      7  C   UNL     1       6.840   4.841  14.409  0.00  0.00    +0.000 C 
ATOM      8  O   UNL     1       7.591   6.421  16.084  0.00  0.00    +0.000 OA
ATOM      9  O   UNL     1       7.416   6.615  17.540  0.00  0.00    +0.000 OA
ATOM     10  C   UNL     1       5.894   5.045  16.817  0.00  0.00    +0.000 C 
ENDBRANCH   1  10
BRANCH   1  11
ATOM     11  C   UNL     1       3.616   3.937  16.835  0.00  0.00    +0.000 C 
BRANCH  11  12
ATOM     12  C   UNL     1       3.130   4.825  17.968  0.00  0.00    +0.000 C 
ATOM     13  O   UNL     1       2.906   6.016  17.735  0.00  0.00    +0.000 OA
ATOM     14  N   UNL     1       2.852   4.250  19.194  0.00  0.00    +0.000 N 
ATOM     15  C   UNL     1       2.117   5.035  20.189  0.00  0.00    +0.000 C 
ATOM     16  C   UNL     1       0.890   4.260  20.670  0.00  0.00    +0.000 C 
ATOM     17  C   UNL     1       1.266   2.864  21.164  0.00  0.00    +0.000 C 
ATOM     18  C   UNL     1       2.084   2.107  20.114  0.00  0.00    +0.000 C 
ATOM     19  C   UNL     1       3.284   2.935  19.670  0.00  0.00    +0.000 C 
ENDBRANCH  11  12
ENDBRANCH   1  11
TORSDOF 3
ENDMDL
MODEL 9
REMARK VINA RESULT:      -7.6      1.904      2.712
REMARK  Name = 
REMARK  5 active torsions:
REMARK  status: ('A' for Active; 'I' for Inactive)
REMARK    1  A    between atoms: C_1  and  C_2
REMARK    2  A    between atoms: C_5  and  C_6
REMARK    3  A    between atoms: C_9  and  C_10
REMARK    4  A    between atoms: C_10  and  C_11
REMARK    5  A    between atoms: C_11  and  C_12
REMARK                            x       y       z     vdW  Elec       q    Type
REMARK                         _______ _______ _______ _____ _____    ______ ____
ROOT
ATOM      1  C   UNL     1       4.825   3.974  16.535  0.00  0.00    +0.000 C 
ENDROOT
BRANCH   1  10
ATOM      2  C   UNL     1       6.212   3.897  13.592  0.00  0.00    +0.000 C 
ATOM      3  C   UNL     1       6.360   4.947  14.665  0.00  0.00    +0.000 C 
ATOM      4  O   UNL     1       5.415   6.015  14.487  0.00  0.00    +0.000 OA
ATOM      5  O   UNL     1       5.484   6.734  15.781  0.00  0.00    +0.000 OA
ATOM      6  C   UNL     1       6.464   5.979  16.509  0.00  0.00    +0.000 C 
ATOM      7  C   UNL     1       6.462   6.328  17.978  0.00  0.00    +0.000 C 
ATOM      8  O   UNL     1       7.768   6.209  15.942  0.00  0.00    +0.000 OA
ATOM      9  O   UNL     1       7.696   5.484  14.654  0.00  0.00    +0.000 OA
ATOM     10  C   UNL     1       6.188   4.540  16.117  0.00  0.00    +0.000 C 
ENDBRANCH   1  10
BRANCH   1  11
ATOM     11  C   UNL     1       4.895   3.301  17.909  0.00  0.00    +0.000 C 
BRANCH  11  12
ATOM     12  C   UNL     1       3.633   2.518  18.231  0.00  0.00    +0.000 C 
ATOM     13  O   UNL     1       3.661   1.287  18.147  0.00  0.00    +0.000 OA
ATOM     14  N   UNL     1       2.529   3.198  18.709  0.00  0.00    +0.000 N 
ATOM     15  C   UNL     1       1.425   2.430  19.288  0.00  0.00    +0.000 C 
ATOM     16  C   UNL     1       1.104   2.945  20.692  0.00  0.00    +0.000 C 
ATOM     17  C   UNL     1       0.853   4.453  20.693  0.00  0.00    +0.000 C 
ATOM     18  C   UNL     1       2.005   5.206  20.023  0.00  0.00    +0.000 C 
ATOM     19  C   UNL     1       2.281   4.639  18.635  0.00  0.00    +0.000 C 
ENDBRANCH  11  12
ENDBRANCH   1  11
TORSDOF 3
ENDMDL
