MODEL 1
REMARK VINA RESULT:      -8.1      0.000      0.000
REMARK  Name = 
REMARK  7 active torsions:
REMARK  status: ('A' for Active; 'I' for Inactive)
REMARK    1  A    between atoms: C_1  and  O_2
REMARK    2  A    between atoms: O_2  and  C_3
REMARK    3  A    between atoms: C_7  and  C_8
REMARK    4  A    between atoms: C_8  and  N_9
REMARK    5  A    between atoms: N_9  and  C_10
REMARK    6  A    between atoms: C_10  and  C_11
REMARK    7  A    between atoms: C_16  and  C_18
REMARK                            x       y       z     vdW  Elec       q    Type
REMARK                         _______ _______ _______ _____ _____    ______ ____
ROOT
ATOM      1  C   UNL     1       2.465   4.328  18.576  0.00  0.00    +0.000 C 
ATOM      2  F   UNL     1       1.908   3.495  17.645  0.00  0.00    +0.000 F 
ATOM      3  C   UNL     1       1.536   4.345  19.797  0.00  0.00    +0.000 C 
ATOM      4  C   UNL     1       1.925   5.439  20.785  0.00  0.00    +0.000 C 
ATOM      5  N   UNL     1       1.985   6.737  20.108  0.00  0.00    +0.000 N 
ATOM      6  C   UNL     1       1.269   7.798  20.664  0.00  0.00    +0.000 C 
ATOM      7  O   UNL     1       0.658   7.683  21.728  0.00  0.00    +0.000 OA
ATOM      8  C   UNL     1       2.917   6.781  18.977  0.00  0.00    +0.000 C 
ATOM      9  C   UNL     1       2.515   5.729  17.949  0.00  0.00    +0.000 C 
ENDROOT
BRANCH   6  10
ATOM     10  C   UNL     1       1.219   9.141  20.017  0.00  0.00    +0.000 A 
ATOM     11  C   UNL     1       1.437   9.343  18.650  0.00  0.00    +0.000 A 
ATOM     12  C   UNL     1       1.413  10.634  18.117  0.00  0.00    +0.000 A 
ATOM     13  C   UNL     1       1.073  11.711  18.933  0.00  0.00    +0.000 A 
ATOM     14  F   UNL     1       1.046  12.939  18.397  0.00  0.00    +0.000 F 
ATOM     15  C   UNL     1       0.755  11.507  20.272  0.00  0.00    +0.000 A 
ATOM     16 CL   UNL     1       0.254  12.825  21.264  0.00  0.00    +0.000 Cl
ATOM     17  C   UNL     1       0.831  10.228  20.820  0.00  0.00    +0.000 A 
ENDBRANCH   6  10
BRANCH   1  18
ATOM     18  C   UNL     1       3.899   3.809  18.881  0.00  0.00    +0.000 C 
BRANCH  18  19
ATOM     19  N   UNL     1       4.506   3.087  17.768  0.00  0.00    +0.000 NA
ATOM     20  H   UNL     1       5.243   2.452  18.076  0.00  0.00    +0.000 HD
BRANCH  19  21
ATOM     21  C   UNL     1       5.111   3.995  16.776  0.00  0.00    +0.000 C 
BRANCH  21  26
ATOM     22  C   UNL     1       7.173   6.930  17.520  0.00  0.00    +0.000 A 
ATOM     23  C   UNL     1       7.935   6.545  18.596  0.00  0.00    +0.000 A 
ATOM     24  C   UNL     1       7.724   5.265  19.041  0.00  0.00    +0.000 A 
ATOM     25  N   UNL     1       6.852   4.414  18.467  0.00  0.00    +0.000 NA
ATOM     26  C   UNL     1       6.163   4.886  17.412  0.00  0.00    +0.000 A 
ATOM     27  N   UNL     1       6.297   6.128  16.895  0.00  0.00    +0.000 NA
BRANCH  22  29
ATOM     28  C   UNL     1       8.131   9.006  17.963  0.00  0.00    +0.000 C 
ATOM     29  O   UNL     1       7.352   8.223  17.066  0.00  0.00    +0.000 OA
ENDBRANCH  22  29
ENDBRANCH  21  26
ENDBRANCH  19  21
ENDBRANCH  18  19
ENDBRANCH   1  18
TORSDOF 6
ENDMDL
MODEL 2
REMARK VINA RESULT:      -8.0      2.688      3.409
REMARK  Name = 
REMARK  7 active torsions:
REMARK  status: ('A' for Active; 'I' for Inactive)
REMARK    1  A    between atoms: C_1  and  O_2
REMARK    2  A    between atoms: O_2  and  C_3
REMARK    3  A    between atoms: C_7  and  C_8
REMARK    4  A    between atoms: C_8  and  N_9
REMARK    5  A    between atoms: N_9  and  C_10
REMARK    6  A    between atoms: C_10  and  C_11
REMARK    7  A    between atoms: C_16  and  C_18
REMARK                            x       y       z     vdW  Elec       q    Type
REMARK                         _______ _______ _______ _____ _____    ______ ____
ROOT
ATOM      1  C   UNL     1       3.367   4.194  17.719  0.00  0.00    +0.000 C 
ATOM      2  F   UNL     1       2.904   3.422  16.689  0.00  0.00    +0.000 F 
ATOM      3  C   UNL     1       2.472   3.928  18.936  0.00  0.00    +0.000 C 
ATOM      4  C   UNL     1       2.735   4.927  20.057  0.00  0.00    +0.000 C 
ATOM      5  N   UNL     1       2.608   6.298  19.557  0.00  0.00    +0.000 N 
ATOM      6  C   UNL     1       1.770   7.172  20.251  0.00  0.00    +0.000 C 
ATOM      7  O   UNL     1       1.204   6.839  21.294  0.00  0.00    +0.000 OA
ATOM      8  C   UNL     1       3.500   6.612  18.437  0.00  0.00    +0.000 C 
ATOM      9  C   UNL     1       3.217   5.659  17.281  0.00  0.00    +0.000 C 
ENDROOT
BRANCH   6  10
ATOM     10  C   UNL     1       1.528   8.568  19.787  0.00  0.00    +0.000 A 
ATOM     11  C   UNL     1       1.727   8.983  18.465  0.00  0.00    +0.000 A 
ATOM     12  C   UNL     1       1.518  10.317  18.108  0.00  0.00    +0.000 A 
ATOM     13  C   UNL     1       1.015  11.213  19.049  0.00  0.00    +0.000 A 
ATOM     14  F   UNL     1       0.811  12.485  18.680  0.00  0.00    +0.000 F 
ATOM     15  C   UNL     1       0.717  10.785  20.340  0.00  0.00    +0.000 A 
ATOM     16 CL   UNL     1       0.017  11.870  21.482  0.00  0.00    +0.000 Cl
ATOM     17  C   UNL     1       0.976   9.469  20.714  0.00  0.00    +0.000 A 
ENDBRANCH   6  10
BRANCH   1  18
ATOM     18  C   UNL     1       4.864   3.837  17.946  0.00  0.00    +0.000 C 
BRANCH  18  19
ATOM     19  N   UNL     1       5.572   3.489  16.718  0.00  0.00    +0.000 NA
ATOM     20  H   UNL     1       6.075   2.606  16.801  0.00  0.00    +0.000 HD
BRANCH  19  21
ATOM     21  C   UNL     1       6.563   4.512  16.336  0.00  0.00    +0.000 C 
BRANCH  21  26
ATOM     22  C   UNL     1       6.345   3.614  12.791  0.00  0.00    +0.000 A 
ATOM     23  C   UNL     1       7.216   4.476  12.169  0.00  0.00    +0.000 A 
ATOM     24  C   UNL     1       7.872   5.351  12.996  0.00  0.00    +0.000 A 
ATOM     25  N   UNL     1       7.710   5.372  14.332  0.00  0.00    +0.000 NA
ATOM     26  C   UNL     1       6.841   4.479  14.843  0.00  0.00    +0.000 A 
ATOM     27  N   UNL     1       6.147   3.575  14.117  0.00  0.00    +0.000 NA
BRANCH  22  29
ATOM     28  C   UNL     1       4.406   3.267  11.546  0.00  0.00    +0.000 C 
ATOM     29  O   UNL     1       5.655   2.736  11.976  0.00  0.00    +0.000 OA
ENDBRANCH  22  29
ENDBRANCH  21  26
ENDBRANCH  19  21
ENDBRANCH  18  19
ENDBRANCH   1  18
TORSDOF 6
ENDMDL
MODEL 3
REMARK VINA RESULT:      -7.8      1.236      1.359
REMARK  Name = 
REMARK  7 active torsions:
REMARK  status: ('A' for Active; 'I' for Inactive)
REMARK    1  A    between atoms: C_1  and  O_2
REMARK    2  A    between atoms: O_2  and  C_3
REMARK    3  A    between atoms: C_7  and  C_8
REMARK    4  A    between atoms: C_8  and  N_9
REMARK    5  A    between atoms: N_9  and  C_10
REMARK    6  A    between atoms: C_10  and  C_11
REMARK    7  A    between atoms: C_16  and  C_18
REMARK                            x       y       z     vdW  Elec       q    Type
REMARK                         _______ _______ _______ _____ _____    ______ ____
ROOT
ATOM      1  C   UNL     1       2.428   4.985  18.341  0.00  0.00    +0.000 C 
ATOM      2  F   UNL     1       1.773   3.944  17.741  0.00  0.00    +0.000 F 
ATOM      3  C   UNL     1       2.013   5.003  19.818  0.00  0.00    +0.000 C 
ATOM      4  C   UNL     1       2.479   6.275  20.517  0.00  0.00    +0.000 C 
ATOM      5  N   UNL     1       2.010   7.457  19.787  0.00  0.00    +0.000 N 
ATOM      6  C   UNL     1       1.325   8.438  20.505  0.00  0.00    +0.000 C 
ATOM      7  O   UNL     1       1.172   8.364  21.725  0.00  0.00    +0.000 OA
ATOM      8  C   UNL     1       2.447   7.510  18.389  0.00  0.00    +0.000 C 
ATOM      9  C   UNL     1       1.946   6.271  17.655  0.00  0.00    +0.000 C 
ENDROOT
BRANCH   6  10
ATOM     10  C   UNL     1       0.758   9.648  19.841  0.00  0.00    +0.000 A 
ATOM     11  C   UNL     1      -0.614   9.916  19.778  0.00  0.00    +0.000 A 
ATOM     12  C   UNL     1      -1.078  11.050  19.106  0.00  0.00    +0.000 A 
ATOM     13  C   UNL     1      -0.166  11.966  18.586  0.00  0.00    +0.000 A 
ATOM     14  F   UNL     1      -0.635  13.052  17.956  0.00  0.00    +0.000 F 
ATOM     15  C   UNL     1       1.202  11.759  18.734  0.00  0.00    +0.000 A 
ATOM     16 CL   UNL     1       2.331  12.930  18.164  0.00  0.00    +0.000 Cl
ATOM     17  C   UNL     1       1.668  10.602  19.354  0.00  0.00    +0.000 A 
ENDBRANCH   6  10
BRANCH   1  18
ATOM     18  C   UNL     1       3.954   4.779  18.116  0.00  0.00    +0.000 C 
BRANCH  18  19
ATOM     19  N   UNL     1       4.321   4.631  16.712  0.00  0.00    +0.000 NA
ATOM     20  H   UNL     1       3.775   3.907  16.245  0.00  0.00    +0.000 HD
BRANCH  19  21
ATOM     21  C   UNL     1       5.741   4.273  16.540  0.00  0.00    +0.000 C 
BRANCH  21  26
ATOM     22  C   UNL     1       7.488   7.308  17.617  0.00  0.00    +0.000 A 
ATOM     23  C   UNL     1       8.142   6.933  18.765  0.00  0.00    +0.000 A 
ATOM     24  C   UNL     1       7.971   5.625  19.142  0.00  0.00    +0.000 A 
ATOM     25  N   UNL     1       7.236   4.741  18.441  0.00  0.00    +0.000 NA
ATOM     26  C   UNL     1       6.645   5.207  17.325  0.00  0.00    +0.000 A 
ATOM     27  N   UNL     1       6.751   6.474  16.867  0.00  0.00    +0.000 NA
BRANCH  22  29
ATOM     28  C   UNL     1       8.443   9.370  18.127  0.00  0.00    +0.000 C 
ATOM     29  O   UNL     1       7.627   8.626  17.228  0.00  0.00    +0.000 OA
ENDBRANCH  22  29
ENDBRANCH  21  26
ENDBRANCH  19  21
ENDBRANCH  18  19
ENDBRANCH   1  18
TORSDOF 6
ENDMDL
MODEL 4
REMARK VINA RESULT:      -7.8      1.431      1.589
REMARK  Name = 
REMARK  7 active torsions:
REMARK  status: ('A' for Active; 'I' for Inactive)
REMARK    1  A    between atoms: C_1  and  O_2
REMARK    2  A    between atoms: O_2  and  C_3
REMARK    3  A    between atoms: C_7  and  C_8
REMARK    4  A    between atoms: C_8  and  N_9
REMARK    5  A    between atoms: N_9  and  C_10
REMARK    6  A    between atoms: C_10  and  C_11
REMARK    7  A    between atoms: C_16  and  C_18
REMARK                            x       y       z     vdW  Elec       q    Type
REMARK                         _______ _______ _______ _____ _____    ______ ____
ROOT
ATOM      1  C   UNL     1       2.186   5.304  18.696  0.00  0.00    +0.000 C 
ATOM      2  F   UNL     1       1.602   4.317  17.951  0.00  0.00    +0.000 F 
ATOM      3  C   UNL     1       1.491   5.325  20.063  0.00  0.00    +0.000 C 
ATOM      4  C   UNL     1       1.884   6.554  20.875  0.00  0.00    +0.000 C 
ATOM      5  N   UNL     1       1.639   7.774  20.101  0.00  0.00    +0.000 N 
ATOM      6  C   UNL     1       0.885   8.786  20.698  0.00  0.00    +0.000 C 
ATOM      7  O   UNL     1       0.491   8.702  21.862  0.00  0.00    +0.000 OA
ATOM      8  C   UNL     1       2.344   7.822  18.817  0.00  0.00    +0.000 C 
ATOM      9  C   UNL     1       1.925   6.629  17.965  0.00  0.00    +0.000 C 
ENDROOT
BRANCH   6  10
ATOM     10  C   UNL     1       0.532  10.039  19.971  0.00  0.00    +0.000 A 
ATOM     11  C   UNL     1       1.274  11.221  20.072  0.00  0.00    +0.000 A 
ATOM     12  C   UNL     1       0.863  12.370  19.393  0.00  0.00    +0.000 A 
ATOM     13  C   UNL     1      -0.233  12.309  18.533  0.00  0.00    +0.000 A 
ATOM     14  F   UNL     1      -0.601  13.421  17.883  0.00  0.00    +0.000 F 
ATOM     15  C   UNL     1      -0.916  11.111  18.347  0.00  0.00    +0.000 A 
ATOM     16 CL   UNL     1      -2.219  11.012  17.223  0.00  0.00    +0.000 Cl
ATOM     17  C   UNL     1      -0.542   9.977  19.066  0.00  0.00    +0.000 A 
ENDBRANCH   6  10
BRANCH   1  18
ATOM     18  C   UNL     1       3.711   5.005  18.768  0.00  0.00    +0.000 C 
BRANCH  18  19
ATOM     19  N   UNL     1       4.179   4.109  17.716  0.00  0.00    +0.000 NA
ATOM     20  H   UNL     1       4.721   3.328  18.088  0.00  0.00    +0.000 HD
BRANCH  19  21
ATOM     21  C   UNL     1       5.039   4.797  16.736  0.00  0.00    +0.000 C 
BRANCH  21  26
ATOM     22  C   UNL     1       7.460   7.405  17.605  0.00  0.00    +0.000 A 
ATOM     23  C   UNL     1       8.134   6.895  18.688  0.00  0.00    +0.000 A 
ATOM     24  C   UNL     1       7.739   5.646  19.094  0.00  0.00    +0.000 A 
ATOM     25  N   UNL     1       6.776   4.936  18.478  0.00  0.00    +0.000 NA
ATOM     26  C   UNL     1       6.185   5.521  17.420  0.00  0.00    +0.000 A 
ATOM     27  N   UNL     1       6.500   6.745  16.940  0.00  0.00    +0.000 NA
BRANCH  22  29
ATOM     28  C   UNL     1       8.516   9.393  18.205  0.00  0.00    +0.000 C 
ATOM     29  O   UNL     1       7.826   8.672  17.190  0.00  0.00    +0.000 OA
ENDBRANCH  22  29
ENDBRANCH  21  26
ENDBRANCH  19  21
ENDBRANCH  18  19
ENDBRANCH   1  18
TORSDOF 6
ENDMDL
MODEL 5
REMARK VINA RESULT:      -7.7      1.333      1.745
REMARK  Name = 
REMARK  7 active torsions:
REMARK  status: ('A' for Active; 'I' for Inactive)
REMARK    1  A    between atoms: C_1  and  O_2
REMARK    2  A    between atoms: O_2  and  C_3
REMARK    3  A    between atoms: C_7  and  C_8
REMARK    4  A    between atoms: C_8  and  N_9
REMARK    5  A    between atoms: N_9  and  C_10
REMARK    6  A    between atoms: C_10  and  C_11
REMARK    7  A    between atoms: C_16  and  C_18
REMARK                            x       y       z     vdW  Elec       q    Type
REMARK                         _______ _______ _______ _____ _____    ______ ____
ROOT
ATOM      1  C   UNL     1       1.394   3.254  18.839  0.00  0.00    +0.000 C 
ATOM      2  F   UNL     1       0.428   2.485  18.251  0.00  0.00    +0.000 F 
ATOM      3  C   UNL     1       0.914   3.600  20.254  0.00  0.00    +0.000 C 
ATOM      4  C   UNL     1       1.791   4.666  20.901  0.00  0.00    +0.000 C 
ATOM      5  N   UNL     1       1.881   5.845  20.035  0.00  0.00    +0.000 N 
ATOM      6  C   UNL     1       1.588   7.090  20.593  0.00  0.00    +0.000 C 
ATOM      7  O   UNL     1       1.330   7.221  21.791  0.00  0.00    +0.000 OA
ATOM      8  C   UNL     1       2.404   5.565  18.694  0.00  0.00    +0.000 C 
ATOM      9  C   UNL     1       1.510   4.539  18.006  0.00  0.00    +0.000 C 
ENDROOT
BRANCH   6  10
ATOM     10  C   UNL     1       1.594   8.340  19.780  0.00  0.00    +0.000 A 
ATOM     11  C   UNL     1       2.115   8.409  18.483  0.00  0.00    +0.000 A 
ATOM     12  C   UNL     1       2.124   9.623  17.793  0.00  0.00    +0.000 A 
ATOM     13  C   UNL     1       1.520  10.744  18.360  0.00  0.00    +0.000 A 
ATOM     14  F   UNL     1       1.530  11.895  17.673  0.00  0.00    +0.000 F 
ATOM     15  C   UNL     1       0.908  10.659  19.607  0.00  0.00    +0.000 A 
ATOM     16 CL   UNL     1       0.090  12.020  20.275  0.00  0.00    +0.000 Cl
ATOM     17  C   UNL     1       0.947   9.464  20.322  0.00  0.00    +0.000 A 
ENDBRANCH   6  10
BRANCH   1  18
ATOM     18  C   UNL     1       2.727   2.452  18.803  0.00  0.00    +0.000 C 
BRANCH  18  19
ATOM     19  N   UNL     1       3.839   3.196  18.223  0.00  0.00    +0.000 NA
ATOM     20  H   UNL     1       4.240   2.722  17.413  0.00  0.00    +0.000 HD
BRANCH  19  21
ATOM     21  C   UNL     1       4.937   3.400  19.186  0.00  0.00    +0.000 C 
BRANCH  21  26
ATOM     22  C   UNL     1       6.833   5.543  16.898  0.00  0.00    +0.000 A 
ATOM     23  C   UNL     1       7.623   6.305  17.723  0.00  0.00    +0.000 A 
ATOM     24  C   UNL     1       7.488   6.055  19.065  0.00  0.00    +0.000 A 
ATOM     25  N   UNL     1       6.663   5.117  19.565  0.00  0.00    +0.000 NA
ATOM     26  C   UNL     1       5.941   4.417  18.671  0.00  0.00    +0.000 A 
ATOM     27  N   UNL     1       6.000   4.584  17.331  0.00  0.00    +0.000 NA
BRANCH  22  29
ATOM     28  C   UNL     1       6.564   4.661  14.758  0.00  0.00    +0.000 C 
ATOM     29  O   UNL     1       6.935   5.790  15.542  0.00  0.00    +0.000 OA
ENDBRANCH  22  29
ENDBRANCH  21  26
ENDBRANCH  19  21
ENDBRANCH  18  19
ENDBRANCH   1  18
TORSDOF 6
ENDMDL
MODEL 6
REMARK VINA RESULT:      -7.7      3.301      4.267
REMARK  Name = 
REMARK  7 active torsions:
REMARK  status: ('A' for Active; 'I' for Inactive)
REMARK    1  A    between atoms: C_1  and  O_2
REMARK    2  A    between atoms: O_2  and  C_3
REMARK    3  A    between atoms: C_7  and  C_8
REMARK    4  A    between atoms: C_8  and  N_9
REMARK    5  A    between atoms: N_9  and  C_10
REMARK    6  A    between atoms: C_10  and  C_11
REMARK    7  A    between atoms: C_16  and  C_18
REMARK                            x       y       z     vdW  Elec       q    Type
REMARK                         _______ _______ _______ _____ _____    ______ ____
ROOT
ATOM      1  C   UNL     1       4.812   5.401  18.273  0.00  0.00    +0.000 C 
ATOM      2  F   UNL     1       6.027   5.082  18.815  0.00  0.00    +0.000 F 
ATOM      3  C   UNL     1       4.992   6.688  17.457  0.00  0.00    +0.000 C 
ATOM      4  C   UNL     1       3.653   7.274  17.027  0.00  0.00    +0.000 C 
ATOM      5  N   UNL     1       2.784   7.465  18.192  0.00  0.00    +0.000 N 
ATOM      6  C   UNL     1       2.206   8.721  18.377  0.00  0.00    +0.000 C 
ATOM      7  O   UNL     1       2.353   9.631  17.559  0.00  0.00    +0.000 OA
ATOM      8  C   UNL     1       2.531   6.240  18.957  0.00  0.00    +0.000 C 
ATOM      9  C   UNL     1       3.856   5.665  19.445  0.00  0.00    +0.000 C 
ENDROOT
BRANCH   6  10
ATOM     10  C   UNL     1       1.356   9.031  19.562  0.00  0.00    +0.000 A 
ATOM     11  C   UNL     1       1.531   8.426  20.811  0.00  0.00    +0.000 A 
ATOM     12  C   UNL     1       0.672   8.736  21.869  0.00  0.00    +0.000 A 
ATOM     13  C   UNL     1      -0.297   9.724  21.705  0.00  0.00    +0.000 A 
ATOM     14  F   UNL     1      -1.101  10.012  22.738  0.00  0.00    +0.000 F 
ATOM     15  C   UNL     1      -0.411  10.404  20.496  0.00  0.00    +0.000 A 
ATOM     16 CL   UNL     1      -1.552  11.683  20.316  0.00  0.00    +0.000 Cl
ATOM     17  C   UNL     1       0.407  10.059  19.422  0.00  0.00    +0.000 A 
ENDBRANCH   6  10
BRANCH   1  18
ATOM     18  C   UNL     1       4.332   4.183  17.433  0.00  0.00    +0.000 C 
BRANCH  18  19
ATOM     19  N   UNL     1       5.385   3.587  16.617  0.00  0.00    +0.000 NA
ATOM     20  H   UNL     1       5.862   2.825  17.101  0.00  0.00    +0.000 HD
BRANCH  19  21
ATOM     21  C   UNL     1       6.419   4.566  16.236  0.00  0.00    +0.000 C 
BRANCH  21  26
ATOM     22  C   UNL     1       6.258   3.590  12.709  0.00  0.00    +0.000 A 
ATOM     23  C   UNL     1       7.172   4.407  12.089  0.00  0.00    +0.000 A 
ATOM     24  C   UNL     1       7.836   5.281  12.911  0.00  0.00    +0.000 A 
ATOM     25  N   UNL     1       7.642   5.339  14.242  0.00  0.00    +0.000 NA
ATOM     26  C   UNL     1       6.733   4.488  14.752  0.00  0.00    +0.000 A 
ATOM     27  N   UNL     1       6.027   3.590  14.030  0.00  0.00    +0.000 NA
BRANCH  22  29
ATOM     28  C   UNL     1       4.279   3.222  11.535  0.00  0.00    +0.000 C 
ATOM     29  O   UNL     1       5.560   2.715  11.898  0.00  0.00    +0.000 OA
ENDBRANCH  22  29
ENDBRANCH  21  26
ENDBRANCH  19  21
ENDBRANCH  18  19
ENDBRANCH   1  18
TORSDOF 6
ENDMDL
MODEL 7
REMARK VINA RESULT:      -7.6      3.086      4.047
REMARK  Name = 
REMARK  7 active torsions:
REMARK  status: ('A' for Active; 'I' for Inactive)
REMARK    1  A    between atoms: C_1  and  O_2
REMARK    2  A    between atoms: O_2  and  C_3
REMARK    3  A    between atoms: C_7  and  C_8
REMARK    4  A    between atoms: C_8  and  N_9
REMARK    5  A    between atoms: N_9  and  C_10
REMARK    6  A    between atoms: C_10  and  C_11
REMARK    7  A    between atoms: C_16  and  C_18
REMARK                            x       y       z     vdW  Elec       q    Type
REMARK                         _______ _______ _______ _____ _____    ______ ____
ROOT
ATOM      1  C   UNL     1       4.357   4.437  17.415  0.00  0.00    +0.000 C 
ATOM      2  F   UNL     1       4.179   4.023  16.123  0.00  0.00    +0.000 F 
ATOM      3  C   UNL     1       3.381   3.646  18.295  0.00  0.00    +0.000 C 
ATOM      4  C   UNL     1       3.312   4.212  19.708  0.00  0.00    +0.000 C 
ATOM      5  N   UNL     1       2.997   5.643  19.667  0.00  0.00    +0.000 N 
ATOM      6  C   UNL     1       1.932   6.100  20.444  0.00  0.00    +0.000 C 
ATOM      7  O   UNL     1       1.310   5.352  21.200  0.00  0.00    +0.000 OA
ATOM      8  C   UNL     1       3.950   6.444  18.892  0.00  0.00    +0.000 C 
ATOM      9  C   UNL     1       3.995   5.929  17.458  0.00  0.00    +0.000 C 
ENDROOT
BRANCH   6  10
ATOM     10  C   UNL     1       1.497   7.527  20.425  0.00  0.00    +0.000 A 
ATOM     11  C   UNL     1       0.911   8.166  21.523  0.00  0.00    +0.000 A 
ATOM     12  C   UNL     1       0.492   9.494  21.422  0.00  0.00    +0.000 A 
ATOM     13  C   UNL     1       0.750  10.213  20.256  0.00  0.00    +0.000 A 
ATOM     14  F   UNL     1       0.348  11.490  20.187  0.00  0.00    +0.000 F 
ATOM     15  C   UNL     1       1.424   9.615  19.195  0.00  0.00    +0.000 A 
ATOM     16 CL   UNL     1       1.817  10.524  17.785  0.00  0.00    +0.000 Cl
ATOM     17  C   UNL     1       1.794   8.274  19.272  0.00  0.00    +0.000 A 
ENDBRANCH   6  10
BRANCH   1  18
ATOM     18  C   UNL     1       5.854   4.222  17.780  0.00  0.00    +0.000 C 
BRANCH  18  19
ATOM     19  N   UNL     1       6.690   3.877  16.635  0.00  0.00    +0.000 NA
ATOM     20  H   UNL     1       7.533   3.374  16.910  0.00  0.00    +0.000 HD
BRANCH  19  21
ATOM     21  C   UNL     1       7.128   5.068  15.885  0.00  0.00    +0.000 C 
BRANCH  21  26
ATOM     22  C   UNL     1       6.364   3.631  12.603  0.00  0.00    +0.000 A 
ATOM     23  C   UNL     1       7.129   4.362  11.726  0.00  0.00    +0.000 A 
ATOM     24  C   UNL     1       7.905   5.340  12.294  0.00  0.00    +0.000 A 
ATOM     25  N   UNL     1       7.951   5.574  13.618  0.00  0.00    +0.000 NA
ATOM     26  C   UNL     1       7.173   4.795  14.392  0.00  0.00    +0.000 A 
ATOM     27  N   UNL     1       6.374   3.806  13.933  0.00  0.00    +0.000 NA
BRANCH  22  29
ATOM     28  C   UNL     1       4.389   3.196  11.447  0.00  0.00    +0.000 C 
ATOM     29  O   UNL     1       5.557   2.653  12.053  0.00  0.00    +0.000 OA
ENDBRANCH  22  29
ENDBRANCH  21  26
ENDBRANCH  19  21
ENDBRANCH  18  19
ENDBRANCH   1  18
TORSDOF 6
ENDMDL
MODEL 8
REMARK VINA RESULT:      -7.5      1.821      2.265
REMARK  Name = 
REMARK  7 active torsions:
REMARK  status: ('A' for Active; 'I' for Inactive)
REMARK    1  A    between atoms: C_1  and  O_2
REMARK    2  A    between atoms: O_2  and  C_3
REMARK    3  A    between atoms: C_7  and  C_8
REMARK    4  A    between atoms: C_8  and  N_9
REMARK    5  A    between atoms: N_9  and  C_10
REMARK    6  A    between atoms: C_10  and  C_11
REMARK    7  A    between atoms: C_16  and  C_18
REMARK                            x       y       z     vdW  Elec       q    Type
REMARK                         _______ _______ _______ _____ _____    ______ ____
ROOT
ATOM      1  C   UNL     1       2.103   5.672  19.088  0.00  0.00    +0.000 C 
ATOM      2  F   UNL     1       1.652   4.679  18.262  0.00  0.00    +0.000 F 
ATOM      3  C   UNL     1       1.211   5.677  20.336  0.00  0.00    +0.000 C 
ATOM      4  C   UNL     1       1.458   6.909  21.199  0.00  0.00    +0.000 C 
ATOM      5  N   UNL     1       1.311   8.128  20.400  0.00  0.00    +0.000 N 
ATOM      6  C   UNL     1       0.460   9.125  20.879  0.00  0.00    +0.000 C 
ATOM      7  O   UNL     1      -0.102   9.031  21.971  0.00  0.00    +0.000 OA
ATOM      8  C   UNL     1       2.200   8.192  19.235  0.00  0.00    +0.000 C 
ATOM      9  C   UNL     1       1.932   6.996  18.328  0.00  0.00    +0.000 C 
ENDROOT
BRANCH   6  10
ATOM     10  C   UNL     1       0.200  10.375  20.109  0.00  0.00    +0.000 A 
ATOM     11  C   UNL     1       0.951  11.546  20.267  0.00  0.00    +0.000 A 
ATOM     12  C   UNL     1       0.626  12.693  19.540  0.00  0.00    +0.000 A 
ATOM     13  C   UNL     1      -0.386  12.641  18.583  0.00  0.00    +0.000 A 
ATOM     14  F   UNL     1      -0.671  13.752  17.889  0.00  0.00    +0.000 F 
ATOM     15  C   UNL     1      -1.070  11.453  18.346  0.00  0.00    +0.000 A 
ATOM     16 CL   UNL     1      -2.264  11.363  17.107  0.00  0.00    +0.000 Cl
ATOM     17  C   UNL     1      -0.786  10.321  19.108  0.00  0.00    +0.000 A 
ENDBRANCH   6  10
BRANCH   1  18
ATOM     18  C   UNL     1       3.605   5.397  19.386  0.00  0.00    +0.000 C 
BRANCH  18  19
ATOM     19  N   UNL     1       3.873   4.027  19.811  0.00  0.00    +0.000 NA
ATOM     20  H   UNL     1       4.156   3.975  20.789  0.00  0.00    +0.000 HD
BRANCH  19  21
ATOM     21  C   UNL     1       4.946   3.397  19.020  0.00  0.00    +0.000 C 
BRANCH  21  26
ATOM     22  C   UNL     1       7.086   5.550  16.970  0.00  0.00    +0.000 A 
ATOM     23  C   UNL     1       7.798   6.290  17.883  0.00  0.00    +0.000 A 
ATOM     24  C   UNL     1       7.526   6.021  19.200  0.00  0.00    +0.000 A 
ATOM     25  N   UNL     1       6.644   5.086  19.600  0.00  0.00    +0.000 NA
ATOM     26  C   UNL     1       6.008   4.408  18.626  0.00  0.00    +0.000 A 
ATOM     27  N   UNL     1       6.203   4.596  17.302  0.00  0.00    +0.000 NA
BRANCH  22  29
ATOM     28  C   UNL     1       6.674   4.890  14.774  0.00  0.00    +0.000 C 
ATOM     29  O   UNL     1       7.326   5.817  15.635  0.00  0.00    +0.000 OA
ENDBRANCH  22  29
ENDBRANCH  21  26
ENDBRANCH  19  21
ENDBRANCH  18  19
ENDBRANCH   1  18
TORSDOF 6
ENDMDL
MODEL 9
REMARK VINA RESULT:      -7.5      4.434      8.690
REMARK  Name = 
REMARK  7 active torsions:
REMARK  status: ('A' for Active; 'I' for Inactive)
REMARK    1  A    between atoms: C_1  and  O_2
REMARK    2  A    between atoms: O_2  and  C_3
REMARK    3  A    between atoms: C_7  and  C_8
REMARK    4  A    between atoms: C_8  and  N_9
REMARK    5  A    between atoms: N_9  and  C_10
REMARK    6  A    between atoms: C_10  and  C_11
REMARK    7  A    between atoms: C_16  and  C_18
REMARK                            x       y       z     vdW  Elec       q    Type
REMARK                         _______ _______ _______ _____ _____    ______ ____
ROOT
ATOM      1  C   UNL     1       1.258   9.505  19.792  0.00  0.00    +0.000 C 
ATOM      2  F   UNL     1       1.640  10.737  20.245  0.00  0.00    +0.000 F 
ATOM      3  C   UNL     1       1.263   8.548  20.991  0.00  0.00    +0.000 C 
ATOM      4  C   UNL     1       1.107   7.096  20.554  0.00  0.00    +0.000 C 
ATOM      5  N   UNL     1       2.126   6.753  19.558  0.00  0.00    +0.000 N 
ATOM      6  C   UNL     1       2.903   5.616  19.783  0.00  0.00    +0.000 C 
ATOM      7  O   UNL     1       2.705   4.873  20.746  0.00  0.00    +0.000 OA
ATOM      8  C   UNL     1       2.105   7.602  18.363  0.00  0.00    +0.000 C 
ATOM      9  C   UNL     1       2.315   9.056  18.772  0.00  0.00    +0.000 C 
ENDROOT
BRANCH   6  10
ATOM     10  C   UNL     1       4.003   5.218  18.859  0.00  0.00    +0.000 A 
ATOM     11  C   UNL     1       3.784   4.579  17.633  0.00  0.00    +0.000 A 
ATOM     12  C   UNL     1       4.865   4.199  16.834  0.00  0.00    +0.000 A 
ATOM     13  C   UNL     1       6.160   4.548  17.214  0.00  0.00    +0.000 A 
ATOM     14  F   UNL     1       7.180   4.183  16.425  0.00  0.00    +0.000 F 
ATOM     15  C   UNL     1       6.380   5.273  18.381  0.00  0.00    +0.000 A 
ATOM     16 CL   UNL     1       7.971   5.777  18.811  0.00  0.00    +0.000 Cl
ATOM     17  C   UNL     1       5.309   5.605  19.208  0.00  0.00    +0.000 A 
ENDBRANCH   6  10
BRANCH   1  18
ATOM     18  C   UNL     1      -0.134   9.658  19.113  0.00  0.00    +0.000 C 
BRANCH  18  19
ATOM     19  N   UNL     1      -0.168  10.691  18.083  0.00  0.00    +0.000 NA
ATOM     20  H   UNL     1       0.762  11.046  17.862  0.00  0.00    +0.000 HD
BRANCH  19  21
ATOM     21  C   UNL     1      -0.984  11.852  18.483  0.00  0.00    +0.000 C 
BRANCH  21  26
ATOM     22  C   UNL     1      -3.888  11.065  16.394  0.00  0.00    +0.000 A 
ATOM     23  C   UNL     1      -4.967  11.295  17.213  0.00  0.00    +0.000 A 
ATOM     24  C   UNL     1      -4.666  11.729  18.478  0.00  0.00    +0.000 A 
ATOM     25  N   UNL     1      -3.409  11.945  18.909  0.00  0.00    +0.000 NA
ATOM     26  C   UNL     1      -2.423  11.700  18.025  0.00  0.00    +0.000 A 
ATOM     27  N   UNL     1      -2.613  11.272  16.757  0.00  0.00    +0.000 NA
BRANCH  22  29
ATOM     28  C   UNL     1      -3.022  10.032  14.494  0.00  0.00    +0.000 C 
ATOM     29  O   UNL     1      -4.165  10.607  15.120  0.00  0.00    +0.000 OA
ENDBRANCH  22  29
ENDBRANCH  21  26
ENDBRANCH  19  21
ENDBRANCH  18  19
ENDBRANCH   1  18
TORSDOF 6
ENDMDL
