MODEL 1
REMARK VINA RESULT:      -7.7      0.000      0.000
REMARK  Name = 
REMARK  8 active torsions:
REMARK  status: ('A' for Active; 'I' for Inactive)
REMARK    1  A    between atoms: N_5  and  C_6
REMARK    2  A    between atoms: C_11  and  N_12
REMARK    3  A    between atoms: N_12  and  C_13
REMARK    4  A    between atoms: C_15  and  C_16
REMARK    5  A    between atoms: C_16  and  O_17
REMARK    6  A    between atoms: C_18  and  O_19
REMARK    7  A    between atoms: C_20  and  O_21
REMARK    8  A    between atoms: C_22  and  C_23
REMARK                            x       y       z     vdW  Elec       q    Type
REMARK                         _______ _______ _______ _____ _____    ______ ____
ROOT
ATOM      1  O   UNL     1       1.341   4.265  21.222  0.00  0.00    +0.000 OA
ATOM      2  C   UNL     1       1.864   5.170  20.580  0.00  0.00    +0.000 A 
ATOM      3  N   UNL     1       1.572   6.464  20.879  0.00  0.00    +0.000 N 
ATOM      4  C   UNL     1       1.829   7.493  20.027  0.00  0.00    +0.000 A 
ATOM      5  N   UNL     1       1.285   8.671  20.470  0.00  0.00    +0.000 N 
ATOM      6  N   UNL     1       2.502   7.306  18.941  0.00  0.00    +0.000 NA
ATOM      7  C   UNL     1       2.999   6.043  18.638  0.00  0.00    +0.000 A 
ATOM      8  C   UNL     1       2.764   4.959  19.429  0.00  0.00    +0.000 A 
ATOM      9  H   UNL     1       0.898   6.593  21.612  0.00  0.00    +0.000 HD
ATOM     10  H   UNL     1       1.360   8.823  21.469  0.00  0.00    +0.000 HD
ENDROOT
BRANCH   8  11
ATOM     11  C   UNL     1       3.336   3.670  19.161  0.00  0.00    +0.000 A 
ATOM     12  N   UNL     1       4.347   3.104  19.813  0.00  0.00    +0.000 NA
ATOM     13  C   UNL     1       4.563   1.810  19.378  0.00  0.00    +0.000 A 
ATOM     14  C   UNL     1       3.721   1.369  18.385  0.00  0.00    +0.000 A 
ATOM     15  S   UNL     1       2.613   2.602  17.986  0.00  0.00    +0.000 S 
ENDBRANCH   8  11
BRANCH   5  16
ATOM     16  C   UNL     1       1.355   9.860  19.685  0.00  0.00    +0.000 C 
ATOM     17  C   UNL     1       0.143  10.041  18.741  0.00  0.00    +0.000 C 
ATOM     18  C   UNL     1       0.034  11.497  19.232  0.00  0.00    +0.000 C 
ATOM     19  C   UNL     1       0.814  11.076  20.488  0.00  0.00    +0.000 C 
ENDBRANCH   5  16
BRANCH   7  20
ATOM     20  N   UNL     1       3.674   5.902  17.419  0.00  0.00    +0.000 N 
ATOM     21  H   UNL     1       3.856   4.897  17.271  0.00  0.00    +0.000 HD
BRANCH  20  22
ATOM     22  C   UNL     1       4.915   6.591  17.035  0.00  0.00    +0.000 C 
ATOM     23  C   UNL     1       5.476   6.244  15.647  0.00  0.00    +0.000 C 
ATOM     24  C   UNL     1       6.506   5.115  15.851  0.00  0.00    +0.000 C 
ATOM     25  C   UNL     1       6.362   4.738  17.329  0.00  0.00    +0.000 C 
ATOM     26  C   UNL     1       6.024   6.095  17.980  0.00  0.00    +0.000 C 
BRANCH  25  27
ATOM     27  O   UNL     1       7.557   4.193  17.866  0.00  0.00    +0.000 OA
ATOM     28  H   UNL     1       8.250   4.870  17.772  0.00  0.00    +0.000 HD
ENDBRANCH  25  27
BRANCH  26  29
ATOM     29  O   UNL     1       7.118   7.023  17.958  0.00  0.00    +0.000 OA
ATOM     30  H   UNL     1       7.927   6.507  17.782  0.00  0.00    +0.000 HD
ENDBRANCH  26  29
BRANCH  24  31
ATOM     31  C   UNL     1       6.311   3.987  14.851  0.00  0.00    +0.000 C 
BRANCH  31  32
ATOM     32  O   UNL     1       5.895   2.787  15.484  0.00  0.00    +0.000 OA
ATOM     33  H   UNL     1       5.242   3.028  16.161  0.00  0.00    +0.000 HD
ENDBRANCH  31  32
ENDBRANCH  24  31
ENDBRANCH  20  22
ENDBRANCH   7  20
TORSDOF 8
ENDMDL
MODEL 2
REMARK VINA RESULT:      -7.0      3.047      6.392
REMARK  Name = 
REMARK  8 active torsions:
REMARK  status: ('A' for Active; 'I' for Inactive)
REMARK    1  A    between atoms: N_5  and  C_6
REMARK    2  A    between atoms: C_11  and  N_12
REMARK    3  A    between atoms: N_12  and  C_13
REMARK    4  A    between atoms: C_15  and  C_16
REMARK    5  A    between atoms: C_16  and  O_17
REMARK    6  A    between atoms: C_18  and  O_19
REMARK    7  A    between atoms: C_20  and  O_21
REMARK    8  A    between atoms: C_22  and  C_23
REMARK                            x       y       z     vdW  Elec       q    Type
REMARK                         _______ _______ _______ _____ _____    ______ ____
ROOT
ATOM      1  O   UNL     1       1.377   9.558  17.824  0.00  0.00    +0.000 OA
ATOM      2  C   UNL     1       2.085   8.652  18.253  0.00  0.00    +0.000 A 
ATOM      3  N   UNL     1       3.109   8.181  17.494  0.00  0.00    +0.000 N 
ATOM      4  C   UNL     1       3.714   6.986  17.732  0.00  0.00    +0.000 A 
ATOM      5  N   UNL     1       4.590   6.649  16.733  0.00  0.00    +0.000 N 
ATOM      6  N   UNL     1       3.438   6.300  18.790  0.00  0.00    +0.000 NA
ATOM      7  C   UNL     1       2.529   6.790  19.721  0.00  0.00    +0.000 A 
ATOM      8  C   UNL     1       1.866   7.966  19.541  0.00  0.00    +0.000 A 
ATOM      9  H   UNL     1       3.200   8.603  16.586  0.00  0.00    +0.000 HD
ATOM     10  H   UNL     1       5.140   7.420  16.372  0.00  0.00    +0.000 HD
ENDROOT
BRANCH   8  11
ATOM     11  C   UNL     1       0.982   8.513  20.532  0.00  0.00    +0.000 A 
ATOM     12  N   UNL     1       0.063   7.846  21.225  0.00  0.00    +0.000 NA
ATOM     13  C   UNL     1      -0.526   8.651  22.182  0.00  0.00    +0.000 A 
ATOM     14  C   UNL     1      -0.067   9.946  22.233  0.00  0.00    +0.000 A 
ATOM     15  S   UNL     1       1.148  10.168  21.058  0.00  0.00    +0.000 S 
ENDBRANCH   8  11
BRANCH   5  16
ATOM     16  C   UNL     1       5.266   5.393  16.734  0.00  0.00    +0.000 C 
ATOM     17  C   UNL     1       5.233   4.680  15.361  0.00  0.00    +0.000 C 
ATOM     18  C   UNL     1       6.746   4.428  15.504  0.00  0.00    +0.000 C 
ATOM     19  C   UNL     1       6.791   5.593  16.507  0.00  0.00    +0.000 C 
ENDBRANCH   5  16
BRANCH   7  20
ATOM     20  N   UNL     1       2.237   5.969  20.818  0.00  0.00    +0.000 N 
ATOM     21  H   UNL     1       2.493   6.483  21.675  0.00  0.00    +0.000 HD
BRANCH  20  22
ATOM     22  C   UNL     1       2.721   4.595  21.019  0.00  0.00    +0.000 C 
ATOM     23  C   UNL     1       3.360   3.921  19.794  0.00  0.00    +0.000 C 
ATOM     24  C   UNL     1       2.245   3.118  19.095  0.00  0.00    +0.000 C 
ATOM     25  C   UNL     1       0.970   3.511  19.847  0.00  0.00    +0.000 C 
ATOM     26  C   UNL     1       1.489   3.712  21.286  0.00  0.00    +0.000 C 
BRANCH  25  27
ATOM     27  O   UNL     1      -0.023   2.499  19.795  0.00  0.00    +0.000 OA
ATOM     28  H   UNL     1       0.440   1.641  19.803  0.00  0.00    +0.000 HD
ENDBRANCH  25  27
BRANCH  26  29
ATOM     29  O   UNL     1       1.907   2.491  21.913  0.00  0.00    +0.000 OA
ATOM     30  H   UNL     1       2.085   1.850  21.200  0.00  0.00    +0.000 HD
ENDBRANCH  26  29
BRANCH  24  31
ATOM     31  C   UNL     1       2.237   3.358  17.593  0.00  0.00    +0.000 C 
BRANCH  31  32
ATOM     32  O   UNL     1       1.235   4.289  17.214  0.00  0.00    +0.000 OA
ATOM     33  H   UNL     1       1.272   4.378  16.248  0.00  0.00    +0.000 HD
ENDBRANCH  31  32
ENDBRANCH  24  31
ENDBRANCH  20  22
ENDBRANCH   7  20
TORSDOF 8
ENDMDL
MODEL 3
REMARK VINA RESULT:      -6.9      2.474      6.719
REMARK  Name = 
REMARK  8 active torsions:
REMARK  status: ('A' for Active; 'I' for Inactive)
REMARK    1  A    between atoms: N_5  and  C_6
REMARK    2  A    between atoms: C_11  and  N_12
REMARK    3  A    between atoms: N_12  and  C_13
REMARK    4  A    between atoms: C_15  and  C_16
REMARK    5  A    between atoms: C_16  and  O_17
REMARK    6  A    between atoms: C_18  and  O_19
REMARK    7  A    between atoms: C_20  and  O_21
REMARK    8  A    between atoms: C_22  and  C_23
REMARK                            x       y       z     vdW  Elec       q    Type
REMARK                         _______ _______ _______ _____ _____    ______ ____
ROOT
ATOM      1  O   UNL     1       4.966   8.098  17.398  0.00  0.00    +0.000 OA
ATOM      2  C   UNL     1       4.847   6.903  17.150  0.00  0.00    +0.000 A 
ATOM      3  N   UNL     1       5.705   6.306  16.280  0.00  0.00    +0.000 N 
ATOM      4  C   UNL     1       5.446   5.104  15.698  0.00  0.00    +0.000 A 
ATOM      5  N   UNL     1       6.366   4.798  14.729  0.00  0.00    +0.000 N 
ATOM      6  N   UNL     1       4.430   4.395  16.058  0.00  0.00    +0.000 NA
ATOM      7  C   UNL     1       3.591   4.843  17.073  0.00  0.00    +0.000 A 
ATOM      8  C   UNL     1       3.771   6.046  17.687  0.00  0.00    +0.000 A 
ATOM      9  H   UNL     1       6.384   6.917  15.861  0.00  0.00    +0.000 HD
ATOM     10  H   UNL     1       7.322   5.043  14.959  0.00  0.00    +0.000 HD
ENDROOT
BRANCH   8  11
ATOM     11  C   UNL     1       2.954   6.482  18.784  0.00  0.00    +0.000 A 
ATOM     12  N   UNL     1       2.808   5.865  19.953  0.00  0.00    +0.000 NA
ATOM     13  C   UNL     1       2.047   6.619  20.827  0.00  0.00    +0.000 A 
ATOM     14  C   UNL     1       1.599   7.823  20.337  0.00  0.00    +0.000 A 
ATOM     15  S   UNL     1       2.153   8.031  18.738  0.00  0.00    +0.000 S 
ENDBRANCH   8  11
BRANCH   5  16
ATOM     16  C   UNL     1       6.235   3.625  13.927  0.00  0.00    +0.000 C 
ATOM     17  C   UNL     1       4.961   3.624  13.051  0.00  0.00    +0.000 C 
ATOM     18  C   UNL     1       5.836   3.201  11.855  0.00  0.00    +0.000 C 
ATOM     19  C   UNL     1       7.048   3.770  12.611  0.00  0.00    +0.000 C 
ENDBRANCH   5  16
BRANCH   7  20
ATOM     20  N   UNL     1       2.478   4.049  17.375  0.00  0.00    +0.000 N 
ATOM     21  H   UNL     1       1.995   4.474  18.182  0.00  0.00    +0.000 HD
BRANCH  20  22
ATOM     22  C   UNL     1       2.497   2.603  17.639  0.00  0.00    +0.000 C 
ATOM     23  C   UNL     1       1.502   2.099  18.697  0.00  0.00    +0.000 C 
ATOM     24  C   UNL     1       2.259   2.061  20.039  0.00  0.00    +0.000 C 
ATOM     25  C   UNL     1       3.608   2.717  19.728  0.00  0.00    +0.000 C 
ATOM     26  C   UNL     1       3.859   2.272  18.273  0.00  0.00    +0.000 C 
BRANCH  25  27
ATOM     27  O   UNL     1       4.641   2.265  20.590  0.00  0.00    +0.000 OA
ATOM     28  H   UNL     1       5.400   2.863  20.468  0.00  0.00    +0.000 HD
ENDBRANCH  25  27
BRANCH  26  29
ATOM     29  O   UNL     1       4.113   0.865  18.146  0.00  0.00    +0.000 OA
ATOM     30  H   UNL     1       5.022   0.768  17.806  0.00  0.00    +0.000 HD
ENDBRANCH  26  29
BRANCH  24  31
ATOM     31  C   UNL     1       1.450   2.695  21.160  0.00  0.00    +0.000 C 
BRANCH  31  32
ATOM     32  O   UNL     1       2.274   3.419  22.060  0.00  0.00    +0.000 OA
ATOM     33  H   UNL     1       1.728   3.653  22.828  0.00  0.00    +0.000 HD
ENDBRANCH  31  32
ENDBRANCH  24  31
ENDBRANCH  20  22
ENDBRANCH   7  20
TORSDOF 8
ENDMDL
MODEL 4
REMARK VINA RESULT:      -6.7      2.522      4.659
REMARK  Name = 
REMARK  8 active torsions:
REMARK  status: ('A' for Active; 'I' for Inactive)
REMARK    1  A    between atoms: N_5  and  C_6
REMARK    2  A    between atoms: C_11  and  N_12
REMARK    3  A    between atoms: N_12  and  C_13
REMARK    4  A    between atoms: C_15  and  C_16
REMARK    5  A    between atoms: C_16  and  O_17
REMARK    6  A    between atoms: C_18  and  O_19
REMARK    7  A    between atoms: C_20  and  O_21
REMARK    8  A    between atoms: C_22  and  C_23
REMARK                            x       y       z     vdW  Elec       q    Type
REMARK                         _______ _______ _______ _____ _____    ______ ____
ROOT
ATOM      1  O   UNL     1       3.917   8.031  16.163  0.00  0.00    +0.000 OA
ATOM      2  C   UNL     1       3.572   7.409  17.162  0.00  0.00    +0.000 A 
ATOM      3  N   UNL     1       2.566   7.890  17.940  0.00  0.00    +0.000 N 
ATOM      4  C   UNL     1       2.352   7.463  19.214  0.00  0.00    +0.000 A 
ATOM      5  N   UNL     1       1.402   8.218  19.853  0.00  0.00    +0.000 N 
ATOM      6  N   UNL     1       3.011   6.466  19.702  0.00  0.00    +0.000 NA
ATOM      7  C   UNL     1       3.939   5.793  18.916  0.00  0.00    +0.000 A 
ATOM      8  C   UNL     1       4.225   6.175  17.640  0.00  0.00    +0.000 A 
ATOM      9  H   UNL     1       2.182   8.771  17.649  0.00  0.00    +0.000 HD
ATOM     10  H   UNL     1       0.610   8.478  19.277  0.00  0.00    +0.000 HD
ENDROOT
BRANCH   8  11
ATOM     11  C   UNL     1       5.128   5.440  16.798  0.00  0.00    +0.000 A 
ATOM     12  N   UNL     1       4.795   4.520  15.897  0.00  0.00    +0.000 NA
ATOM     13  C   UNL     1       5.898   4.101  15.177  0.00  0.00    +0.000 A 
ATOM     14  C   UNL     1       7.091   4.694  15.519  0.00  0.00    +0.000 A 
ATOM     15  S   UNL     1       6.830   5.821  16.772  0.00  0.00    +0.000 S 
ENDBRANCH   8  11
BRANCH   5  16
ATOM     16  C   UNL     1       1.086   8.003  21.227  0.00  0.00    +0.000 C 
ATOM     17  C   UNL     1       1.502   9.179  22.140  0.00  0.00    +0.000 C 
ATOM     18  C   UNL     1       0.104   9.118  22.784  0.00  0.00    +0.000 C 
ATOM     19  C   UNL     1      -0.389   8.400  21.517  0.00  0.00    +0.000 C 
ENDBRANCH   5  16
BRANCH   7  20
ATOM     20  N   UNL     1       4.655   4.755  19.526  0.00  0.00    +0.000 N 
ATOM     21  H   UNL     1       5.661   4.971  19.442  0.00  0.00    +0.000 HD
BRANCH  20  22
ATOM     22  C   UNL     1       4.530   3.323  19.217  0.00  0.00    +0.000 C 
ATOM     23  C   UNL     1       3.196   2.885  18.591  0.00  0.00    +0.000 C 
ATOM     24  C   UNL     1       2.291   2.419  19.749  0.00  0.00    +0.000 C 
ATOM     25  C   UNL     1       3.081   2.779  21.011  0.00  0.00    +0.000 C 
ATOM     26  C   UNL     1       4.539   2.564  20.556  0.00  0.00    +0.000 C 
BRANCH  25  27
ATOM     27  O   UNL     1       2.756   1.942  22.109  0.00  0.00    +0.000 OA
ATOM     28  H   UNL     1       1.953   1.447  21.866  0.00  0.00    +0.000 HD
ENDBRANCH  25  27
BRANCH  26  29
ATOM     29  O   UNL     1       4.862   1.186  20.319  0.00  0.00    +0.000 OA
ATOM     30  H   UNL     1       4.794   1.038  19.357  0.00  0.00    +0.000 HD
ENDBRANCH  26  29
BRANCH  24  31
ATOM     31  C   UNL     1       0.894   3.009  19.643  0.00  0.00    +0.000 C 
BRANCH  31  32
ATOM     32  O   UNL     1       0.718   4.108  20.522  0.00  0.00    +0.000 OA
ATOM     33  H   UNL     1       0.023   4.672  20.147  0.00  0.00    +0.000 HD
ENDBRANCH  31  32
ENDBRANCH  24  31
ENDBRANCH  20  22
ENDBRANCH   7  20
TORSDOF 8
ENDMDL
MODEL 5
REMARK VINA RESULT:      -6.7      2.263      4.469
REMARK  Name = 
REMARK  8 active torsions:
REMARK  status: ('A' for Active; 'I' for Inactive)
REMARK    1  A    between atoms: N_5  and  C_6
REMARK    2  A    between atoms: C_11  and  N_12
REMARK    3  A    between atoms: N_12  and  C_13
REMARK    4  A    between atoms: C_15  and  C_16
REMARK    5  A    between atoms: C_16  and  O_17
REMARK    6  A    between atoms: C_18  and  O_19
REMARK    7  A    between atoms: C_20  and  O_21
REMARK    8  A    between atoms: C_22  and  C_23
REMARK                            x       y       z     vdW  Elec       q    Type
REMARK                         _______ _______ _______ _____ _____    ______ ____
ROOT
ATOM      1  O   UNL     1       3.673   8.379  16.812  0.00  0.00    +0.000 OA
ATOM      2  C   UNL     1       2.958   7.997  17.733  0.00  0.00    +0.000 A 
ATOM      3  N   UNL     1       1.930   8.780  18.156  0.00  0.00    +0.000 N 
ATOM      4  C   UNL     1       1.316   8.603  19.357  0.00  0.00    +0.000 A 
ATOM      5  N   UNL     1       0.439   9.619  19.637  0.00  0.00    +0.000 N 
ATOM      6  N   UNL     1       1.585   7.581  20.099  0.00  0.00    +0.000 NA
ATOM      7  C   UNL     1       2.497   6.626  19.664  0.00  0.00    +0.000 A 
ATOM      8  C   UNL     1       3.170   6.745  18.485  0.00  0.00    +0.000 A 
ATOM      9  H   UNL     1       1.844   9.665  17.689  0.00  0.00    +0.000 HD
ATOM     10  H   UNL     1      -0.104   9.941  18.844  0.00  0.00    +0.000 HD
ENDROOT
BRANCH   8  11
ATOM     11  C   UNL     1       4.057   5.727  17.996  0.00  0.00    +0.000 A 
ATOM     12  N   UNL     1       3.823   4.895  16.985  0.00  0.00    +0.000 NA
ATOM     13  C   UNL     1       4.935   4.126  16.701  0.00  0.00    +0.000 A 
ATOM     14  C   UNL     1       6.036   4.357  17.493  0.00  0.00    +0.000 A 
ATOM     15  S   UNL     1       5.679   5.584  18.623  0.00  0.00    +0.000 S 
ENDBRANCH   8  11
BRANCH   5  16
ATOM     16  C   UNL     1      -0.247   9.683  20.885  0.00  0.00    +0.000 C 
ATOM     17  C   UNL     1       0.654  10.144  22.055  0.00  0.00    +0.000 C 
ATOM     18  C   UNL     1      -0.458  11.128  22.467  0.00  0.00    +0.000 C 
ATOM     19  C   UNL     1      -0.996  11.037  21.029  0.00  0.00    +0.000 C 
ENDBRANCH   5  16
BRANCH   7  20
ATOM     20  N   UNL     1       2.781   5.572  20.542  0.00  0.00    +0.000 N 
ATOM     21  H   UNL     1       3.622   5.087  20.194  0.00  0.00    +0.000 HD
BRANCH  20  22
ATOM     22  C   UNL     1       1.847   4.510  20.944  0.00  0.00    +0.000 C 
ATOM     23  C   UNL     1       2.452   3.355  21.758  0.00  0.00    +0.000 C 
ATOM     24  C   UNL     1       2.825   2.248  20.752  0.00  0.00    +0.000 C 
ATOM     25  C   UNL     1       2.582   2.888  19.382  0.00  0.00    +0.000 C 
ATOM     26  C   UNL     1       1.374   3.807  19.660  0.00  0.00    +0.000 C 
BRANCH  25  27
ATOM     27  O   UNL     1       2.279   1.928  18.382  0.00  0.00    +0.000 OA
ATOM     28  H   UNL     1       1.343   2.049  18.141  0.00  0.00    +0.000 HD
ENDBRANCH  25  27
BRANCH  26  29
ATOM     29  O   UNL     1       0.164   3.085  19.931  0.00  0.00    +0.000 OA
ATOM     30  H   UNL     1      -0.010   2.517  19.157  0.00  0.00    +0.000 HD
ENDBRANCH  26  29
BRANCH  24  31
ATOM     31  C   UNL     1       4.225   1.710  21.000  0.00  0.00    +0.000 C 
BRANCH  31  32
ATOM     32  O   UNL     1       5.051   1.842  19.855  0.00  0.00    +0.000 OA
ATOM     33  H   UNL     1       5.864   1.339  20.023  0.00  0.00    +0.000 HD
ENDBRANCH  31  32
ENDBRANCH  24  31
ENDBRANCH  20  22
ENDBRANCH   7  20
TORSDOF 8
ENDMDL
MODEL 6
REMARK VINA RESULT:      -6.7      2.782      6.291
REMARK  Name = 
REMARK  8 active torsions:
REMARK  status: ('A' for Active; 'I' for Inactive)
REMARK    1  A    between atoms: N_5  and  C_6
REMARK    2  A    between atoms: C_11  and  N_12
REMARK    3  A    between atoms: N_12  and  C_13
REMARK    4  A    between atoms: C_15  and  C_16
REMARK    5  A    between atoms: C_16  and  O_17
REMARK    6  A    between atoms: C_18  and  O_19
REMARK    7  A    between atoms: C_20  and  O_21
REMARK    8  A    between atoms: C_22  and  C_23
REMARK                            x       y       z     vdW  Elec       q    Type
REMARK                         _______ _______ _______ _____ _____    ______ ____
ROOT
ATOM      1  O   UNL     1       1.246   9.404  17.949  0.00  0.00    +0.000 OA
ATOM      2  C   UNL     1       2.021   8.529  18.322  0.00  0.00    +0.000 A 
ATOM      3  N   UNL     1       3.016   8.114  17.494  0.00  0.00    +0.000 N 
ATOM      4  C   UNL     1       3.691   6.947  17.681  0.00  0.00    +0.000 A 
ATOM      5  N   UNL     1       4.515   6.659  16.625  0.00  0.00    +0.000 N 
ATOM      6  N   UNL     1       3.516   6.240  18.747  0.00  0.00    +0.000 NA
ATOM      7  C   UNL     1       2.645   6.679  19.739  0.00  0.00    +0.000 A 
ATOM      8  C   UNL     1       1.918   7.824  19.614  0.00  0.00    +0.000 A 
ATOM      9  H   UNL     1       3.029   8.546  16.587  0.00  0.00    +0.000 HD
ATOM     10  H   UNL     1       5.004   7.458  16.238  0.00  0.00    +0.000 HD
ENDROOT
BRANCH   8  11
ATOM     11  C   UNL     1       1.074   8.321  20.665  0.00  0.00    +0.000 A 
ATOM     12  N   UNL     1      -0.009   7.725  21.155  0.00  0.00    +0.000 NA
ATOM     13  C   UNL     1      -0.512   8.415  22.242  0.00  0.00    +0.000 A 
ATOM     14  C   UNL     1       0.179   9.550  22.598  0.00  0.00    +0.000 A 
ATOM     15  S   UNL     1       1.509   9.760  21.551  0.00  0.00    +0.000 S 
ENDBRANCH   8  11
BRANCH   5  16
ATOM     16  C   UNL     1       5.249   5.437  16.569  0.00  0.00    +0.000 C 
ATOM     17  C   UNL     1       5.533   4.961  15.125  0.00  0.00    +0.000 C 
ATOM     18  C   UNL     1       6.999   4.725  15.539  0.00  0.00    +0.000 C 
ATOM     19  C   UNL     1       6.773   5.708  16.699  0.00  0.00    +0.000 C 
ENDBRANCH   5  16
BRANCH   7  20
ATOM     20  N   UNL     1       2.464   5.837  20.844  0.00  0.00    +0.000 N 
ATOM     21  H   UNL     1       3.394   5.515  21.154  0.00  0.00    +0.000 HD
BRANCH  20  22
ATOM     22  C   UNL     1       1.598   4.650  20.890  0.00  0.00    +0.000 C 
ATOM     23  C   UNL     1       2.186   3.414  21.589  0.00  0.00    +0.000 C 
ATOM     24  C   UNL     1       2.830   2.545  20.490  0.00  0.00    +0.000 C 
ATOM     25  C   UNL     1       2.740   3.408  19.228  0.00  0.00    +0.000 C 
ATOM     26  C   UNL     1       1.412   4.163  19.442  0.00  0.00    +0.000 C 
BRANCH  25  27
ATOM     27  O   UNL     1       2.704   2.629  18.042  0.00  0.00    +0.000 OA
ATOM     28  H   UNL     1       3.197   3.120  17.360  0.00  0.00    +0.000 HD
ENDBRANCH  25  27
BRANCH  26  29
ATOM     29  O   UNL     1       0.259   3.312  19.371  0.00  0.00    +0.000 OA
ATOM     30  H   UNL     1      -0.508   3.847  19.649  0.00  0.00    +0.000 HD
ENDBRANCH  26  29
BRANCH  24  31
ATOM     31  C   UNL     1       4.222   2.079  20.885  0.00  0.00    +0.000 C 
BRANCH  31  32
ATOM     32  O   UNL     1       5.053   1.881  19.752  0.00  0.00    +0.000 OA
ATOM     33  H   UNL     1       4.933   2.646  19.166  0.00  0.00    +0.000 HD
ENDBRANCH  31  32
ENDBRANCH  24  31
ENDBRANCH  20  22
ENDBRANCH   7  20
TORSDOF 8
ENDMDL
MODEL 7
REMARK VINA RESULT:      -6.7      2.265      4.393
REMARK  Name = 
REMARK  8 active torsions:
REMARK  status: ('A' for Active; 'I' for Inactive)
REMARK    1  A    between atoms: N_5  and  C_6
REMARK    2  A    between atoms: C_11  and  N_12
REMARK    3  A    between atoms: N_12  and  C_13
REMARK    4  A    between atoms: C_15  and  C_16
REMARK    5  A    between atoms: C_16  and  O_17
REMARK    6  A    between atoms: C_18  and  O_19
REMARK    7  A    between atoms: C_20  and  O_21
REMARK    8  A    between atoms: C_22  and  C_23
REMARK                            x       y       z     vdW  Elec       q    Type
REMARK                         _______ _______ _______ _____ _____    ______ ____
ROOT
ATOM      1  O   UNL     1       3.792   8.264  16.780  0.00  0.00    +0.000 OA
ATOM      2  C   UNL     1       3.229   7.712  17.720  0.00  0.00    +0.000 A 
ATOM      3  N   UNL     1       2.177   8.322  18.327  0.00  0.00    +0.000 N 
ATOM      4  C   UNL     1       1.723   7.958  19.557  0.00  0.00    +0.000 A 
ATOM      5  N   UNL     1       0.778   8.830  20.032  0.00  0.00    +0.000 N 
ATOM      6  N   UNL     1       2.182   6.908  20.152  0.00  0.00    +0.000 NA
ATOM      7  C   UNL     1       3.138   6.115  19.527  0.00  0.00    +0.000 A 
ATOM      8  C   UNL     1       3.658   6.427  18.306  0.00  0.00    +0.000 A 
ATOM      9  H   UNL     1       1.944   9.232  17.970  0.00  0.00    +0.000 HD
ATOM     10  H   UNL     1       0.119   9.160  19.337  0.00  0.00    +0.000 HD
ENDROOT
BRANCH   8  11
ATOM     11  C   UNL     1       4.590   5.574  17.623  0.00  0.00    +0.000 A 
ATOM     12  N   UNL     1       4.300   4.688  16.675  0.00  0.00    +0.000 NA
ATOM     13  C   UNL     1       5.447   4.125  16.147  0.00  0.00    +0.000 A 
ATOM     14  C   UNL     1       6.630   4.573  16.685  0.00  0.00    +0.000 A 
ATOM     15  S   UNL     1       6.307   5.743  17.882  0.00  0.00    +0.000 S 
ENDBRANCH   8  11
BRANCH   5  16
ATOM     16  C   UNL     1       0.233   8.690  21.342  0.00  0.00    +0.000 C 
ATOM     17  C   UNL     1       1.166   9.229  22.452  0.00  0.00    +0.000 C 
ATOM     18  C   UNL     1      -0.046   9.970  23.050  0.00  0.00    +0.000 C 
ATOM     19  C   UNL     1      -0.716   9.877  21.669  0.00  0.00    +0.000 C 
ENDBRANCH   5  16
BRANCH   7  20
ATOM     20  N   UNL     1       3.630   5.022  20.251  0.00  0.00    +0.000 N 
ATOM     21  H   UNL     1       4.402   4.603  19.710  0.00  0.00    +0.000 HD
BRANCH  20  22
ATOM     22  C   UNL     1       2.836   3.890  20.750  0.00  0.00    +0.000 C 
ATOM     23  C   UNL     1       3.357   2.490  20.387  0.00  0.00    +0.000 C 
ATOM     24  C   UNL     1       2.624   2.063  19.099  0.00  0.00    +0.000 C 
ATOM     25  C   UNL     1       1.845   3.312  18.678  0.00  0.00    +0.000 C 
ATOM     26  C   UNL     1       1.473   3.939  20.038  0.00  0.00    +0.000 C 
BRANCH  25  27
ATOM     27  O   UNL     1       0.685   2.997  17.923  0.00  0.00    +0.000 OA
ATOM     28  H   UNL     1      -0.071   3.422  18.366  0.00  0.00    +0.000 HD
ENDBRANCH  25  27
BRANCH  26  29
ATOM     29  O   UNL     1       0.521   3.162  20.779  0.00  0.00    +0.000 OA
ATOM     30  H   UNL     1      -0.361   3.369  20.416  0.00  0.00    +0.000 HD
ENDBRANCH  26  29
BRANCH  24  31
ATOM     31  C   UNL     1       3.586   1.495  18.067  0.00  0.00    +0.000 C 
BRANCH  31  32
ATOM     32  O   UNL     1       4.456   0.528  18.634  0.00  0.00    +0.000 OA
ATOM     33  H   UNL     1       4.879   0.053  17.901  0.00  0.00    +0.000 HD
ENDBRANCH  31  32
ENDBRANCH  24  31
ENDBRANCH  20  22
ENDBRANCH   7  20
TORSDOF 8
ENDMDL
MODEL 8
REMARK VINA RESULT:      -6.6      3.604      7.472
REMARK  Name = 
REMARK  8 active torsions:
REMARK  status: ('A' for Active; 'I' for Inactive)
REMARK    1  A    between atoms: N_5  and  C_6
REMARK    2  A    between atoms: C_11  and  N_12
REMARK    3  A    between atoms: N_12  and  C_13
REMARK    4  A    between atoms: C_15  and  C_16
REMARK    5  A    between atoms: C_16  and  O_17
REMARK    6  A    between atoms: C_18  and  O_19
REMARK    7  A    between atoms: C_20  and  O_21
REMARK    8  A    between atoms: C_22  and  C_23
REMARK                            x       y       z     vdW  Elec       q    Type
REMARK                         _______ _______ _______ _____ _____    ______ ____
ROOT
ATOM      1  O   UNL     1       8.454   5.793  14.544  0.00  0.00    +0.000 OA
ATOM      2  C   UNL     1       7.409   5.152  14.605  0.00  0.00    +0.000 A 
ATOM      3  N   UNL     1       6.934   4.531  13.493  0.00  0.00    +0.000 N 
ATOM      4  C   UNL     1       5.649   4.099  13.383  0.00  0.00    +0.000 A 
ATOM      5  N   UNL     1       5.360   3.672  12.112  0.00  0.00    +0.000 N 
ATOM      6  N   UNL     1       4.848   4.126  14.395  0.00  0.00    +0.000 NA
ATOM      7  C   UNL     1       5.300   4.580  15.629  0.00  0.00    +0.000 A 
ATOM      8  C   UNL     1       6.566   5.051  15.812  0.00  0.00    +0.000 A 
ATOM      9  H   UNL     1       7.475   4.672  12.658  0.00  0.00    +0.000 HD
ATOM     10  H   UNL     1       6.101   3.147  11.663  0.00  0.00    +0.000 HD
ENDROOT
BRANCH   8  11
ATOM     11  C   UNL     1       7.062   5.451  17.099  0.00  0.00    +0.000 A 
ATOM     12  N   UNL     1       7.436   4.644  18.087  0.00  0.00    +0.000 NA
ATOM     13  C   UNL     1       7.977   5.357  19.140  0.00  0.00    +0.000 A 
ATOM     14  C   UNL     1       8.024   6.721  18.973  0.00  0.00    +0.000 A 
ATOM     15  S   UNL     1       7.382   7.131  17.447  0.00  0.00    +0.000 S 
ENDBRANCH   8  11
BRANCH   5  16
ATOM     16  C   UNL     1       4.043   3.262  11.750  0.00  0.00    +0.000 C 
ATOM     17  C   UNL     1       3.418   4.131  10.634  0.00  0.00    +0.000 C 
ATOM     18  C   UNL     1       3.003   2.833   9.915  0.00  0.00    +0.000 C 
ATOM     19  C   UNL     1       4.097   2.105  10.714  0.00  0.00    +0.000 C 
ENDBRANCH   5  16
BRANCH   7  20
ATOM     20  N   UNL     1       4.364   4.633  16.670  0.00  0.00    +0.000 N 
ATOM     21  H   UNL     1       4.882   4.714  17.559  0.00  0.00    +0.000 HD
BRANCH  20  22
ATOM     22  C   UNL     1       3.297   3.653  16.919  0.00  0.00    +0.000 C 
ATOM     23  C   UNL     1       2.036   4.194  17.612  0.00  0.00    +0.000 C 
ATOM     24  C   UNL     1       2.218   3.948  19.123  0.00  0.00    +0.000 C 
ATOM     25  C   UNL     1       3.657   3.438  19.250  0.00  0.00    +0.000 C 
ATOM     26  C   UNL     1       3.836   2.639  17.943  0.00  0.00    +0.000 C 
BRANCH  25  27
ATOM     27  O   UNL     1       3.839   2.610  20.388  0.00  0.00    +0.000 OA
ATOM     28  H   UNL     1       2.957   2.298  20.661  0.00  0.00    +0.000 HD
ENDBRANCH  25  27
BRANCH  26  29
ATOM     29  O   UNL     1       3.042   1.446  17.894  0.00  0.00    +0.000 OA
ATOM     30  H   UNL     1       3.212   1.024  17.031  0.00  0.00    +0.000 HD
ENDBRANCH  26  29
BRANCH  24  31
ATOM     31  C   UNL     1       1.872   5.183  19.940  0.00  0.00    +0.000 C 
BRANCH  31  32
ATOM     32  O   UNL     1       2.579   5.217  21.170  0.00  0.00    +0.000 OA
ATOM     33  H   UNL     1       2.919   6.119  21.284  0.00  0.00    +0.000 HD
ENDBRANCH  31  32
ENDBRANCH  24  31
ENDBRANCH  20  22
ENDBRANCH   7  20
TORSDOF 8
ENDMDL
MODEL 9
REMARK VINA RESULT:      -6.5      1.137      2.234
REMARK  Name = 
REMARK  8 active torsions:
REMARK  status: ('A' for Active; 'I' for Inactive)
REMARK    1  A    between atoms: N_5  and  C_6
REMARK    2  A    between atoms: C_11  and  N_12
REMARK    3  A    between atoms: N_12  and  C_13
REMARK    4  A    between atoms: C_15  and  C_16
REMARK    5  A    between atoms: C_16  and  O_17
REMARK    6  A    between atoms: C_18  and  O_19
REMARK    7  A    between atoms: C_20  and  O_21
REMARK    8  A    between atoms: C_22  and  C_23
REMARK                            x       y       z     vdW  Elec       q    Type
REMARK                         _______ _______ _______ _____ _____    ______ ____
ROOT
ATOM      1  O   UNL     1       0.826   3.842  20.653  0.00  0.00    +0.000 OA
ATOM      2  C   UNL     1       1.567   4.786  20.399  0.00  0.00    +0.000 A 
ATOM      3  N   UNL     1       1.219   6.040  20.792  0.00  0.00    +0.000 N 
ATOM      4  C   UNL     1       1.790   7.160  20.271  0.00  0.00    +0.000 A 
ATOM      5  N   UNL     1       1.152   8.300  20.690  0.00  0.00    +0.000 N 
ATOM      6  N   UNL     1       2.803   7.083  19.475  0.00  0.00    +0.000 NA
ATOM      7  C   UNL     1       3.344   5.843  19.155  0.00  0.00    +0.000 A 
ATOM      8  C   UNL     1       2.814   4.676  19.618  0.00  0.00    +0.000 A 
ATOM      9  H   UNL     1       0.330   6.114  21.254  0.00  0.00    +0.000 HD
ATOM     10  H   UNL     1       0.867   8.294  21.662  0.00  0.00    +0.000 HD
ENDROOT
BRANCH   8  11
ATOM     11  C   UNL     1       3.412   3.398  19.351  0.00  0.00    +0.000 A 
ATOM     12  N   UNL     1       4.225   2.723  20.159  0.00  0.00    +0.000 NA
ATOM     13  C   UNL     1       4.518   1.473  19.646  0.00  0.00    +0.000 A 
ATOM     14  C   UNL     1       3.935   1.176  18.436  0.00  0.00    +0.000 A 
ATOM     15  S   UNL     1       2.978   2.491  17.925  0.00  0.00    +0.000 S 
ENDBRANCH   8  11
BRANCH   5  16
ATOM     16  C   UNL     1       1.528   9.583  20.194  0.00  0.00    +0.000 C 
ATOM     17  C   UNL     1       0.871   9.930  18.837  0.00  0.00    +0.000 C 
ATOM     18  C   UNL     1       0.499  11.307  19.418  0.00  0.00    +0.000 C 
ATOM     19  C   UNL     1       0.639  10.693  20.821  0.00  0.00    +0.000 C 
ENDBRANCH   5  16
BRANCH   7  20
ATOM     20  N   UNL     1       4.408   5.830  18.244  0.00  0.00    +0.000 N 
ATOM     21  H   UNL     1       4.059   5.439  17.355  0.00  0.00    +0.000 HD
BRANCH  20  22
ATOM     22  C   UNL     1       5.723   5.209  18.462  0.00  0.00    +0.000 C 
ATOM     23  C   UNL     1       6.839   6.150  18.943  0.00  0.00    +0.000 C 
ATOM     24  C   UNL     1       7.594   6.625  17.686  0.00  0.00    +0.000 C 
ATOM     25  C   UNL     1       6.765   6.076  16.520  0.00  0.00    +0.000 C 
ATOM     26  C   UNL     1       6.242   4.742  17.091  0.00  0.00    +0.000 C 
BRANCH  25  27
ATOM     27  O   UNL     1       7.545   5.866  15.353  0.00  0.00    +0.000 OA
ATOM     28  H   UNL     1       6.938   5.901  14.592  0.00  0.00    +0.000 HD
ENDBRANCH  25  27
BRANCH  26  29
ATOM     29  O   UNL     1       7.274   3.764  17.282  0.00  0.00    +0.000 OA
ATOM     30  H   UNL     1       8.062   4.239  17.604  0.00  0.00    +0.000 HD
ENDBRANCH  26  29
BRANCH  24  31
ATOM     31  C   UNL     1       7.818   8.129  17.698  0.00  0.00    +0.000 C 
BRANCH  31  32
ATOM     32  O   UNL     1       8.646   8.530  18.778  0.00  0.00    +0.000 OA
ATOM     33  H   UNL     1       9.250   9.212  18.443  0.00  0.00    +0.000 HD
ENDBRANCH  31  32
ENDBRANCH  24  31
ENDBRANCH  20  22
ENDBRANCH   7  20
TORSDOF 8
ENDMDL
