MODEL 1
REMARK VINA RESULT:      -8.6      0.000      0.000
REMARK  Name = 
REMARK  6 active torsions:
REMARK  status: ('A' for Active; 'I' for Inactive)
REMARK    1  A    between atoms: C_2  and  C_16
REMARK    2  A    between atoms: N_3  and  N_4
REMARK    3  A    between atoms: N_4  and  S_5
REMARK    4  A    between atoms: S_5  and  C_8
REMARK    5  A    between atoms: C_12  and  O_13
REMARK    6  A    between atoms: C_21  and  C_22
REMARK                            x       y       z     vdW  Elec       q    Type
REMARK                         _______ _______ _______ _____ _____    ______ ____
ROOT
ATOM      1  O   UNL     1       4.051   2.197  17.756  0.00  0.00    +0.000 OA
ATOM      2  C   UNL     1       3.896   3.402  17.918  0.00  0.00    +0.000 C 
ATOM      3  N   UNL     1       4.465   4.367  17.110  0.00  0.00    +0.000 N 
ATOM      4  H   UNL     1       4.165   5.339  17.119  0.00  0.00    +0.000 HD
ENDROOT
BRANCH   2   5
ATOM      5  C   UNL     1       3.032   3.923  19.018  0.00  0.00    +0.000 A 
ATOM      6  C   UNL     1       2.407   3.042  19.901  0.00  0.00    +0.000 A 
ATOM      7  C   UNL     1       1.579   3.550  20.888  0.00  0.00    +0.000 A 
ATOM      8  F   UNL     1       0.977   2.707  21.736  0.00  0.00    +0.000 F 
ATOM      9  C   UNL     1       1.336   4.914  20.996  0.00  0.00    +0.000 A 
ATOM     10  C   UNL     1       1.934   5.835  20.116  0.00  0.00    +0.000 A 
ATOM     11  C   UNL     1       2.799   5.309  19.130  0.00  0.00    +0.000 A 
BRANCH  10  12
ATOM     12  C   UNL     1       1.610   7.283  20.210  0.00  0.00    +0.000 A 
ATOM     13  C   UNL     1       1.020   7.833  21.369  0.00  0.00    +0.000 A 
ATOM     14  C   UNL     1       0.626   9.175  21.427  0.00  0.00    +0.000 A 
ATOM     15  C   UNL     1       0.832  10.010  20.335  0.00  0.00    +0.000 A 
ATOM     16  C   UNL     1       1.439   9.505  19.191  0.00  0.00    +0.000 A 
ATOM     17  C   UNL     1       1.818   8.158  19.129  0.00  0.00    +0.000 A 
ENDBRANCH  10  12
ENDBRANCH   2   5
BRANCH   3  18
ATOM     18  N   UNL     1       5.331   3.971  16.018  0.00  0.00    +0.000 NA
ATOM     19  H   UNL     1       5.063   3.167  15.434  0.00  0.00    +0.000 HD
BRANCH  18  20
ATOM     20  S   UNL     1       6.385   5.141  15.414  0.00  0.00    +0.000 S 
ATOM     21  O   UNL     1       7.439   4.424  14.720  0.00  0.00    +0.000 OA
ATOM     22  O   UNL     1       5.580   6.114  14.707  0.00  0.00    +0.000 OA
BRANCH  20  23
ATOM     23  C   UNL     1       7.138   5.965  16.764  0.00  0.00    +0.000 A 
ATOM     24  C   UNL     1       7.302   7.355  16.668  0.00  0.00    +0.000 A 
ATOM     25  C   UNL     1       7.845   8.070  17.737  0.00  0.00    +0.000 A 
ATOM     26  C   UNL     1       8.224   7.400  18.900  0.00  0.00    +0.000 A 
ATOM     27  C   UNL     1       8.070   6.015  18.977  0.00  0.00    +0.000 A 
ATOM     28  C   UNL     1       7.535   5.295  17.908  0.00  0.00    +0.000 A 
ATOM     29  F   UNL     1       7.417   3.963  18.011  0.00  0.00    +0.000 F 
BRANCH  27  30
ATOM     30  O   UNL     1       8.436   5.338  20.106  0.00  0.00    +0.000 OA
ATOM     31  H   UNL     1       7.722   5.390  20.761  0.00  0.00    +0.000 HD
ENDBRANCH  27  30
ENDBRANCH  20  23
ENDBRANCH  18  20
ENDBRANCH   3  18
TORSDOF 6
ENDMDL
MODEL 2
REMARK VINA RESULT:      -8.5      5.187      8.564
REMARK  Name = 
REMARK  6 active torsions:
REMARK  status: ('A' for Active; 'I' for Inactive)
REMARK    1  A    between atoms: C_2  and  C_16
REMARK    2  A    between atoms: N_3  and  N_4
REMARK    3  A    between atoms: N_4  and  S_5
REMARK    4  A    between atoms: S_5  and  C_8
REMARK    5  A    between atoms: C_12  and  O_13
REMARK    6  A    between atoms: C_21  and  C_22
REMARK                            x       y       z     vdW  Elec       q    Type
REMARK                         _______ _______ _______ _____ _____    ______ ____
ROOT
ATOM      1  O   UNL     1       1.636   8.838  19.143  0.00  0.00    +0.000 OA
ATOM      2  C   UNL     1       1.905   7.992  19.989  0.00  0.00    +0.000 C 
ATOM      3  N   UNL     1       1.807   8.206  21.350  0.00  0.00    +0.000 N 
ATOM      4  H   UNL     1       1.826   7.448  22.028  0.00  0.00    +0.000 HD
ENDROOT
BRANCH   2   5
ATOM      5  C   UNL     1       2.345   6.623  19.590  0.00  0.00    +0.000 A 
ATOM      6  C   UNL     1       2.025   5.520  20.383  0.00  0.00    +0.000 A 
ATOM      7  C   UNL     1       2.481   4.267  20.011  0.00  0.00    +0.000 A 
ATOM      8  F   UNL     1       2.176   3.207  20.770  0.00  0.00    +0.000 F 
ATOM      9  C   UNL     1       3.274   4.091  18.882  0.00  0.00    +0.000 A 
ATOM     10  C   UNL     1       3.632   5.178  18.065  0.00  0.00    +0.000 A 
ATOM     11  C   UNL     1       3.139   6.449  18.438  0.00  0.00    +0.000 A 
BRANCH  10  12
ATOM     12  C   UNL     1       4.533   4.976  16.899  0.00  0.00    +0.000 A 
ATOM     13  C   UNL     1       4.998   3.693  16.540  0.00  0.00    +0.000 A 
ATOM     14  C   UNL     1       5.921   3.510  15.504  0.00  0.00    +0.000 A 
ATOM     15  C   UNL     1       6.387   4.602  14.782  0.00  0.00    +0.000 A 
ATOM     16  C   UNL     1       5.922   5.875  15.092  0.00  0.00    +0.000 A 
ATOM     17  C   UNL     1       5.011   6.060  16.140  0.00  0.00    +0.000 A 
ENDBRANCH  10  12
ENDBRANCH   2   5
BRANCH   3  18
ATOM     18  N   UNL     1       1.400   9.504  21.846  0.00  0.00    +0.000 NA
ATOM     19  H   UNL     1       1.814  10.350  21.432  0.00  0.00    +0.000 HD
BRANCH  18  20
ATOM     20  S   UNL     1      -0.091   9.589  22.630  0.00  0.00    +0.000 S 
ATOM     21  O   UNL     1      -0.874   8.466  22.147  0.00  0.00    +0.000 OA
ATOM     22  O   UNL     1       0.180   9.732  24.045  0.00  0.00    +0.000 OA
BRANCH  20  23
ATOM     23  C   UNL     1      -0.916  11.043  22.105  0.00  0.00    +0.000 A 
ATOM     24  C   UNL     1      -1.312  11.959  23.092  0.00  0.00    +0.000 A 
ATOM     25  C   UNL     1      -1.924  13.159  22.725  0.00  0.00    +0.000 A 
ATOM     26  C   UNL     1      -2.139  13.447  21.377  0.00  0.00    +0.000 A 
ATOM     27  C   UNL     1      -1.755  12.521  20.407  0.00  0.00    +0.000 A 
ATOM     28  C   UNL     1      -1.151  11.316  20.769  0.00  0.00    +0.000 A 
ATOM     29  F   UNL     1      -0.809  10.442  19.810  0.00  0.00    +0.000 F 
BRANCH  27  30
ATOM     30  O   UNL     1      -1.958  12.780  19.081  0.00  0.00    +0.000 OA
ATOM     31  H   UNL     1      -2.896  12.978  18.930  0.00  0.00    +0.000 HD
ENDBRANCH  27  30
ENDBRANCH  20  23
ENDBRANCH  18  20
ENDBRANCH   3  18
TORSDOF 6
ENDMDL
MODEL 3
REMARK VINA RESULT:      -8.5      3.500      7.346
REMARK  Name = 
REMARK  6 active torsions:
REMARK  status: ('A' for Active; 'I' for Inactive)
REMARK    1  A    between atoms: C_2  and  C_16
REMARK    2  A    between atoms: N_3  and  N_4
REMARK    3  A    between atoms: N_4  and  S_5
REMARK    4  A    between atoms: S_5  and  C_8
REMARK    5  A    between atoms: C_12  and  O_13
REMARK    6  A    between atoms: C_21  and  C_22
REMARK                            x       y       z     vdW  Elec       q    Type
REMARK                         _______ _______ _______ _____ _____    ______ ____
ROOT
ATOM      1  O   UNL     1       2.668   6.501  18.085  0.00  0.00    +0.000 OA
ATOM      2  C   UNL     1       3.717   6.117  18.590  0.00  0.00    +0.000 C 
ATOM      3  N   UNL     1       3.823   5.660  19.889  0.00  0.00    +0.000 N 
ATOM      4  H   UNL     1       4.637   5.151  20.229  0.00  0.00    +0.000 HD
ENDROOT
BRANCH   2   5
ATOM      5  C   UNL     1       4.984   6.093  17.802  0.00  0.00    +0.000 A 
ATOM      6  C   UNL     1       6.113   6.773  18.260  0.00  0.00    +0.000 A 
ATOM      7  C   UNL     1       7.263   6.768  17.489  0.00  0.00    +0.000 A 
ATOM      8  F   UNL     1       8.348   7.420  17.926  0.00  0.00    +0.000 F 
ATOM      9  C   UNL     1       7.305   6.124  16.257  0.00  0.00    +0.000 A 
ATOM     10  C   UNL     1       6.184   5.441  15.752  0.00  0.00    +0.000 A 
ATOM     11  C   UNL     1       5.024   5.429  16.559  0.00  0.00    +0.000 A 
BRANCH  10  12
ATOM     12  C   UNL     1       6.232   4.815  14.404  0.00  0.00    +0.000 A 
ATOM     13  C   UNL     1       5.185   3.992  13.936  0.00  0.00    +0.000 A 
ATOM     14  C   UNL     1       5.267   3.325  12.708  0.00  0.00    +0.000 A 
ATOM     15  C   UNL     1       6.389   3.481  11.903  0.00  0.00    +0.000 A 
ATOM     16  C   UNL     1       7.423   4.310  12.323  0.00  0.00    +0.000 A 
ATOM     17  C   UNL     1       7.347   4.964  13.559  0.00  0.00    +0.000 A 
ENDBRANCH  10  12
ENDBRANCH   2   5
BRANCH   3  18
ATOM     18  N   UNL     1       2.655   5.652  20.746  0.00  0.00    +0.000 NA
ATOM     19  H   UNL     1       2.188   6.542  20.962  0.00  0.00    +0.000 HD
BRANCH  18  20
ATOM     20  S   UNL     1       1.805   4.200  20.867  0.00  0.00    +0.000 S 
ATOM     21  O   UNL     1       2.092   3.665  22.185  0.00  0.00    +0.000 OA
ATOM     22  O   UNL     1       0.439   4.473  20.474  0.00  0.00    +0.000 OA
BRANCH  20  23
ATOM     23  C   UNL     1       2.468   3.066  19.707  0.00  0.00    +0.000 A 
ATOM     24  C   UNL     1       1.953   3.095  18.402  0.00  0.00    +0.000 A 
ATOM     25  C   UNL     1       2.483   2.252  17.424  0.00  0.00    +0.000 A 
ATOM     26  C   UNL     1       3.525   1.383  17.745  0.00  0.00    +0.000 A 
ATOM     27  C   UNL     1       4.017   1.352  19.050  0.00  0.00    +0.000 A 
ATOM     28  C   UNL     1       3.485   2.187  20.034  0.00  0.00    +0.000 A 
ATOM     29  F   UNL     1       3.972   2.121  21.282  0.00  0.00    +0.000 F 
BRANCH  27  30
ATOM     30  O   UNL     1       5.036   0.507  19.389  0.00  0.00    +0.000 OA
ATOM     31  H   UNL     1       4.696  -0.399  19.458  0.00  0.00    +0.000 HD
ENDBRANCH  27  30
ENDBRANCH  20  23
ENDBRANCH  18  20
ENDBRANCH   3  18
TORSDOF 6
ENDMDL
MODEL 4
REMARK VINA RESULT:      -8.5      5.431      8.679
REMARK  Name = 
REMARK  6 active torsions:
REMARK  status: ('A' for Active; 'I' for Inactive)
REMARK    1  A    between atoms: C_2  and  C_16
REMARK    2  A    between atoms: N_3  and  N_4
REMARK    3  A    between atoms: N_4  and  S_5
REMARK    4  A    between atoms: S_5  and  C_8
REMARK    5  A    between atoms: C_12  and  O_13
REMARK    6  A    between atoms: C_21  and  C_22
REMARK                            x       y       z     vdW  Elec       q    Type
REMARK                         _______ _______ _______ _____ _____    ______ ____
ROOT
ATOM      1  O   UNL     1       1.556   8.589  19.347  0.00  0.00    +0.000 OA
ATOM      2  C   UNL     1       1.853   7.784  20.222  0.00  0.00    +0.000 C 
ATOM      3  N   UNL     1       1.830   8.072  21.573  0.00  0.00    +0.000 N 
ATOM      4  H   UNL     1       1.870   7.351  22.290  0.00  0.00    +0.000 HD
ENDROOT
BRANCH   2   5
ATOM      5  C   UNL     1       2.248   6.386  19.877  0.00  0.00    +0.000 A 
ATOM      6  C   UNL     1       1.631   5.304  20.505  0.00  0.00    +0.000 A 
ATOM      7  C   UNL     1       2.045   4.019  20.196  0.00  0.00    +0.000 A 
ATOM      8  F   UNL     1       1.456   2.978  20.797  0.00  0.00    +0.000 F 
ATOM      9  C   UNL     1       3.080   3.790  19.295  0.00  0.00    +0.000 A 
ATOM     10  C   UNL     1       3.737   4.854  18.652  0.00  0.00    +0.000 A 
ATOM     11  C   UNL     1       3.289   6.160  18.954  0.00  0.00    +0.000 A 
BRANCH  10  12
ATOM     12  C   UNL     1       4.883   4.588  17.742  0.00  0.00    +0.000 A 
ATOM     13  C   UNL     1       6.216   4.806  18.151  0.00  0.00    +0.000 A 
ATOM     14  C   UNL     1       7.291   4.649  17.269  0.00  0.00    +0.000 A 
ATOM     15  C   UNL     1       7.065   4.246  15.958  0.00  0.00    +0.000 A 
ATOM     16  C   UNL     1       5.765   3.993  15.535  0.00  0.00    +0.000 A 
ATOM     17  C   UNL     1       4.689   4.166  16.414  0.00  0.00    +0.000 A 
ENDBRANCH  10  12
ENDBRANCH   2   5
BRANCH   3  18
ATOM     18  N   UNL     1       1.472   9.403  22.018  0.00  0.00    +0.000 NA
ATOM     19  H   UNL     1       1.991  10.210  21.648  0.00  0.00    +0.000 HD
BRANCH  18  20
ATOM     20  S   UNL     1      -0.083   9.610  22.637  0.00  0.00    +0.000 S 
ATOM     21  O   UNL     1      -0.863   8.477  22.174  0.00  0.00    +0.000 OA
ATOM     22  O   UNL     1       0.055   9.867  24.055  0.00  0.00    +0.000 OA
BRANCH  20  23
ATOM     23  C   UNL     1      -0.788  11.039  21.911  0.00  0.00    +0.000 A 
ATOM     24  C   UNL     1      -0.231  11.500  20.708  0.00  0.00    +0.000 A 
ATOM     25  C   UNL     1      -0.789  12.602  20.058  0.00  0.00    +0.000 A 
ATOM     26  C   UNL     1      -1.901  13.243  20.604  0.00  0.00    +0.000 A 
ATOM     27  C   UNL     1      -2.436  12.784  21.808  0.00  0.00    +0.000 A 
ATOM     28  C   UNL     1      -1.877  11.688  22.467  0.00  0.00    +0.000 A 
ATOM     29  F   UNL     1      -2.407  11.284  23.631  0.00  0.00    +0.000 F 
BRANCH  27  30
ATOM     30  O   UNL     1      -3.523  13.398  22.363  0.00  0.00    +0.000 OA
ATOM     31  H   UNL     1      -3.872  14.060  21.745  0.00  0.00    +0.000 HD
ENDBRANCH  27  30
ENDBRANCH  20  23
ENDBRANCH  18  20
ENDBRANCH   3  18
TORSDOF 6
ENDMDL
MODEL 5
REMARK VINA RESULT:      -8.5      3.538      6.068
REMARK  Name = 
REMARK  6 active torsions:
REMARK  status: ('A' for Active; 'I' for Inactive)
REMARK    1  A    between atoms: C_2  and  C_16
REMARK    2  A    between atoms: N_3  and  N_4
REMARK    3  A    between atoms: N_4  and  S_5
REMARK    4  A    between atoms: S_5  and  C_8
REMARK    5  A    between atoms: C_12  and  O_13
REMARK    6  A    between atoms: C_21  and  C_22
REMARK                            x       y       z     vdW  Elec       q    Type
REMARK                         _______ _______ _______ _____ _____    ______ ____
ROOT
ATOM      1  O   UNL     1       3.276   8.992  17.356  0.00  0.00    +0.000 OA
ATOM      2  C   UNL     1       2.482   8.337  18.022  0.00  0.00    +0.000 C 
ATOM      3  N   UNL     1       2.578   6.972  18.210  0.00  0.00    +0.000 N 
ATOM      4  H   UNL     1       2.050   6.476  18.925  0.00  0.00    +0.000 HD
ENDROOT
BRANCH   2   5
ATOM      5  C   UNL     1       1.337   8.995  18.717  0.00  0.00    +0.000 A 
ATOM      6  C   UNL     1       1.306   9.069  20.110  0.00  0.00    +0.000 A 
ATOM      7  C   UNL     1       0.212   9.649  20.730  0.00  0.00    +0.000 A 
ATOM      8  F   UNL     1       0.179   9.720  22.067  0.00  0.00    +0.000 F 
ATOM      9  C   UNL     1      -0.864  10.132  19.995  0.00  0.00    +0.000 A 
ATOM     10  C   UNL     1      -0.879  10.063  18.590  0.00  0.00    +0.000 A 
ATOM     11  C   UNL     1       0.254   9.493  17.965  0.00  0.00    +0.000 A 
BRANCH  10  12
ATOM     12  C   UNL     1      -2.069  10.527  17.828  0.00  0.00    +0.000 A 
ATOM     13  C   UNL     1      -3.067  11.321  18.431  0.00  0.00    +0.000 A 
ATOM     14  C   UNL     1      -4.233  11.680  17.746  0.00  0.00    +0.000 A 
ATOM     15  C   UNL     1      -4.424  11.274  16.430  0.00  0.00    +0.000 A 
ATOM     16  C   UNL     1      -3.443  10.517  15.800  0.00  0.00    +0.000 A 
ATOM     17  C   UNL     1      -2.283  10.145  16.491  0.00  0.00    +0.000 A 
ENDBRANCH  10  12
ENDBRANCH   2   5
BRANCH   3  18
ATOM     18  N   UNL     1       3.647   6.231  17.571  0.00  0.00    +0.000 NA
ATOM     19  H   UNL     1       4.188   6.682  16.821  0.00  0.00    +0.000 HD
BRANCH  18  20
ATOM     20  S   UNL     1       4.310   4.945  18.436  0.00  0.00    +0.000 S 
ATOM     21  O   UNL     1       4.920   4.063  17.457  0.00  0.00    +0.000 OA
ATOM     22  O   UNL     1       5.110   5.514  19.499  0.00  0.00    +0.000 OA
BRANCH  20  23
ATOM     23  C   UNL     1       3.007   4.044  19.185  0.00  0.00    +0.000 A 
ATOM     24  C   UNL     1       2.844   4.170  20.573  0.00  0.00    +0.000 A 
ATOM     25  C   UNL     1       1.788   3.519  21.213  0.00  0.00    +0.000 A 
ATOM     26  C   UNL     1       0.896   2.744  20.471  0.00  0.00    +0.000 A 
ATOM     27  C   UNL     1       1.079   2.614  19.094  0.00  0.00    +0.000 A 
ATOM     28  C   UNL     1       2.138   3.257  18.451  0.00  0.00    +0.000 A 
ATOM     29  F   UNL     1       2.293   3.098  17.128  0.00  0.00    +0.000 F 
BRANCH  27  30
ATOM     30  O   UNL     1       0.220   1.859  18.348  0.00  0.00    +0.000 OA
ATOM     31  H   UNL     1       0.605   0.981  18.201  0.00  0.00    +0.000 HD
ENDBRANCH  27  30
ENDBRANCH  20  23
ENDBRANCH  18  20
ENDBRANCH   3  18
TORSDOF 6
ENDMDL
MODEL 6
REMARK VINA RESULT:      -8.4      3.199      7.177
REMARK  Name = 
REMARK  6 active torsions:
REMARK  status: ('A' for Active; 'I' for Inactive)
REMARK    1  A    between atoms: C_2  and  C_16
REMARK    2  A    between atoms: N_3  and  N_4
REMARK    3  A    between atoms: N_4  and  S_5
REMARK    4  A    between atoms: S_5  and  C_8
REMARK    5  A    between atoms: C_12  and  O_13
REMARK    6  A    between atoms: C_21  and  C_22
REMARK                            x       y       z     vdW  Elec       q    Type
REMARK                         _______ _______ _______ _____ _____    ______ ____
ROOT
ATOM      1  O   UNL     1       4.844   3.293  20.191  0.00  0.00    +0.000 OA
ATOM      2  C   UNL     1       4.728   3.401  18.975  0.00  0.00    +0.000 C 
ATOM      3  N   UNL     1       3.723   2.800  18.241  0.00  0.00    +0.000 N 
ATOM      4  H   UNL     1       3.511   3.063  17.282  0.00  0.00    +0.000 HD
ENDROOT
BRANCH   2   5
ATOM      5  C   UNL     1       5.679   4.237  18.186  0.00  0.00    +0.000 A 
ATOM      6  C   UNL     1       6.388   5.270  18.801  0.00  0.00    +0.000 A 
ATOM      7  C   UNL     1       7.234   6.056  18.036  0.00  0.00    +0.000 A 
ATOM      8  F   UNL     1       7.915   7.048  18.623  0.00  0.00    +0.000 F 
ATOM      9  C   UNL     1       7.367   5.855  16.667  0.00  0.00    +0.000 A 
ATOM     10  C   UNL     1       6.658   4.835  16.006  0.00  0.00    +0.000 A 
ATOM     11  C   UNL     1       5.819   4.021  16.800  0.00  0.00    +0.000 A 
BRANCH  10  12
ATOM     12  C   UNL     1       6.767   4.680  14.531  0.00  0.00    +0.000 A 
ATOM     13  C   UNL     1       5.997   3.726  13.832  0.00  0.00    +0.000 A 
ATOM     14  C   UNL     1       6.164   3.511  12.459  0.00  0.00    +0.000 A 
ATOM     15  C   UNL     1       7.089   4.261  11.742  0.00  0.00    +0.000 A 
ATOM     16  C   UNL     1       7.840   5.230  12.398  0.00  0.00    +0.000 A 
ATOM     17  C   UNL     1       7.683   5.433  13.775  0.00  0.00    +0.000 A 
ENDBRANCH  10  12
ENDBRANCH   2   5
BRANCH   3  18
ATOM     18  N   UNL     1       2.752   1.958  18.908  0.00  0.00    +0.000 NA
ATOM     19  H   UNL     1       3.054   1.051  19.287  0.00  0.00    +0.000 HD
BRANCH  18  20
ATOM     20  S   UNL     1       1.376   2.715  19.522  0.00  0.00    +0.000 S 
ATOM     21  O   UNL     1       0.314   2.480  18.561  0.00  0.00    +0.000 OA
ATOM     22  O   UNL     1       1.226   2.275  20.893  0.00  0.00    +0.000 OA
BRANCH  20  23
ATOM     23  C   UNL     1       1.656   4.444  19.553  0.00  0.00    +0.000 A 
ATOM     24  C   UNL     1       1.678   5.076  20.806  0.00  0.00    +0.000 A 
ATOM     25  C   UNL     1       1.952   6.442  20.893  0.00  0.00    +0.000 A 
ATOM     26  C   UNL     1       2.205   7.176  19.734  0.00  0.00    +0.000 A 
ATOM     27  C   UNL     1       2.165   6.539  18.494  0.00  0.00    +0.000 A 
ATOM     28  C   UNL     1       1.883   5.175  18.401  0.00  0.00    +0.000 A 
ATOM     29  F   UNL     1       1.837   4.597  17.191  0.00  0.00    +0.000 F 
BRANCH  27  30
ATOM     30  O   UNL     1       2.407   7.238  17.345  0.00  0.00    +0.000 OA
ATOM     31  H   UNL     1       3.157   7.837  17.483  0.00  0.00    +0.000 HD
ENDBRANCH  27  30
ENDBRANCH  20  23
ENDBRANCH  18  20
ENDBRANCH   3  18
TORSDOF 6
ENDMDL
MODEL 7
REMARK VINA RESULT:      -8.3      3.231      7.244
REMARK  Name = 
REMARK  6 active torsions:
REMARK  status: ('A' for Active; 'I' for Inactive)
REMARK    1  A    between atoms: C_2  and  C_16
REMARK    2  A    between atoms: N_3  and  N_4
REMARK    3  A    between atoms: N_4  and  S_5
REMARK    4  A    between atoms: S_5  and  C_8
REMARK    5  A    between atoms: C_12  and  O_13
REMARK    6  A    between atoms: C_21  and  C_22
REMARK                            x       y       z     vdW  Elec       q    Type
REMARK                         _______ _______ _______ _____ _____    ______ ____
ROOT
ATOM      1  O   UNL     1       4.958   3.581  20.150  0.00  0.00    +0.000 OA
ATOM      2  C   UNL     1       4.927   3.522  18.926  0.00  0.00    +0.000 C 
ATOM      3  N   UNL     1       4.026   2.755  18.214  0.00  0.00    +0.000 N 
ATOM      4  H   UNL     1       3.870   2.874  17.216  0.00  0.00    +0.000 HD
ENDROOT
BRANCH   2   5
ATOM      5  C   UNL     1       5.877   4.321  18.096  0.00  0.00    +0.000 A 
ATOM      6  C   UNL     1       6.594   5.376  18.664  0.00  0.00    +0.000 A 
ATOM      7  C   UNL     1       7.436   6.126  17.862  0.00  0.00    +0.000 A 
ATOM      8  F   UNL     1       8.125   7.139  18.403  0.00  0.00    +0.000 F 
ATOM      9  C   UNL     1       7.559   5.869  16.501  0.00  0.00    +0.000 A 
ATOM     10  C   UNL     1       6.843   4.825  15.888  0.00  0.00    +0.000 A 
ATOM     11  C   UNL     1       6.006   4.048  16.720  0.00  0.00    +0.000 A 
BRANCH  10  12
ATOM     12  C   UNL     1       6.940   4.609  14.419  0.00  0.00    +0.000 A 
ATOM     13  C   UNL     1       7.775   5.410  13.610  0.00  0.00    +0.000 A 
ATOM     14  C   UNL     1       7.798   5.273  12.217  0.00  0.00    +0.000 A 
ATOM     15  C   UNL     1       7.005   4.315  11.597  0.00  0.00    +0.000 A 
ATOM     16  C   UNL     1       6.196   3.490  12.371  0.00  0.00    +0.000 A 
ATOM     17  C   UNL     1       6.162   3.639  13.763  0.00  0.00    +0.000 A 
ENDBRANCH  10  12
ENDBRANCH   2   5
BRANCH   3  18
ATOM     18  N   UNL     1       3.067   1.932  18.922  0.00  0.00    +0.000 NA
ATOM     19  H   UNL     1       3.394   1.081  19.399  0.00  0.00    +0.000 HD
BRANCH  18  20
ATOM     20  S   UNL     1       1.632   2.673  19.406  0.00  0.00    +0.000 S 
ATOM     21  O   UNL     1       0.618   2.271  18.448  0.00  0.00    +0.000 OA
ATOM     22  O   UNL     1       1.457   2.384  20.814  0.00  0.00    +0.000 OA
BRANCH  20  23
ATOM     23  C   UNL     1       1.818   4.408  19.247  0.00  0.00    +0.000 A 
ATOM     24  C   UNL     1       1.905   4.936  17.949  0.00  0.00    +0.000 A 
ATOM     25  C   UNL     1       1.998   6.316  17.763  0.00  0.00    +0.000 A 
ATOM     26  C   UNL     1       2.003   7.169  18.867  0.00  0.00    +0.000 A 
ATOM     27  C   UNL     1       1.932   6.630  20.151  0.00  0.00    +0.000 A 
ATOM     28  C   UNL     1       1.847   5.251  20.344  0.00  0.00    +0.000 A 
ATOM     29  F   UNL     1       1.796   4.766  21.594  0.00  0.00    +0.000 F 
BRANCH  27  30
ATOM     30  O   UNL     1       1.938   7.446  21.248  0.00  0.00    +0.000 OA
ATOM     31  H   UNL     1       2.369   8.286  21.024  0.00  0.00    +0.000 HD
ENDBRANCH  27  30
ENDBRANCH  20  23
ENDBRANCH  18  20
ENDBRANCH   3  18
TORSDOF 6
ENDMDL
MODEL 8
REMARK VINA RESULT:      -8.3      4.272      6.772
REMARK  Name = 
REMARK  6 active torsions:
REMARK  status: ('A' for Active; 'I' for Inactive)
REMARK    1  A    between atoms: C_2  and  C_16
REMARK    2  A    between atoms: N_3  and  N_4
REMARK    3  A    between atoms: N_4  and  S_5
REMARK    4  A    between atoms: S_5  and  C_8
REMARK    5  A    between atoms: C_12  and  O_13
REMARK    6  A    between atoms: C_21  and  C_22
REMARK                            x       y       z     vdW  Elec       q    Type
REMARK                         _______ _______ _______ _____ _____    ______ ____
ROOT
ATOM      1  O   UNL     1       1.146   8.392  22.056  0.00  0.00    +0.000 OA
ATOM      2  C   UNL     1       1.194   8.660  20.860  0.00  0.00    +0.000 C 
ATOM      3  N   UNL     1       1.814   7.864  19.917  0.00  0.00    +0.000 N 
ATOM      4  H   UNL     1       1.668   7.982  18.917  0.00  0.00    +0.000 HD
ENDROOT
BRANCH   2   5
ATOM      5  C   UNL     1       0.543   9.892  20.324  0.00  0.00    +0.000 A 
ATOM      6  C   UNL     1       0.842  11.142  20.868  0.00  0.00    +0.000 A 
ATOM      7  C   UNL     1       0.193  12.262  20.380  0.00  0.00    +0.000 A 
ATOM      8  F   UNL     1       0.477  13.463  20.900  0.00  0.00    +0.000 F 
ATOM      9  C   UNL     1      -0.770  12.163  19.381  0.00  0.00    +0.000 A 
ATOM     10  C   UNL     1      -1.112  10.921  18.818  0.00  0.00    +0.000 A 
ATOM     11  C   UNL     1      -0.424   9.785  19.304  0.00  0.00    +0.000 A 
BRANCH  10  12
ATOM     12  C   UNL     1      -2.190  10.830  17.797  0.00  0.00    +0.000 A 
ATOM     13  C   UNL     1      -1.999  10.136  16.583  0.00  0.00    +0.000 A 
ATOM     14  C   UNL     1      -2.976  10.128  15.580  0.00  0.00    +0.000 A 
ATOM     15  C   UNL     1      -4.180  10.795  15.773  0.00  0.00    +0.000 A 
ATOM     16  C   UNL     1      -4.408  11.462  16.971  0.00  0.00    +0.000 A 
ATOM     17  C   UNL     1      -3.424  11.482  17.968  0.00  0.00    +0.000 A 
ENDBRANCH  10  12
ENDBRANCH   2   5
BRANCH   3  18
ATOM     18  N   UNL     1       2.488   6.651  20.331  0.00  0.00    +0.000 NA
ATOM     19  H   UNL     1       2.150   6.151  21.164  0.00  0.00    +0.000 HD
BRANCH  18  20
ATOM     20  S   UNL     1       3.377   5.830  19.156  0.00  0.00    +0.000 S 
ATOM     21  O   UNL     1       3.066   6.465  17.888  0.00  0.00    +0.000 OA
ATOM     22  O   UNL     1       4.745   5.770  19.623  0.00  0.00    +0.000 OA
BRANCH  20  23
ATOM     23  C   UNL     1       2.784   4.184  19.055  0.00  0.00    +0.000 A 
ATOM     24  C   UNL     1       1.416   3.971  19.285  0.00  0.00    +0.000 A 
ATOM     25  C   UNL     1       0.880   2.688  19.163  0.00  0.00    +0.000 A 
ATOM     26  C   UNL     1       1.705   1.620  18.811  0.00  0.00    +0.000 A 
ATOM     27  C   UNL     1       3.066   1.843  18.600  0.00  0.00    +0.000 A 
ATOM     28  C   UNL     1       3.609   3.122  18.729  0.00  0.00    +0.000 A 
ATOM     29  F   UNL     1       4.924   3.298  18.534  0.00  0.00    +0.000 F 
BRANCH  27  30
ATOM     30  O   UNL     1       3.894   0.812  18.257  0.00  0.00    +0.000 OA
ATOM     31  H   UNL     1       4.013   0.799  17.293  0.00  0.00    +0.000 HD
ENDBRANCH  27  30
ENDBRANCH  20  23
ENDBRANCH  18  20
ENDBRANCH   3  18
TORSDOF 6
ENDMDL
MODEL 9
REMARK VINA RESULT:      -8.3      2.647      4.330
REMARK  Name = 
REMARK  6 active torsions:
REMARK  status: ('A' for Active; 'I' for Inactive)
REMARK    1  A    between atoms: C_2  and  C_16
REMARK    2  A    between atoms: N_3  and  N_4
REMARK    3  A    between atoms: N_4  and  S_5
REMARK    4  A    between atoms: S_5  and  C_8
REMARK    5  A    between atoms: C_12  and  O_13
REMARK    6  A    between atoms: C_21  and  C_22
REMARK                            x       y       z     vdW  Elec       q    Type
REMARK                         _______ _______ _______ _____ _____    ______ ____
ROOT
ATOM      1  O   UNL     1       2.559   5.222  21.295  0.00  0.00    +0.000 OA
ATOM      2  C   UNL     1       2.265   5.491  20.135  0.00  0.00    +0.000 C 
ATOM      3  N   UNL     1       2.204   4.557  19.119  0.00  0.00    +0.000 N 
ATOM      4  H   UNL     1       1.760   4.747  18.224  0.00  0.00    +0.000 HD
ENDROOT
BRANCH   2   5
ATOM      5  C   UNL     1       1.919   6.887  19.737  0.00  0.00    +0.000 A 
ATOM      6  C   UNL     1       2.366   7.405  18.520  0.00  0.00    +0.000 A 
ATOM      7  C   UNL     1       2.065   8.716  18.194  0.00  0.00    +0.000 A 
ATOM      8  F   UNL     1       2.492   9.216  17.027  0.00  0.00    +0.000 F 
ATOM      9  C   UNL     1       1.353   9.533  19.065  0.00  0.00    +0.000 A 
ATOM     10  C   UNL     1       0.898   9.055  20.307  0.00  0.00    +0.000 A 
ATOM     11  C   UNL     1       1.187   7.707  20.619  0.00  0.00    +0.000 A 
BRANCH  10  12
ATOM     12  C   UNL     1       0.195   9.965  21.251  0.00  0.00    +0.000 A 
ATOM     13  C   UNL     1      -0.211   9.530  22.530  0.00  0.00    +0.000 A 
ATOM     14  C   UNL     1      -0.956  10.352  23.383  0.00  0.00    +0.000 A 
ATOM     15  C   UNL     1      -1.294  11.642  22.991  0.00  0.00    +0.000 A 
ATOM     16  C   UNL     1      -0.880  12.109  21.749  0.00  0.00    +0.000 A 
ATOM     17  C   UNL     1      -0.149  11.280  20.889  0.00  0.00    +0.000 A 
ENDBRANCH  10  12
ENDBRANCH   2   5
BRANCH   3  18
ATOM     18  N   UNL     1       2.532   3.173  19.395  0.00  0.00    +0.000 NA
ATOM     19  H   UNL     1       1.769   2.498  19.539  0.00  0.00    +0.000 HD
BRANCH  18  20
ATOM     20  S   UNL     1       4.056   2.637  18.910  0.00  0.00    +0.000 S 
ATOM     21  O   UNL     1       4.734   2.187  20.112  0.00  0.00    +0.000 OA
ATOM     22  O   UNL     1       3.854   1.726  17.804  0.00  0.00    +0.000 OA
BRANCH  20  23
ATOM     23  C   UNL     1       4.963   4.007  18.303  0.00  0.00    +0.000 A 
ATOM     24  C   UNL     1       5.851   4.642  19.185  0.00  0.00    +0.000 A 
ATOM     25  C   UNL     1       6.639   5.704  18.737  0.00  0.00    +0.000 A 
ATOM     26  C   UNL     1       6.544   6.131  17.413  0.00  0.00    +0.000 A 
ATOM     27  C   UNL     1       5.646   5.501  16.550  0.00  0.00    +0.000 A 
ATOM     28  C   UNL     1       4.850   4.445  16.995  0.00  0.00    +0.000 A 
ATOM     29  F   UNL     1       3.986   3.873  16.143  0.00  0.00    +0.000 F 
BRANCH  27  30
ATOM     30  O   UNL     1       5.534   5.904  15.249  0.00  0.00    +0.000 OA
ATOM     31  H   UNL     1       5.088   5.213  14.734  0.00  0.00    +0.000 HD
ENDBRANCH  27  30
ENDBRANCH  20  23
ENDBRANCH  18  20
ENDBRANCH   3  18
TORSDOF 6
ENDMDL
