MODEL 1
REMARK VINA RESULT:      -7.4      0.000      0.000
REMARK  Name = 
REMARK  7 active torsions:
REMARK  status: ('A' for Active; 'I' for Inactive)
REMARK    1  A    between atoms: C_3  and  O_4
REMARK    2  A    between atoms: O_4  and  C_5
REMARK    3  A    between atoms: C_8  and  C_9
REMARK    4  A    between atoms: C_18  and  O_19
REMARK    5  A    between atoms: O_19  and  C_20
REMARK    6  A    between atoms: C_20  and  C_21
REMARK    7  A    between atoms: C_21  and  N_22
REMARK                            x       y       z     vdW  Elec       q    Type
REMARK                         _______ _______ _______ _____ _____    ______ ____
ROOT
ATOM      1  C   UNL     1       1.633   7.901  20.487  0.00  0.00    +0.000 A 
ATOM      2  C   UNL     1       1.083   9.128  20.105  0.00  0.00    +0.000 A 
ATOM      3  C   UNL     1       1.258   9.595  18.803  0.00  0.00    +0.000 A 
ATOM      4  C   UNL     1       1.966   8.820  17.878  0.00  0.00    +0.000 A 
ATOM      5  C   UNL     1       2.530   7.610  18.266  0.00  0.00    +0.000 A 
ATOM      6  C   UNL     1       2.340   7.132  19.556  0.00  0.00    +0.000 A 
ENDROOT
BRANCH   3   7
ATOM      7  O   UNL     1       0.647  10.786  18.505  0.00  0.00    +0.000 OA
BRANCH   7   8
ATOM      8  C   UNL     1      -0.718  10.851  18.392  0.00  0.00    +0.000 A 
ATOM      9  C   UNL     1      -1.352  11.823  19.172  0.00  0.00    +0.000 A 
ATOM     10  C   UNL     1      -2.733  11.982  19.088  0.00  0.00    +0.000 A 
ATOM     11  C   UNL     1      -3.486  11.185  18.217  0.00  0.00    +0.000 A 
ATOM     12  C   UNL     1      -2.855  10.200  17.451  0.00  0.00    +0.000 A 
ATOM     13  C   UNL     1      -1.472  10.059  17.516  0.00  0.00    +0.000 A 
BRANCH  11  14
ATOM     14  C   UNL     1      -4.921  11.435  18.079  0.00  0.00    +0.000 C 
ATOM     15  N   UNL     1      -5.849  10.915  18.819  0.00  0.00    +0.000 NA
ATOM     16  C   UNL     1      -7.083  11.494  18.293  0.00  0.00    +0.000 C 
ATOM     17  C   UNL     1      -6.653  12.494  17.238  0.00  0.00    +0.000 C 
ATOM     18  O   UNL     1      -5.255  12.310  17.105  0.00  0.00    +0.000 OA
ENDBRANCH  11  14
ENDBRANCH   7   8
ENDBRANCH   3   7
BRANCH   6  19
ATOM     19  O   UNL     1       2.887   5.899  19.804  0.00  0.00    +0.000 OA
BRANCH  19  20
ATOM     20  C   UNL     1       3.578   5.334  18.686  0.00  0.00    +0.000 C 
BRANCH  20  21
ATOM     21  C   UNL     1       5.071   5.182  19.025  0.00  0.00    +0.000 C 
BRANCH  21  22
ATOM     22  N   UNL     1       5.789   4.302  18.080  0.00  0.00    +0.000 NA
ATOM     23  C   UNL     1       7.130   4.826  17.771  0.00  0.00    +0.000 C 
ATOM     24  C   UNL     1       6.932   5.722  16.564  0.00  0.00    +0.000 C 
ATOM     25  C   UNL     1       5.895   4.972  15.754  0.00  0.00    +0.000 C 
ATOM     26  C   UNL     1       5.111   4.164  16.777  0.00  0.00    +0.000 C 
ENDBRANCH  21  22
ENDBRANCH  20  21
ENDBRANCH  19  20
ENDBRANCH   6  19
TORSDOF 7
ENDMDL
MODEL 2
REMARK VINA RESULT:      -7.3      2.161      9.808
REMARK  Name = 
REMARK  7 active torsions:
REMARK  status: ('A' for Active; 'I' for Inactive)
REMARK    1  A    between atoms: C_3  and  O_4
REMARK    2  A    between atoms: O_4  and  C_5
REMARK    3  A    between atoms: C_8  and  C_9
REMARK    4  A    between atoms: C_18  and  O_19
REMARK    5  A    between atoms: O_19  and  C_20
REMARK    6  A    between atoms: C_20  and  C_21
REMARK    7  A    between atoms: C_21  and  N_22
REMARK                            x       y       z     vdW  Elec       q    Type
REMARK                         _______ _______ _______ _____ _____    ______ ____
ROOT
ATOM      1  C   UNL     1       1.417   9.434  18.004  0.00  0.00    +0.000 A 
ATOM      2  C   UNL     1       2.023   8.176  17.971  0.00  0.00    +0.000 A 
ATOM      3  C   UNL     1       2.188   7.451  19.151  0.00  0.00    +0.000 A 
ATOM      4  C   UNL     1       1.725   7.980  20.360  0.00  0.00    +0.000 A 
ATOM      5  C   UNL     1       1.141   9.241  20.394  0.00  0.00    +0.000 A 
ATOM      6  C   UNL     1       0.955   9.957  19.218  0.00  0.00    +0.000 A 
ENDROOT
BRANCH   3   7
ATOM      7  O   UNL     1       2.753   6.208  19.019  0.00  0.00    +0.000 OA
BRANCH   7   8
ATOM      8  C   UNL     1       3.641   5.961  18.002  0.00  0.00    +0.000 A 
ATOM      9  C   UNL     1       3.612   4.671  17.464  0.00  0.00    +0.000 A 
ATOM     10  C   UNL     1       4.453   4.348  16.402  0.00  0.00    +0.000 A 
ATOM     11  C   UNL     1       5.315   5.311  15.863  0.00  0.00    +0.000 A 
ATOM     12  C   UNL     1       5.357   6.596  16.413  0.00  0.00    +0.000 A 
ATOM     13  C   UNL     1       4.498   6.925  17.456  0.00  0.00    +0.000 A 
BRANCH  11  14
ATOM     14  C   UNL     1       6.120   4.973  14.689  0.00  0.00    +0.000 C 
ATOM     15  N   UNL     1       7.303   5.436  14.430  0.00  0.00    +0.000 NA
ATOM     16  C   UNL     1       7.668   4.782  13.176  0.00  0.00    +0.000 C 
ATOM     17  C   UNL     1       6.546   3.808  12.875  0.00  0.00    +0.000 C 
ATOM     18  O   UNL     1       5.554   4.078  13.850  0.00  0.00    +0.000 OA
ENDBRANCH  11  14
ENDBRANCH   7   8
ENDBRANCH   3   7
BRANCH   6  19
ATOM     19  O   UNL     1       0.311  11.158  19.366  0.00  0.00    +0.000 OA
BRANCH  19  20
ATOM     20  C   UNL     1      -1.078  11.037  19.687  0.00  0.00    +0.000 C 
BRANCH  20  21
ATOM     21  C   UNL     1      -1.928  11.543  18.510  0.00  0.00    +0.000 C 
BRANCH  21  22
ATOM     22  N   UNL     1      -2.827  10.508  17.962  0.00  0.00    +0.000 NA
ATOM     23  C   UNL     1      -2.239   9.857  16.778  0.00  0.00    +0.000 C 
ATOM     24  C   UNL     1      -2.708  10.688  15.601  0.00  0.00    +0.000 C 
ATOM     25  C   UNL     1      -4.126  11.055  15.991  0.00  0.00    +0.000 C 
ATOM     26  C   UNL     1      -4.127  11.040  17.512  0.00  0.00    +0.000 C 
ENDBRANCH  21  22
ENDBRANCH  20  21
ENDBRANCH  19  20
ENDBRANCH   6  19
TORSDOF 7
ENDMDL
MODEL 3
REMARK VINA RESULT:      -7.2      2.163      2.629
REMARK  Name = 
REMARK  7 active torsions:
REMARK  status: ('A' for Active; 'I' for Inactive)
REMARK    1  A    between atoms: C_3  and  O_4
REMARK    2  A    between atoms: O_4  and  C_5
REMARK    3  A    between atoms: C_8  and  C_9
REMARK    4  A    between atoms: C_18  and  O_19
REMARK    5  A    between atoms: O_19  and  C_20
REMARK    6  A    between atoms: C_20  and  C_21
REMARK    7  A    between atoms: C_21  and  N_22
REMARK                            x       y       z     vdW  Elec       q    Type
REMARK                         _______ _______ _______ _____ _____    ______ ____
ROOT
ATOM      1  C   UNL     1       2.434   7.547  18.235  0.00  0.00    +0.000 A 
ATOM      2  C   UNL     1       1.827   8.756  17.885  0.00  0.00    +0.000 A 
ATOM      3  C   UNL     1       1.120   9.483  18.843  0.00  0.00    +0.000 A 
ATOM      4  C   UNL     1       1.041   9.008  20.156  0.00  0.00    +0.000 A 
ATOM      5  C   UNL     1       1.628   7.795  20.497  0.00  0.00    +0.000 A 
ATOM      6  C   UNL     1       2.351   7.077  19.551  0.00  0.00    +0.000 A 
ENDROOT
BRANCH   3   7
ATOM      7  O   UNL     1       0.594  10.678  18.421  0.00  0.00    +0.000 OA
BRANCH   7   8
ATOM      8  C   UNL     1      -0.761  10.887  18.466  0.00  0.00    +0.000 A 
ATOM      9  C   UNL     1      -1.199  11.884  19.342  0.00  0.00    +0.000 A 
ATOM     10  C   UNL     1      -2.556  12.188  19.419  0.00  0.00    +0.000 A 
ATOM     11  C   UNL     1      -3.480  11.510  18.615  0.00  0.00    +0.000 A 
ATOM     12  C   UNL     1      -3.045  10.500  17.751  0.00  0.00    +0.000 A 
ATOM     13  C   UNL     1      -1.686  10.215  17.656  0.00  0.00    +0.000 A 
BRANCH  11  14
ATOM     14  C   UNL     1      -4.887  11.912  18.648  0.00  0.00    +0.000 C 
ATOM     15  N   UNL     1      -5.386  12.839  19.403  0.00  0.00    +0.000 NA
ATOM     16  C   UNL     1      -6.801  12.860  19.043  0.00  0.00    +0.000 C 
ATOM     17  C   UNL     1      -6.950  11.884  17.892  0.00  0.00    +0.000 C 
ATOM     18  O   UNL     1      -5.687  11.254  17.780  0.00  0.00    +0.000 OA
ENDBRANCH  11  14
ENDBRANCH   7   8
ENDBRANCH   3   7
BRANCH   6  19
ATOM     19  O   UNL     1       2.939   5.931  20.019  0.00  0.00    +0.000 OA
BRANCH  19  20
ATOM     20  C   UNL     1       2.060   5.093  20.774  0.00  0.00    +0.000 C 
BRANCH  20  21
ATOM     21  C   UNL     1       1.320   4.133  19.827  0.00  0.00    +0.000 C 
BRANCH  21  22
ATOM     22  N   UNL     1       1.719   2.722  20.010  0.00  0.00    +0.000 NA
ATOM     23  C   UNL     1       3.076   2.615  20.571  0.00  0.00    +0.000 C 
ATOM     24  C   UNL     1       3.995   2.571  19.367  0.00  0.00    +0.000 C 
ATOM     25  C   UNL     1       3.210   1.738  18.374  0.00  0.00    +0.000 C 
ATOM     26  C   UNL     1       1.753   1.955  18.751  0.00  0.00    +0.000 C 
ENDBRANCH  21  22
ENDBRANCH  20  21
ENDBRANCH  19  20
ENDBRANCH   6  19
TORSDOF 7
ENDMDL
MODEL 4
REMARK VINA RESULT:      -7.1      2.288     10.009
REMARK  Name = 
REMARK  7 active torsions:
REMARK  status: ('A' for Active; 'I' for Inactive)
REMARK    1  A    between atoms: C_3  and  O_4
REMARK    2  A    between atoms: O_4  and  C_5
REMARK    3  A    between atoms: C_8  and  C_9
REMARK    4  A    between atoms: C_18  and  O_19
REMARK    5  A    between atoms: O_19  and  C_20
REMARK    6  A    between atoms: C_20  and  C_21
REMARK    7  A    between atoms: C_21  and  N_22
REMARK                            x       y       z     vdW  Elec       q    Type
REMARK                         _______ _______ _______ _____ _____    ______ ____
ROOT
ATOM      1  C   UNL     1       1.388   8.157  20.611  0.00  0.00    +0.000 A 
ATOM      2  C   UNL     1       2.172   7.017  20.413  0.00  0.00    +0.000 A 
ATOM      3  C   UNL     1       2.778   6.794  19.177  0.00  0.00    +0.000 A 
ATOM      4  C   UNL     1       2.615   7.726  18.147  0.00  0.00    +0.000 A 
ATOM      5  C   UNL     1       1.819   8.849  18.339  0.00  0.00    +0.000 A 
ATOM      6  C   UNL     1       1.230   9.085  19.576  0.00  0.00    +0.000 A 
ENDROOT
BRANCH   3   7
ATOM      7  O   UNL     1       3.563   5.673  19.086  0.00  0.00    +0.000 OA
BRANCH   7   8
ATOM      8  C   UNL     1       4.343   5.466  17.976  0.00  0.00    +0.000 A 
ATOM      9  C   UNL     1       4.025   4.345  17.204  0.00  0.00    +0.000 A 
ATOM     10  C   UNL     1       4.741   4.084  16.039  0.00  0.00    +0.000 A 
ATOM     11  C   UNL     1       5.766   4.946  15.630  0.00  0.00    +0.000 A 
ATOM     12  C   UNL     1       6.097   6.058  16.411  0.00  0.00    +0.000 A 
ATOM     13  C   UNL     1       5.364   6.332  17.561  0.00  0.00    +0.000 A 
BRANCH  11  14
ATOM     14  C   UNL     1       6.440   4.700  14.354  0.00  0.00    +0.000 C 
ATOM     15  N   UNL     1       6.033   3.883  13.435  0.00  0.00    +0.000 NA
ATOM     16  C   UNL     1       7.030   4.022  12.376  0.00  0.00    +0.000 C 
ATOM     17  C   UNL     1       7.961   5.131  12.828  0.00  0.00    +0.000 C 
ATOM     18  O   UNL     1       7.558   5.431  14.152  0.00  0.00    +0.000 OA
ENDBRANCH  11  14
ENDBRANCH   7   8
ENDBRANCH   3   7
BRANCH   6  19
ATOM     19  O   UNL     1       0.522  10.255  19.666  0.00  0.00    +0.000 OA
BRANCH  19  20
ATOM     20  C   UNL     1      -0.268  10.548  18.510  0.00  0.00    +0.000 C 
BRANCH  20  21
ATOM     21  C   UNL     1      -1.424  11.485  18.897  0.00  0.00    +0.000 C 
BRANCH  21  22
ATOM     22  N   UNL     1      -2.335  11.771  17.770  0.00  0.00    +0.000 NA
ATOM     23  C   UNL     1      -3.740  11.526  18.139  0.00  0.00    +0.000 C 
ATOM     24  C   UNL     1      -3.989  10.072  17.786  0.00  0.00    +0.000 C 
ATOM     25  C   UNL     1      -3.203   9.898  16.502  0.00  0.00    +0.000 C 
ATOM     26  C   UNL     1      -2.087  10.927  16.587  0.00  0.00    +0.000 C 
ENDBRANCH  21  22
ENDBRANCH  20  21
ENDBRANCH  19  20
ENDBRANCH   6  19
TORSDOF 7
ENDMDL
MODEL 5
REMARK VINA RESULT:      -7.1      0.881      1.402
REMARK  Name = 
REMARK  7 active torsions:
REMARK  status: ('A' for Active; 'I' for Inactive)
REMARK    1  A    between atoms: C_3  and  O_4
REMARK    2  A    between atoms: O_4  and  C_5
REMARK    3  A    between atoms: C_8  and  C_9
REMARK    4  A    between atoms: C_18  and  O_19
REMARK    5  A    between atoms: O_19  and  C_20
REMARK    6  A    between atoms: C_20  and  C_21
REMARK    7  A    between atoms: C_21  and  N_22
REMARK                            x       y       z     vdW  Elec       q    Type
REMARK                         _______ _______ _______ _____ _____    ______ ____
ROOT
ATOM      1  C   UNL     1       2.601   8.026  17.904  0.00  0.00    +0.000 A 
ATOM      2  C   UNL     1       1.950   9.260  17.812  0.00  0.00    +0.000 A 
ATOM      3  C   UNL     1       1.224   9.748  18.898  0.00  0.00    +0.000 A 
ATOM      4  C   UNL     1       1.169   9.007  20.084  0.00  0.00    +0.000 A 
ATOM      5  C   UNL     1       1.799   7.771  20.166  0.00  0.00    +0.000 A 
ATOM      6  C   UNL     1       2.541   7.291  19.093  0.00  0.00    +0.000 A 
ENDROOT
BRANCH   3   7
ATOM      7  O   UNL     1       0.656  10.985  18.734  0.00  0.00    +0.000 OA
BRANCH   7   8
ATOM      8  C   UNL     1      -0.710  11.117  18.712  0.00  0.00    +0.000 A 
ATOM      9  C   UNL     1      -1.252  12.034  19.617  0.00  0.00    +0.000 A 
ATOM     10  C   UNL     1      -2.626  12.258  19.633  0.00  0.00    +0.000 A 
ATOM     11  C   UNL     1      -3.464  11.582  18.737  0.00  0.00    +0.000 A 
ATOM     12  C   UNL     1      -2.924  10.651  17.844  0.00  0.00    +0.000 A 
ATOM     13  C   UNL     1      -1.549  10.447  17.811  0.00  0.00    +0.000 A 
BRANCH  11  14
ATOM     14  C   UNL     1      -4.891  11.904  18.711  0.00  0.00    +0.000 C 
ATOM     15  N   UNL     1      -5.510  12.644  19.577  0.00  0.00    +0.000 NA
ATOM     16  C   UNL     1      -6.889  12.668  19.094  0.00  0.00    +0.000 C 
ATOM     17  C   UNL     1      -6.877  11.926  17.772  0.00  0.00    +0.000 C 
ATOM     18  O   UNL     1      -5.571  11.389  17.664  0.00  0.00    +0.000 OA
ENDBRANCH  11  14
ENDBRANCH   7   8
ENDBRANCH   3   7
BRANCH   6  19
ATOM     19  O   UNL     1       3.170   6.094  19.313  0.00  0.00    +0.000 OA
BRANCH  19  20
ATOM     20  C   UNL     1       3.385   5.323  18.127  0.00  0.00    +0.000 C 
BRANCH  20  21
ATOM     21  C   UNL     1       4.653   4.468  18.288  0.00  0.00    +0.000 C 
BRANCH  21  22
ATOM     22  N   UNL     1       5.684   4.769  17.274  0.00  0.00    +0.000 NA
ATOM     23  C   UNL     1       7.038   4.723  17.852  0.00  0.00    +0.000 C 
ATOM     24  C   UNL     1       7.305   6.134  18.337  0.00  0.00    +0.000 C 
ATOM     25  C   UNL     1       6.660   6.987  17.263  0.00  0.00    +0.000 C 
ATOM     26  C   UNL     1       5.554   6.116  16.688  0.00  0.00    +0.000 C 
ENDBRANCH  21  22
ENDBRANCH  20  21
ENDBRANCH  19  20
ENDBRANCH   6  19
TORSDOF 7
ENDMDL
MODEL 6
REMARK VINA RESULT:      -7.1      2.003      3.146
REMARK  Name = 
REMARK  7 active torsions:
REMARK  status: ('A' for Active; 'I' for Inactive)
REMARK    1  A    between atoms: C_3  and  O_4
REMARK    2  A    between atoms: O_4  and  C_5
REMARK    3  A    between atoms: C_8  and  C_9
REMARK    4  A    between atoms: C_18  and  O_19
REMARK    5  A    between atoms: O_19  and  C_20
REMARK    6  A    between atoms: C_20  and  C_21
REMARK    7  A    between atoms: C_21  and  N_22
REMARK                            x       y       z     vdW  Elec       q    Type
REMARK                         _______ _______ _______ _____ _____    ______ ____
ROOT
ATOM      1  C   UNL     1       2.251   8.211  18.295  0.00  0.00    +0.000 A 
ATOM      2  C   UNL     1       1.675   9.465  18.073  0.00  0.00    +0.000 A 
ATOM      3  C   UNL     1       0.958  10.092  19.092  0.00  0.00    +0.000 A 
ATOM      4  C   UNL     1       0.838   9.470  20.339  0.00  0.00    +0.000 A 
ATOM      5  C   UNL     1       1.395   8.214  20.551  0.00  0.00    +0.000 A 
ATOM      6  C   UNL     1       2.128   7.595  19.546  0.00  0.00    +0.000 A 
ENDROOT
BRANCH   3   7
ATOM      7  O   UNL     1       0.464  11.338  18.800  0.00  0.00    +0.000 OA
BRANCH   7   8
ATOM      8  C   UNL     1      -0.890  11.554  18.780  0.00  0.00    +0.000 A 
ATOM      9  C   UNL     1      -1.578  11.033  17.680  0.00  0.00    +0.000 A 
ATOM     10  C   UNL     1      -2.961  11.174  17.602  0.00  0.00    +0.000 A 
ATOM     11  C   UNL     1      -3.666  11.820  18.625  0.00  0.00    +0.000 A 
ATOM     12  C   UNL     1      -2.977  12.357  19.716  0.00  0.00    +0.000 A 
ATOM     13  C   UNL     1      -1.599  12.193  19.806  0.00  0.00    +0.000 A 
BRANCH  11  14
ATOM     14  C   UNL     1      -5.128  11.872  18.563  0.00  0.00    +0.000 C 
ATOM     15  N   UNL     1      -5.821  12.387  17.596  0.00  0.00    +0.000 NA
ATOM     16  C   UNL     1      -7.206  12.169  18.005  0.00  0.00    +0.000 C 
ATOM     17  C   UNL     1      -7.138  11.351  19.279  0.00  0.00    +0.000 C 
ATOM     18  O   UNL     1      -5.762  11.298  19.609  0.00  0.00    +0.000 OA
ENDBRANCH  11  14
ENDBRANCH   7   8
ENDBRANCH   3   7
BRANCH   6  19
ATOM     19  O   UNL     1       2.683   6.391  19.891  0.00  0.00    +0.000 OA
BRANCH  19  20
ATOM     20  C   UNL     1       3.087   5.595  18.773  0.00  0.00    +0.000 C 
BRANCH  20  21
ATOM     21  C   UNL     1       1.956   4.625  18.393  0.00  0.00    +0.000 C 
BRANCH  21  22
ATOM     22  N   UNL     1       2.220   3.236  18.820  0.00  0.00    +0.000 NA
ATOM     23  C   UNL     1       1.044   2.642  19.479  0.00  0.00    +0.000 C 
ATOM     24  C   UNL     1       1.209   2.976  20.948  0.00  0.00    +0.000 C 
ATOM     25  C   UNL     1       2.704   2.835  21.160  0.00  0.00    +0.000 C 
ATOM     26  C   UNL     1       3.318   3.122  19.799  0.00  0.00    +0.000 C 
ENDBRANCH  21  22
ENDBRANCH  20  21
ENDBRANCH  19  20
ENDBRANCH   6  19
TORSDOF 7
ENDMDL
MODEL 7
REMARK VINA RESULT:      -7.0      0.699      1.529
REMARK  Name = 
REMARK  7 active torsions:
REMARK  status: ('A' for Active; 'I' for Inactive)
REMARK    1  A    between atoms: C_3  and  O_4
REMARK    2  A    between atoms: O_4  and  C_5
REMARK    3  A    between atoms: C_8  and  C_9
REMARK    4  A    between atoms: C_18  and  O_19
REMARK    5  A    between atoms: O_19  and  C_20
REMARK    6  A    between atoms: C_20  and  C_21
REMARK    7  A    between atoms: C_21  and  N_22
REMARK                            x       y       z     vdW  Elec       q    Type
REMARK                         _______ _______ _______ _____ _____    ______ ____
ROOT
ATOM      1  C   UNL     1       2.357   7.947  18.095  0.00  0.00    +0.000 A 
ATOM      2  C   UNL     1       1.794   9.210  17.890  0.00  0.00    +0.000 A 
ATOM      3  C   UNL     1       1.143   9.861  18.939  0.00  0.00    +0.000 A 
ATOM      4  C   UNL     1       1.077   9.254  20.197  0.00  0.00    +0.000 A 
ATOM      5  C   UNL     1       1.620   7.989  20.392  0.00  0.00    +0.000 A 
ATOM      6  C   UNL     1       2.287   7.346  19.357  0.00  0.00    +0.000 A 
ENDROOT
BRANCH   3   7
ATOM      7  O   UNL     1       0.659  11.113  18.659  0.00  0.00    +0.000 OA
BRANCH   7   8
ATOM      8  C   UNL     1      -0.687  11.365  18.743  0.00  0.00    +0.000 A 
ATOM      9  C   UNL     1      -1.493  10.709  17.808  0.00  0.00    +0.000 A 
ATOM     10  C   UNL     1      -2.874  10.879  17.849  0.00  0.00    +0.000 A 
ATOM     11  C   UNL     1      -3.460  11.689  18.829  0.00  0.00    +0.000 A 
ATOM     12  C   UNL     1      -2.653  12.360  19.753  0.00  0.00    +0.000 A 
ATOM     13  C   UNL     1      -1.276  12.170  19.728  0.00  0.00    +0.000 A 
BRANCH  11  14
ATOM     14  C   UNL     1      -4.919  11.776  18.907  0.00  0.00    +0.000 C 
ATOM     15  N   UNL     1      -5.585  12.456  19.786  0.00  0.00    +0.000 NA
ATOM     16  C   UNL     1      -6.981  12.231  19.419  0.00  0.00    +0.000 C 
ATOM     17  C   UNL     1      -6.946  11.425  18.135  0.00  0.00    +0.000 C 
ATOM     18  O   UNL     1      -5.581  11.098  17.943  0.00  0.00    +0.000 OA
ENDBRANCH  11  14
ENDBRANCH   7   8
ENDBRANCH   3   7
BRANCH   6  19
ATOM     19  O   UNL     1       2.837   6.134  19.685  0.00  0.00    +0.000 OA
BRANCH  19  20
ATOM     20  C   UNL     1       3.559   5.515  18.617  0.00  0.00    +0.000 C 
BRANCH  20  21
ATOM     21  C   UNL     1       5.007   5.246  19.059  0.00  0.00    +0.000 C 
BRANCH  21  22
ATOM     22  N   UNL     1       5.701   4.268  18.197  0.00  0.00    +0.000 NA
ATOM     23  C   UNL     1       7.057   4.725  17.848  0.00  0.00    +0.000 C 
ATOM     24  C   UNL     1       6.885   5.519  16.568  0.00  0.00    +0.000 C 
ATOM     25  C   UNL     1       5.828   4.730  15.821  0.00  0.00    +0.000 C 
ATOM     26  C   UNL     1       5.021   4.037  16.909  0.00  0.00    +0.000 C 
ENDBRANCH  21  22
ENDBRANCH  20  21
ENDBRANCH  19  20
ENDBRANCH   6  19
TORSDOF 7
ENDMDL
MODEL 8
REMARK VINA RESULT:      -7.0      0.779      1.287
REMARK  Name = 
REMARK  7 active torsions:
REMARK  status: ('A' for Active; 'I' for Inactive)
REMARK    1  A    between atoms: C_3  and  O_4
REMARK    2  A    between atoms: O_4  and  C_5
REMARK    3  A    between atoms: C_8  and  C_9
REMARK    4  A    between atoms: C_18  and  O_19
REMARK    5  A    between atoms: O_19  and  C_20
REMARK    6  A    between atoms: C_20  and  C_21
REMARK    7  A    between atoms: C_21  and  N_22
REMARK                            x       y       z     vdW  Elec       q    Type
REMARK                         _______ _______ _______ _____ _____    ______ ____
ROOT
ATOM      1  C   UNL     1       1.549   8.036  20.568  0.00  0.00    +0.000 A 
ATOM      2  C   UNL     1       1.107   9.295  20.151  0.00  0.00    +0.000 A 
ATOM      3  C   UNL     1       1.347   9.720  18.845  0.00  0.00    +0.000 A 
ATOM      4  C   UNL     1       2.011   8.874  17.951  0.00  0.00    +0.000 A 
ATOM      5  C   UNL     1       2.468   7.631  18.374  0.00  0.00    +0.000 A 
ATOM      6  C   UNL     1       2.212   7.195  19.668  0.00  0.00    +0.000 A 
ENDROOT
BRANCH   3   7
ATOM      7  O   UNL     1       0.841  10.951  18.511  0.00  0.00    +0.000 OA
BRANCH   7   8
ATOM      8  C   UNL     1      -0.513  11.171  18.550  0.00  0.00    +0.000 A 
ATOM      9  C   UNL     1      -1.294  10.330  17.752  0.00  0.00    +0.000 A 
ATOM     10  C   UNL     1      -2.680  10.461  17.763  0.00  0.00    +0.000 A 
ATOM     11  C   UNL     1      -3.295  11.419  18.578  0.00  0.00    +0.000 A 
ATOM     12  C   UNL     1      -2.513  12.273  19.363  0.00  0.00    +0.000 A 
ATOM     13  C   UNL     1      -1.130  12.124  19.371  0.00  0.00    +0.000 A 
BRANCH  11  14
ATOM     14  C   UNL     1      -4.756  11.473  18.641  0.00  0.00    +0.000 C 
ATOM     15  N   UNL     1      -5.564  11.032  17.729  0.00  0.00    +0.000 NA
ATOM     16  C   UNL     1      -6.891  11.301  18.277  0.00  0.00    +0.000 C 
ATOM     17  C   UNL     1      -6.660  11.842  19.674  0.00  0.00    +0.000 C 
ATOM     18  O   UNL     1      -5.257  12.009  19.776  0.00  0.00    +0.000 OA
ENDBRANCH  11  14
ENDBRANCH   7   8
ENDBRANCH   3   7
BRANCH   6  19
ATOM     19  O   UNL     1       2.653   5.928  19.950  0.00  0.00    +0.000 OA
BRANCH  19  20
ATOM     20  C   UNL     1       3.235   5.251  18.832  0.00  0.00    +0.000 C 
BRANCH  20  21
ATOM     21  C   UNL     1       4.671   4.824  19.176  0.00  0.00    +0.000 C 
BRANCH  21  22
ATOM     22  N   UNL     1       5.433   4.364  17.997  0.00  0.00    +0.000 NA
ATOM     23  C   UNL     1       6.725   5.063  17.884  0.00  0.00    +0.000 C 
ATOM     24  C   UNL     1       6.434   6.288  17.041  0.00  0.00    +0.000 C 
ATOM     25  C   UNL     1       5.439   5.769  16.023  0.00  0.00    +0.000 C 
ATOM     26  C   UNL     1       4.741   4.610  16.719  0.00  0.00    +0.000 C 
ENDBRANCH  21  22
ENDBRANCH  20  21
ENDBRANCH  19  20
ENDBRANCH   6  19
TORSDOF 7
ENDMDL
MODEL 9
REMARK VINA RESULT:      -7.0      2.297      9.805
REMARK  Name = 
REMARK  7 active torsions:
REMARK  status: ('A' for Active; 'I' for Inactive)
REMARK    1  A    between atoms: C_3  and  O_4
REMARK    2  A    between atoms: O_4  and  C_5
REMARK    3  A    between atoms: C_8  and  C_9
REMARK    4  A    between atoms: C_18  and  O_19
REMARK    5  A    between atoms: O_19  and  C_20
REMARK    6  A    between atoms: C_20  and  C_21
REMARK    7  A    between atoms: C_21  and  N_22
REMARK                            x       y       z     vdW  Elec       q    Type
REMARK                         _______ _______ _______ _____ _____    ______ ____
ROOT
ATOM      1  C   UNL     1       1.341   8.287  20.748  0.00  0.00    +0.000 A 
ATOM      2  C   UNL     1       2.096   7.136  20.505  0.00  0.00    +0.000 A 
ATOM      3  C   UNL     1       2.566   6.870  19.219  0.00  0.00    +0.000 A 
ATOM      4  C   UNL     1       2.295   7.769  18.182  0.00  0.00    +0.000 A 
ATOM      5  C   UNL     1       1.527   8.902  18.422  0.00  0.00    +0.000 A 
ATOM      6  C   UNL     1       1.075   9.182  19.705  0.00  0.00    +0.000 A 
ENDROOT
BRANCH   3   7
ATOM      7  O   UNL     1       3.333   5.742  19.082  0.00  0.00    +0.000 OA
BRANCH   7   8
ATOM      8  C   UNL     1       3.981   5.489  17.899  0.00  0.00    +0.000 A 
ATOM      9  C   UNL     1       4.758   6.535  17.391  0.00  0.00    +0.000 A 
ATOM     10  C   UNL     1       5.480   6.348  16.215  0.00  0.00    +0.000 A 
ATOM     11  C   UNL     1       5.444   5.117  15.549  0.00  0.00    +0.000 A 
ATOM     12  C   UNL     1       4.653   4.077  16.047  0.00  0.00    +0.000 A 
ATOM     13  C   UNL     1       3.952   4.256  17.235  0.00  0.00    +0.000 A 
BRANCH  11  14
ATOM     14  C   UNL     1       6.284   4.918  14.367  0.00  0.00    +0.000 C 
ATOM     15  N   UNL     1       7.434   5.479  14.160  0.00  0.00    +0.000 NA
ATOM     16  C   UNL     1       7.859   4.941  12.870  0.00  0.00    +0.000 C 
ATOM     17  C   UNL     1       6.811   3.916  12.485  0.00  0.00    +0.000 C 
ATOM     18  O   UNL     1       5.792   4.047  13.459  0.00  0.00    +0.000 OA
ENDBRANCH  11  14
ENDBRANCH   7   8
ENDBRANCH   3   7
BRANCH   6  19
ATOM     19  O   UNL     1       0.384  10.359  19.833  0.00  0.00    +0.000 OA
BRANCH  19  20
ATOM     20  C   UNL     1       0.638  11.299  18.785  0.00  0.00    +0.000 C 
BRANCH  20  21
ATOM     21  C   UNL     1      -0.692  11.884  18.281  0.00  0.00    +0.000 C 
BRANCH  21  22
ATOM     22  N   UNL     1      -1.813  10.926  18.368  0.00  0.00    +0.000 NA
ATOM     23  C   UNL     1      -1.899  10.087  17.160  0.00  0.00    +0.000 C 
ATOM     24  C   UNL     1      -2.810  10.849  16.219  0.00  0.00    +0.000 C 
ATOM     25  C   UNL     1      -3.847  11.437  17.155  0.00  0.00    +0.000 C 
ATOM     26  C   UNL     1      -3.131  11.575  18.490  0.00  0.00    +0.000 C 
ENDBRANCH  21  22
ENDBRANCH  20  21
ENDBRANCH  19  20
ENDBRANCH   6  19
TORSDOF 7
ENDMDL
