MODEL 1
REMARK VINA RESULT:      -5.8      0.000      0.000
REMARK  Name = 
REMARK  2 active torsions:
REMARK  status: ('A' for Active; 'I' for Inactive)
REMARK    1  A    between atoms: N_1  and  N_2
REMARK    2  A    between atoms: C_3  and  C_5
REMARK                            x       y       z     vdW  Elec       q    Type
REMARK                         _______ _______ _______ _____ _____    ______ ____
ROOT
ATOM      1  C   UNL     1       5.660   4.678  17.312  0.00  0.00    +0.000 A 
ATOM      2  C   UNL     1       4.420   4.261  16.865  0.00  0.00    +0.000 A 
ATOM      3  C   UNL     1       3.438   4.351  17.897  0.00  0.00    +0.000 A 
ATOM      4  S   UNL     1       1.731   4.012  18.015  0.00  0.00    +0.000 S 
ATOM      5  C   UNL     1       1.732   4.527  19.650  0.00  0.00    +0.000 A 
ATOM      6  C   UNL     1       2.962   4.936  20.104  0.00  0.00    +0.000 A 
ATOM      7  C   UNL     1       3.946   4.822  19.075  0.00  0.00    +0.000 A 
ATOM      8  S   UNL     1       5.649   5.147  18.967  0.00  0.00    +0.000 S 
ENDROOT
BRANCH   1  10
ATOM      9  N   UNL     1       6.725   5.311  15.239  0.00  0.00    +0.000 N 
ATOM     10  C   UNL     1       6.884   4.758  16.516  0.00  0.00    +0.000 C 
ATOM     11  O   UNL     1       7.976   4.355  16.918  0.00  0.00    +0.000 OA
ATOM     12  H   UNL     1       5.831   5.729  15.009  0.00  0.00    +0.000 HD
BRANCH   9  13
ATOM     13  N   UNL     1       7.830   5.512  14.388  0.00  0.00    +0.000 NA
ATOM     14  H   UNL     1       8.188   4.604  14.089  0.00  0.00    +0.000 HD
ATOM     15  H   UNL     1       8.581   5.935  14.949  0.00  0.00    +0.000 HD
ENDBRANCH   9  13
ENDBRANCH   1  10
TORSDOF 2
ENDMDL
MODEL 2
REMARK VINA RESULT:      -5.7      1.421      1.440
REMARK  Name = 
REMARK  2 active torsions:
REMARK  status: ('A' for Active; 'I' for Inactive)
REMARK    1  A    between atoms: N_1  and  N_2
REMARK    2  A    between atoms: C_3  and  C_5
REMARK                            x       y       z     vdW  Elec       q    Type
REMARK                         _______ _______ _______ _____ _____    ______ ____
ROOT
ATOM      1  C   UNL     1       5.439   5.170  16.574  0.00  0.00    +0.000 A 
ATOM      2  C   UNL     1       4.953   3.877  16.606  0.00  0.00    +0.000 A 
ATOM      3  C   UNL     1       3.700   3.809  17.287  0.00  0.00    +0.000 A 
ATOM      4  S   UNL     1       2.564   2.541  17.670  0.00  0.00    +0.000 S 
ATOM      5  C   UNL     1       1.533   3.680  18.429  0.00  0.00    +0.000 A 
ATOM      6  C   UNL     1       2.013   4.967  18.407  0.00  0.00    +0.000 A 
ATOM      7  C   UNL     1       3.277   5.025  17.746  0.00  0.00    +0.000 A 
ATOM      8  S   UNL     1       4.412   6.290  17.381  0.00  0.00    +0.000 S 
ENDROOT
BRANCH   1  10
ATOM      9  N   UNL     1       6.859   5.141  14.620  0.00  0.00    +0.000 N 
ATOM     10  C   UNL     1       6.672   5.614  15.925  0.00  0.00    +0.000 C 
ATOM     11  O   UNL     1       7.503   6.333  16.481  0.00  0.00    +0.000 OA
ATOM     12  H   UNL     1       6.090   4.651  14.177  0.00  0.00    +0.000 HD
BRANCH   9  13
ATOM     13  N   UNL     1       7.968   5.542  13.850  0.00  0.00    +0.000 NA
ATOM     14  H   UNL     1       8.047   4.929  13.038  0.00  0.00    +0.000 HD
ATOM     15  H   UNL     1       8.814   5.370  14.410  0.00  0.00    +0.000 HD
ENDBRANCH   9  13
ENDBRANCH   1  10
TORSDOF 2
ENDMDL
MODEL 3
REMARK VINA RESULT:      -5.7      2.087      2.615
REMARK  Name = 
REMARK  2 active torsions:
REMARK  status: ('A' for Active; 'I' for Inactive)
REMARK    1  A    between atoms: N_1  and  N_2
REMARK    2  A    between atoms: C_3  and  C_5
REMARK                            x       y       z     vdW  Elec       q    Type
REMARK                         _______ _______ _______ _____ _____    ______ ____
ROOT
ATOM      1  C   UNL     1       4.433   4.000  18.205  0.00  0.00    +0.000 A 
ATOM      2  C   UNL     1       4.497   3.332  19.414  0.00  0.00    +0.000 A 
ATOM      3  C   UNL     1       3.211   3.242  20.027  0.00  0.00    +0.000 A 
ATOM      4  S   UNL     1       2.587   2.547  21.500  0.00  0.00    +0.000 S 
ATOM      5  C   UNL     1       1.004   3.053  21.079  0.00  0.00    +0.000 A 
ATOM      6  C   UNL     1       0.933   3.724  19.883  0.00  0.00    +0.000 A 
ATOM      7  C   UNL     1       2.226   3.832  19.286  0.00  0.00    +0.000 A 
ATOM      8  S   UNL     1       2.845   4.539  17.824  0.00  0.00    +0.000 S 
ENDROOT
BRANCH   1  10
ATOM      9  N   UNL     1       6.821   4.131  17.865  0.00  0.00    +0.000 N 
ATOM     10  C   UNL     1       5.548   4.239  17.290  0.00  0.00    +0.000 C 
ATOM     11  O   UNL     1       5.394   4.535  16.105  0.00  0.00    +0.000 OA
ATOM     12  H   UNL     1       6.887   3.773  18.811  0.00  0.00    +0.000 HD
BRANCH   9  13
ATOM     13  N   UNL     1       7.987   4.268  17.088  0.00  0.00    +0.000 NA
ATOM     14  H   UNL     1       8.203   5.261  16.986  0.00  0.00    +0.000 HD
ATOM     15  H   UNL     1       7.771   3.933  16.140  0.00  0.00    +0.000 HD
ENDBRANCH   9  13
ENDBRANCH   1  10
TORSDOF 2
ENDMDL
MODEL 4
REMARK VINA RESULT:      -5.6      1.293      1.293
REMARK  Name = 
REMARK  2 active torsions:
REMARK  status: ('A' for Active; 'I' for Inactive)
REMARK    1  A    between atoms: N_1  and  N_2
REMARK    2  A    between atoms: C_3  and  C_5
REMARK                            x       y       z     vdW  Elec       q    Type
REMARK                         _______ _______ _______ _____ _____    ______ ____
ROOT
ATOM      1  C   UNL     1       5.930   4.816  16.991  0.00  0.00    +0.000 A 
ATOM      2  C   UNL     1       4.945   3.971  16.513  0.00  0.00    +0.000 A 
ATOM      3  C   UNL     1       4.115   3.491  17.570  0.00  0.00    +0.000 A 
ATOM      4  S   UNL     1       2.727   2.439  17.674  0.00  0.00    +0.000 S 
ATOM      5  C   UNL     1       2.659   2.681  19.370  0.00  0.00    +0.000 A 
ATOM      6  C   UNL     1       3.639   3.513  19.853  0.00  0.00    +0.000 A 
ATOM      7  C   UNL     1       4.481   3.971  18.795  0.00  0.00    +0.000 A 
ATOM      8  S   UNL     1       5.873   5.008  18.699  0.00  0.00    +0.000 S 
ENDROOT
BRANCH   1  10
ATOM      9  N   UNL     1       7.194   4.948  14.937  0.00  0.00    +0.000 N 
ATOM     10  C   UNL     1       6.929   5.520  16.188  0.00  0.00    +0.000 C 
ATOM     11  O   UNL     1       7.516   6.530  16.578  0.00  0.00    +0.000 OA
ATOM     12  H   UNL     1       6.599   4.189  14.625  0.00  0.00    +0.000 HD
BRANCH   9  13
ATOM     13  N   UNL     1       8.083   5.557  14.030  0.00  0.00    +0.000 NA
ATOM     14  H   UNL     1       8.916   4.974  13.940  0.00  0.00    +0.000 HD
ATOM     15  H   UNL     1       8.405   6.437  14.453  0.00  0.00    +0.000 HD
ENDBRANCH   9  13
ENDBRANCH   1  10
TORSDOF 2
ENDMDL
MODEL 5
REMARK VINA RESULT:      -5.5      1.641      1.825
REMARK  Name = 
REMARK  2 active torsions:
REMARK  status: ('A' for Active; 'I' for Inactive)
REMARK    1  A    between atoms: N_1  and  N_2
REMARK    2  A    between atoms: C_3  and  C_5
REMARK                            x       y       z     vdW  Elec       q    Type
REMARK                         _______ _______ _______ _____ _____    ______ ____
ROOT
ATOM      1  C   UNL     1       4.396   4.424  17.755  0.00  0.00    +0.000 A 
ATOM      2  C   UNL     1       3.384   3.518  17.499  0.00  0.00    +0.000 A 
ATOM      3  C   UNL     1       2.483   3.420  18.602  0.00  0.00    +0.000 A 
ATOM      4  S   UNL     1       1.032   2.511  18.939  0.00  0.00    +0.000 S 
ATOM      5  C   UNL     1       0.908   3.261  20.475  0.00  0.00    +0.000 A 
ATOM      6  C   UNL     1       1.913   4.158  20.740  0.00  0.00    +0.000 A 
ATOM      7  C   UNL     1       2.825   4.234  19.644  0.00  0.00    +0.000 A 
ATOM      8  S   UNL     1       4.278   5.131  19.320  0.00  0.00    +0.000 S 
ENDROOT
BRANCH   1  10
ATOM      9  N   UNL     1       6.723   4.259  17.132  0.00  0.00    +0.000 N 
ATOM     10  C   UNL     1       5.467   4.805  16.837  0.00  0.00    +0.000 C 
ATOM     11  O   UNL     1       5.297   5.564  15.882  0.00  0.00    +0.000 OA
ATOM     12  H   UNL     1       6.777   3.554  17.857  0.00  0.00    +0.000 HD
BRANCH   9  13
ATOM     13  N   UNL     1       7.832   4.485  16.294  0.00  0.00    +0.000 NA
ATOM     14  H   UNL     1       8.478   5.123  16.763  0.00  0.00    +0.000 HD
ATOM     15  H   UNL     1       7.497   4.991  15.464  0.00  0.00    +0.000 HD
ENDBRANCH   9  13
ENDBRANCH   1  10
TORSDOF 2
ENDMDL
MODEL 6
REMARK VINA RESULT:      -5.5      1.080      1.172
REMARK  Name = 
REMARK  2 active torsions:
REMARK  status: ('A' for Active; 'I' for Inactive)
REMARK    1  A    between atoms: N_1  and  N_2
REMARK    2  A    between atoms: C_3  and  C_5
REMARK                            x       y       z     vdW  Elec       q    Type
REMARK                         _______ _______ _______ _____ _____    ______ ____
ROOT
ATOM      1  C   UNL     1       5.097   4.330  18.075  0.00  0.00    +0.000 A 
ATOM      2  C   UNL     1       4.170   3.362  17.734  0.00  0.00    +0.000 A 
ATOM      3  C   UNL     1       3.006   3.445  18.557  0.00  0.00    +0.000 A 
ATOM      4  S   UNL     1       1.499   2.572  18.662  0.00  0.00    +0.000 S 
ATOM      5  C   UNL     1       0.987   3.591  19.941  0.00  0.00    +0.000 A 
ATOM      6  C   UNL     1       1.905   4.551  20.290  0.00  0.00    +0.000 A 
ATOM      7  C   UNL     1       3.077   4.449  19.481  0.00  0.00    +0.000 A 
ATOM      8  S   UNL     1       4.583   5.311  19.391  0.00  0.00    +0.000 S 
ENDROOT
BRANCH   1  10
ATOM      9  N   UNL     1       6.299   4.960  16.078  0.00  0.00    +0.000 N 
ATOM     10  C   UNL     1       6.382   4.564  17.419  0.00  0.00    +0.000 C 
ATOM     11  O   UNL     1       7.465   4.411  17.985  0.00  0.00    +0.000 OA
ATOM     12  H   UNL     1       5.384   5.180  15.702  0.00  0.00    +0.000 HD
BRANCH   9  13
ATOM     13  N   UNL     1       7.454   5.286  15.340  0.00  0.00    +0.000 NA
ATOM     14  H   UNL     1       8.245   4.756  15.710  0.00  0.00    +0.000 HD
ATOM     15  H   UNL     1       7.672   6.274  15.525  0.00  0.00    +0.000 HD
ENDBRANCH   9  13
ENDBRANCH   1  10
TORSDOF 2
ENDMDL
MODEL 7
REMARK VINA RESULT:      -5.5      1.732      2.082
REMARK  Name = 
REMARK  2 active torsions:
REMARK  status: ('A' for Active; 'I' for Inactive)
REMARK    1  A    between atoms: N_1  and  N_2
REMARK    2  A    between atoms: C_3  and  C_5
REMARK                            x       y       z     vdW  Elec       q    Type
REMARK                         _______ _______ _______ _____ _____    ______ ____
ROOT
ATOM      1  C   UNL     1       6.134   4.431  15.600  0.00  0.00    +0.000 A 
ATOM      2  C   UNL     1       4.817   4.050  15.776  0.00  0.00    +0.000 A 
ATOM      3  C   UNL     1       4.462   4.032  17.159  0.00  0.00    +0.000 A 
ATOM      4  S   UNL     1       3.013   3.670  18.061  0.00  0.00    +0.000 S 
ATOM      5  C   UNL     1       3.827   4.025  19.528  0.00  0.00    +0.000 A 
ATOM      6  C   UNL     1       5.138   4.398  19.361  0.00  0.00    +0.000 A 
ATOM      7  C   UNL     1       5.495   4.390  17.979  0.00  0.00    +0.000 A 
ATOM      8  S   UNL     1       6.945   4.738  17.086  0.00  0.00    +0.000 S 
ENDROOT
BRANCH   1  10
ATOM      9  N   UNL     1       7.857   5.540  14.321  0.00  0.00    +0.000 N 
ATOM     10  C   UNL     1       6.822   4.597  14.320  0.00  0.00    +0.000 C 
ATOM     11  O   UNL     1       6.512   3.974  13.304  0.00  0.00    +0.000 OA
ATOM     12  H   UNL     1       8.141   5.935  15.211  0.00  0.00    +0.000 HD
BRANCH   9  13
ATOM     13  N   UNL     1       8.650   5.755  13.178  0.00  0.00    +0.000 NA
ATOM     14  H   UNL     1       8.545   4.959  12.546  0.00  0.00    +0.000 HD
ATOM     15  H   UNL     1       9.635   5.744  13.475  0.00  0.00    +0.000 HD
ENDBRANCH   9  13
ENDBRANCH   1  10
TORSDOF 2
ENDMDL
MODEL 8
REMARK VINA RESULT:      -5.5      1.479      1.935
REMARK  Name = 
REMARK  2 active torsions:
REMARK  status: ('A' for Active; 'I' for Inactive)
REMARK    1  A    between atoms: N_1  and  N_2
REMARK    2  A    between atoms: C_3  and  C_5
REMARK                            x       y       z     vdW  Elec       q    Type
REMARK                         _______ _______ _______ _____ _____    ______ ____
ROOT
ATOM      1  C   UNL     1       5.006   4.455  18.132  0.00  0.00    +0.000 A 
ATOM      2  C   UNL     1       4.493   5.078  19.255  0.00  0.00    +0.000 A 
ATOM      3  C   UNL     1       3.184   4.597  19.564  0.00  0.00    +0.000 A 
ATOM      4  S   UNL     1       2.004   4.927  20.806  0.00  0.00    +0.000 S 
ATOM      5  C   UNL     1       0.948   3.760  20.126  0.00  0.00    +0.000 A 
ATOM      6  C   UNL     1       1.448   3.143  19.005  0.00  0.00    +0.000 A 
ATOM      7  C   UNL     1       2.746   3.645  18.687  0.00  0.00    +0.000 A 
ATOM      8  S   UNL     1       3.912   3.323  17.439  0.00  0.00    +0.000 S 
ENDROOT
BRANCH   1  10
ATOM      9  N   UNL     1       6.333   5.156  16.240  0.00  0.00    +0.000 N 
ATOM     10  C   UNL     1       6.331   4.672  17.554  0.00  0.00    +0.000 C 
ATOM     11  O   UNL     1       7.376   4.431  18.159  0.00  0.00    +0.000 OA
ATOM     12  H   UNL     1       5.448   5.444  15.838  0.00  0.00    +0.000 HD
BRANCH   9  13
ATOM     13  N   UNL     1       7.536   5.475  15.581  0.00  0.00    +0.000 NA
ATOM     14  H   UNL     1       8.204   4.716  15.725  0.00  0.00    +0.000 HD
ATOM     15  H   UNL     1       7.942   6.294  16.054  0.00  0.00    +0.000 HD
ENDBRANCH   9  13
ENDBRANCH   1  10
TORSDOF 2
ENDMDL
MODEL 9
REMARK VINA RESULT:      -5.5      1.528      1.603
REMARK  Name = 
REMARK  2 active torsions:
REMARK  status: ('A' for Active; 'I' for Inactive)
REMARK    1  A    between atoms: N_1  and  N_2
REMARK    2  A    between atoms: C_3  and  C_5
REMARK                            x       y       z     vdW  Elec       q    Type
REMARK                         _______ _______ _______ _____ _____    ______ ____
ROOT
ATOM      1  C   UNL     1       5.777   5.416  16.989  0.00  0.00    +0.000 A 
ATOM      2  C   UNL     1       4.884   6.459  16.825  0.00  0.00    +0.000 A 
ATOM      3  C   UNL     1       3.922   6.489  17.879  0.00  0.00    +0.000 A 
ATOM      4  S   UNL     1       2.565   7.506  18.290  0.00  0.00    +0.000 S 
ATOM      5  C   UNL     1       2.278   6.572  19.698  0.00  0.00    +0.000 A 
ATOM      6  C   UNL     1       3.157   5.529  19.863  0.00  0.00    +0.000 A 
ATOM      7  C   UNL     1       4.102   5.490  18.794  0.00  0.00    +0.000 A 
ATOM      8  S   UNL     1       5.443   4.464  18.382  0.00  0.00    +0.000 S 
ENDROOT
BRANCH   1  10
ATOM      9  N   UNL     1       6.807   5.587  14.811  0.00  0.00    +0.000 N 
ATOM     10  C   UNL     1       6.915   5.110  16.124  0.00  0.00    +0.000 C 
ATOM     11  O   UNL     1       7.894   4.465  16.502  0.00  0.00    +0.000 OA
ATOM     12  H   UNL     1       6.037   6.208  14.592  0.00  0.00    +0.000 HD
BRANCH   9  13
ATOM     13  N   UNL     1       7.858   5.425  13.887  0.00  0.00    +0.000 NA
ATOM     14  H   UNL     1       8.708   5.839  14.275  0.00  0.00    +0.000 HD
ATOM     15  H   UNL     1       7.631   5.988  13.056  0.00  0.00    +0.000 HD
ENDBRANCH   9  13
ENDBRANCH   1  10
TORSDOF 2
ENDMDL
