MODEL 1
REMARK VINA RESULT:      -6.6      0.000      0.000
REMARK  Name = 
REMARK  8 active torsions:
REMARK  status: ('A' for Active; 'I' for Inactive)
REMARK    1  A    between atoms: C_2  and  C_3
REMARK    2  A    between atoms: C_3  and  O_4
REMARK    3  A    between atoms: O_4  and  C_5
REMARK    4  A    between atoms: C_6  and  C_7
REMARK    5  A    between atoms: C_7  and  N_8
REMARK    6  A    between atoms: C_17  and  O_18
REMARK    7  A    between atoms: O_18  and  C_19
REMARK    8  A    between atoms: C_19  and  C_20
REMARK                            x       y       z     vdW  Elec       q    Type
REMARK                         _______ _______ _______ _____ _____    ______ ____
ROOT
ATOM      1  C   UNL     1       2.198   6.774  19.713  0.00  0.00    +0.000 A 
ATOM      2  C   UNL     1       2.799   6.808  18.429  0.00  0.00    +0.000 A 
ATOM      3  C   UNL     1       2.757   8.010  17.692  0.00  0.00    +0.000 A 
ATOM      4  C   UNL     1       2.121   9.143  18.180  0.00  0.00    +0.000 A 
ATOM      5  C   UNL     1       1.498   9.093  19.417  0.00  0.00    +0.000 A 
ATOM      6  C   UNL     1       1.505   7.918  20.182  0.00  0.00    +0.000 A 
ENDROOT
BRANCH   1   7
ATOM      7  O   UNL     1       2.126   5.634  20.472  0.00  0.00    +0.000 OA
BRANCH   7   8
ATOM      8  C   UNL     1       0.998   4.780  20.253  0.00  0.00    +0.000 C 
BRANCH   8  10
ATOM      9  C   UNL     1       2.276   3.268  21.831  0.00  0.00    +0.000 C 
ATOM     10  C   UNL     1       1.298   3.473  20.937  0.00  0.00    +0.000 C 
ENDBRANCH   8  10
ENDBRANCH   7   8
ENDBRANCH   1   7
BRANCH   2  11
ATOM     11  C   UNL     1       3.426   5.623  17.713  0.00  0.00    +0.000 C 
BRANCH  11  12
ATOM     12  N   UNL     1       4.414   4.917  18.499  0.00  0.00    +0.000 N 
ATOM     13  C   UNL     1       4.363   3.615  18.790  0.00  0.00    +0.000 A 
ATOM     14  N   UNL     1       3.487   2.767  18.178  0.00  0.00    +0.000 NA
ATOM     15  C   UNL     1       3.790   1.596  18.687  0.00  0.00    +0.000 A 
ATOM     16  N   UNL     1       4.778   1.750  19.598  0.00  0.00    +0.000 N 
ATOM     17  N   UNL     1       5.154   3.030  19.690  0.00  0.00    +0.000 NA
ATOM     18  H   UNL     1       4.955   5.489  19.134  0.00  0.00    +0.000 HD
ATOM     19  H   UNL     1       5.241   1.051  20.172  0.00  0.00    +0.000 HD
ENDBRANCH  11  12
ENDBRANCH   2  11
BRANCH   6  20
ATOM     20  O   UNL     1       0.806   8.085  21.352  0.00  0.00    +0.000 OA
BRANCH  20  21
ATOM     21  C   UNL     1       1.176   9.130  22.241  0.00  0.00    +0.000 C 
ATOM     22  C   UNL     1      -0.040   9.475  23.093  0.00  0.00    +0.000 C 
ENDBRANCH  20  21
ENDBRANCH   6  20
TORSDOF 7
ENDMDL
MODEL 2
REMARK VINA RESULT:      -6.6      3.424      5.476
REMARK  Name = 
REMARK  8 active torsions:
REMARK  status: ('A' for Active; 'I' for Inactive)
REMARK    1  A    between atoms: C_2  and  C_3
REMARK    2  A    between atoms: C_3  and  O_4
REMARK    3  A    between atoms: O_4  and  C_5
REMARK    4  A    between atoms: C_6  and  C_7
REMARK    5  A    between atoms: C_7  and  N_8
REMARK    6  A    between atoms: C_17  and  O_18
REMARK    7  A    between atoms: O_18  and  C_19
REMARK    8  A    between atoms: C_19  and  C_20
REMARK                            x       y       z     vdW  Elec       q    Type
REMARK                         _______ _______ _______ _____ _____    ______ ____
ROOT
ATOM      1  C   UNL     1       5.280   5.058  17.062  0.00  0.00    +0.000 A 
ATOM      2  C   UNL     1       4.048   4.515  17.508  0.00  0.00    +0.000 A 
ATOM      3  C   UNL     1       3.010   5.398  17.871  0.00  0.00    +0.000 A 
ATOM      4  C   UNL     1       3.175   6.775  17.829  0.00  0.00    +0.000 A 
ATOM      5  C   UNL     1       4.394   7.301  17.433  0.00  0.00    +0.000 A 
ATOM      6  C   UNL     1       5.459   6.464  17.072  0.00  0.00    +0.000 A 
ENDROOT
BRANCH   1   7
ATOM      7  O   UNL     1       6.368   4.282  16.756  0.00  0.00    +0.000 OA
BRANCH   7   8
ATOM      8  C   UNL     1       6.946   4.460  15.457  0.00  0.00    +0.000 C 
BRANCH   8  10
ATOM      9  C   UNL     1       6.195   3.759  13.143  0.00  0.00    +0.000 C 
ATOM     10  C   UNL     1       6.030   3.783  14.474  0.00  0.00    +0.000 C 
ENDBRANCH   8  10
ENDBRANCH   7   8
ENDBRANCH   1   7
BRANCH   2  11
ATOM     11  C   UNL     1       3.756   3.039  17.721  0.00  0.00    +0.000 C 
BRANCH  11  12
ATOM     12  N   UNL     1       4.037   2.571  19.059  0.00  0.00    +0.000 N 
ATOM     13  C   UNL     1       3.170   2.605  20.075  0.00  0.00    +0.000 A 
ATOM     14  N   UNL     1       1.846   2.876  19.890  0.00  0.00    +0.000 NA
ATOM     15  C   UNL     1       1.339   2.757  21.094  0.00  0.00    +0.000 A 
ATOM     16  N   UNL     1       2.332   2.469  21.967  0.00  0.00    +0.000 N 
ATOM     17  N   UNL     1       3.511   2.377  21.343  0.00  0.00    +0.000 NA
ATOM     18  H   UNL     1       5.015   2.552  19.318  0.00  0.00    +0.000 HD
ATOM     19  H   UNL     1       2.284   2.316  22.970  0.00  0.00    +0.000 HD
ENDBRANCH  11  12
ENDBRANCH   2  11
BRANCH   6  20
ATOM     20  O   UNL     1       6.575   7.194  16.745  0.00  0.00    +0.000 OA
BRANCH  20  21
ATOM     21  C   UNL     1       7.633   7.308  17.688  0.00  0.00    +0.000 C 
ATOM     22  C   UNL     1       8.025   8.778  17.778  0.00  0.00    +0.000 C 
ENDBRANCH  20  21
ENDBRANCH   6  20
TORSDOF 7
ENDMDL
MODEL 3
REMARK VINA RESULT:      -6.5      3.424      4.772
REMARK  Name = 
REMARK  8 active torsions:
REMARK  status: ('A' for Active; 'I' for Inactive)
REMARK    1  A    between atoms: C_2  and  C_3
REMARK    2  A    between atoms: C_3  and  O_4
REMARK    3  A    between atoms: O_4  and  C_5
REMARK    4  A    between atoms: C_6  and  C_7
REMARK    5  A    between atoms: C_7  and  N_8
REMARK    6  A    between atoms: C_17  and  O_18
REMARK    7  A    between atoms: O_18  and  C_19
REMARK    8  A    between atoms: C_19  and  C_20
REMARK                            x       y       z     vdW  Elec       q    Type
REMARK                         _______ _______ _______ _____ _____    ______ ____
ROOT
ATOM      1  C   UNL     1       4.824   4.680  18.776  0.00  0.00    +0.000 A 
ATOM      2  C   UNL     1       5.377   5.128  17.549  0.00  0.00    +0.000 A 
ATOM      3  C   UNL     1       4.859   6.300  16.961  0.00  0.00    +0.000 A 
ATOM      4  C   UNL     1       3.810   7.003  17.535  0.00  0.00    +0.000 A 
ATOM      5  C   UNL     1       3.243   6.537  18.711  0.00  0.00    +0.000 A 
ATOM      6  C   UNL     1       3.718   5.371  19.329  0.00  0.00    +0.000 A 
ENDROOT
BRANCH   1   7
ATOM      7  O   UNL     1       5.212   3.515  19.386  0.00  0.00    +0.000 OA
BRANCH   7   8
ATOM      8  C   UNL     1       4.210   2.505  19.554  0.00  0.00    +0.000 C 
BRANCH   8  10
ATOM      9  C   UNL     1       2.542   2.196  17.674  0.00  0.00    +0.000 C 
ATOM     10  C   UNL     1       3.780   2.081  18.175  0.00  0.00    +0.000 C 
ENDBRANCH   8  10
ENDBRANCH   7   8
ENDBRANCH   1   7
BRANCH   2  11
ATOM     11  C   UNL     1       6.443   4.407  16.742  0.00  0.00    +0.000 C 
BRANCH  11  12
ATOM     12  N   UNL     1       7.075   5.229  15.735  0.00  0.00    +0.000 N 
ATOM     13  C   UNL     1       7.139   4.925  14.435  0.00  0.00    +0.000 A 
ATOM     14  N   UNL     1       6.408   3.911  13.891  0.00  0.00    +0.000 NA
ATOM     15  C   UNL     1       6.702   3.975  12.613  0.00  0.00    +0.000 A 
ATOM     16  N   UNL     1       7.605   4.962  12.415  0.00  0.00    +0.000 N 
ATOM     17  N   UNL     1       7.909   5.576  13.563  0.00  0.00    +0.000 NA
ATOM     18  H   UNL     1       7.788   5.861  16.073  0.00  0.00    +0.000 HD
ATOM     19  H   UNL     1       8.041   5.273  11.551  0.00  0.00    +0.000 HD
ENDBRANCH  11  12
ENDBRANCH   2  11
BRANCH   6  20
ATOM     20  O   UNL     1       2.994   5.080  20.459  0.00  0.00    +0.000 OA
BRANCH  20  21
ATOM     21  C   UNL     1       1.575   5.136  20.411  0.00  0.00    +0.000 C 
ATOM     22  C   UNL     1       1.041   3.730  20.652  0.00  0.00    +0.000 C 
ENDBRANCH  20  21
ENDBRANCH   6  20
TORSDOF 7
ENDMDL
MODEL 4
REMARK VINA RESULT:      -6.5      1.569      1.899
REMARK  Name = 
REMARK  8 active torsions:
REMARK  status: ('A' for Active; 'I' for Inactive)
REMARK    1  A    between atoms: C_2  and  C_3
REMARK    2  A    between atoms: C_3  and  O_4
REMARK    3  A    between atoms: O_4  and  C_5
REMARK    4  A    between atoms: C_6  and  C_7
REMARK    5  A    between atoms: C_7  and  N_8
REMARK    6  A    between atoms: C_17  and  O_18
REMARK    7  A    between atoms: O_18  and  C_19
REMARK    8  A    between atoms: C_19  and  C_20
REMARK                            x       y       z     vdW  Elec       q    Type
REMARK                         _______ _______ _______ _____ _____    ______ ____
ROOT
ATOM      1  C   UNL     1       2.218   7.187  19.869  0.00  0.00    +0.000 A 
ATOM      2  C   UNL     1       2.706   7.170  18.537  0.00  0.00    +0.000 A 
ATOM      3  C   UNL     1       2.425   8.268  17.699  0.00  0.00    +0.000 A 
ATOM      4  C   UNL     1       1.667   9.345  18.135  0.00  0.00    +0.000 A 
ATOM      5  C   UNL     1       1.157   9.338  19.424  0.00  0.00    +0.000 A 
ATOM      6  C   UNL     1       1.399   8.264  20.291  0.00  0.00    +0.000 A 
ENDROOT
BRANCH   1   7
ATOM      7  O   UNL     1       2.378   6.135  20.735  0.00  0.00    +0.000 OA
BRANCH   7   8
ATOM      8  C   UNL     1       1.460   5.044  20.605  0.00  0.00    +0.000 C 
BRANCH   8  10
ATOM      9  C   UNL     1       1.509   2.703  21.570  0.00  0.00    +0.000 C 
ATOM     10  C   UNL     1       2.128   3.835  21.202  0.00  0.00    +0.000 C 
ENDBRANCH   8  10
ENDBRANCH   7   8
ENDBRANCH   1   7
BRANCH   2  11
ATOM     11  C   UNL     1       3.446   6.017  17.880  0.00  0.00    +0.000 C 
BRANCH  11  12
ATOM     12  N   UNL     1       4.572   5.529  18.646  0.00  0.00    +0.000 N 
ATOM     13  C   UNL     1       5.713   5.080  18.117  0.00  0.00    +0.000 A 
ATOM     14  N   UNL     1       6.020   5.253  16.799  0.00  0.00    +0.000 NA
ATOM     15  C   UNL     1       7.222   4.735  16.695  0.00  0.00    +0.000 A 
ATOM     16  N   UNL     1       7.595   4.236  17.896  0.00  0.00    +0.000 N 
ATOM     17  N   UNL     1       6.646   4.434  18.817  0.00  0.00    +0.000 NA
ATOM     18  H   UNL     1       4.353   5.188  19.572  0.00  0.00    +0.000 HD
ATOM     19  H   UNL     1       8.458   3.770  18.160  0.00  0.00    +0.000 HD
ENDBRANCH  11  12
ENDBRANCH   2  11
BRANCH   6  20
ATOM     20  O   UNL     1       0.776   8.453  21.500  0.00  0.00    +0.000 OA
BRANCH  20  21
ATOM     21  C   UNL     1       0.510   9.776  21.947  0.00  0.00    +0.000 C 
ATOM     22  C   UNL     1      -0.394   9.685  23.170  0.00  0.00    +0.000 C 
ENDBRANCH  20  21
ENDBRANCH   6  20
TORSDOF 7
ENDMDL
MODEL 5
REMARK VINA RESULT:      -6.4      0.922      1.230
REMARK  Name = 
REMARK  8 active torsions:
REMARK  status: ('A' for Active; 'I' for Inactive)
REMARK    1  A    between atoms: C_2  and  C_3
REMARK    2  A    between atoms: C_3  and  O_4
REMARK    3  A    between atoms: O_4  and  C_5
REMARK    4  A    between atoms: C_6  and  C_7
REMARK    5  A    between atoms: C_7  and  N_8
REMARK    6  A    between atoms: C_17  and  O_18
REMARK    7  A    between atoms: O_18  and  C_19
REMARK    8  A    between atoms: C_19  and  C_20
REMARK                            x       y       z     vdW  Elec       q    Type
REMARK                         _______ _______ _______ _____ _____    ______ ____
ROOT
ATOM      1  C   UNL     1       2.458   6.899  19.699  0.00  0.00    +0.000 A 
ATOM      2  C   UNL     1       2.878   6.915  18.344  0.00  0.00    +0.000 A 
ATOM      3  C   UNL     1       2.576   8.044  17.555  0.00  0.00    +0.000 A 
ATOM      4  C   UNL     1       1.860   9.119  18.062  0.00  0.00    +0.000 A 
ATOM      5  C   UNL     1       1.415   9.080  19.375  0.00  0.00    +0.000 A 
ATOM      6  C   UNL     1       1.681   7.975  20.195  0.00  0.00    +0.000 A 
ENDROOT
BRANCH   1   7
ATOM      7  O   UNL     1       2.643   5.818  20.523  0.00  0.00    +0.000 OA
BRANCH   7   8
ATOM      8  C   UNL     1       1.511   4.966  20.737  0.00  0.00    +0.000 C 
BRANCH   8  10
ATOM      9  C   UNL     1       1.448   2.558  21.518  0.00  0.00    +0.000 C 
ATOM     10  C   UNL     1       1.997   3.782  21.529  0.00  0.00    +0.000 C 
ENDBRANCH   8  10
ENDBRANCH   7   8
ENDBRANCH   1   7
BRANCH   2  11
ATOM     11  C   UNL     1       3.564   5.771  17.616  0.00  0.00    +0.000 C 
BRANCH  11  12
ATOM     12  N   UNL     1       2.753   4.581  17.494  0.00  0.00    +0.000 N 
ATOM     13  C   UNL     1       3.097   3.376  17.956  0.00  0.00    +0.000 A 
ATOM     14  N   UNL     1       4.156   3.196  18.798  0.00  0.00    +0.000 NA
ATOM     15  C   UNL     1       4.123   1.911  19.060  0.00  0.00    +0.000 A 
ATOM     16  N   UNL     1       3.110   1.343  18.366  0.00  0.00    +0.000 N 
ATOM     17  N   UNL     1       2.447   2.254  17.646  0.00  0.00    +0.000 NA
ATOM     18  H   UNL     1       2.083   4.586  16.736  0.00  0.00    +0.000 HD
ATOM     19  H   UNL     1       2.812   0.372  18.340  0.00  0.00    +0.000 HD
ENDBRANCH  11  12
ENDBRANCH   2  11
BRANCH   6  20
ATOM     20  O   UNL     1       1.123   8.136  21.439  0.00  0.00    +0.000 OA
BRANCH  20  21
ATOM     21  C   UNL     1      -0.174   8.706  21.552  0.00  0.00    +0.000 C 
ATOM     22  C   UNL     1      -0.249   9.443  22.884  0.00  0.00    +0.000 C 
ENDBRANCH  20  21
ENDBRANCH   6  20
TORSDOF 7
ENDMDL
MODEL 6
REMARK VINA RESULT:      -6.4      3.559      5.045
REMARK  Name = 
REMARK  8 active torsions:
REMARK  status: ('A' for Active; 'I' for Inactive)
REMARK    1  A    between atoms: C_2  and  C_3
REMARK    2  A    between atoms: C_3  and  O_4
REMARK    3  A    between atoms: O_4  and  C_5
REMARK    4  A    between atoms: C_6  and  C_7
REMARK    5  A    between atoms: C_7  and  N_8
REMARK    6  A    between atoms: C_17  and  O_18
REMARK    7  A    between atoms: O_18  and  C_19
REMARK    8  A    between atoms: C_19  and  C_20
REMARK                            x       y       z     vdW  Elec       q    Type
REMARK                         _______ _______ _______ _____ _____    ______ ____
ROOT
ATOM      1  C   UNL     1       4.087   5.119  18.113  0.00  0.00    +0.000 A 
ATOM      2  C   UNL     1       4.030   4.052  17.179  0.00  0.00    +0.000 A 
ATOM      3  C   UNL     1       2.832   3.319  17.060  0.00  0.00    +0.000 A 
ATOM      4  C   UNL     1       1.724   3.597  17.849  0.00  0.00    +0.000 A 
ATOM      5  C   UNL     1       1.798   4.613  18.789  0.00  0.00    +0.000 A 
ATOM      6  C   UNL     1       2.971   5.363  18.952  0.00  0.00    +0.000 A 
ENDROOT
BRANCH   1   7
ATOM      7  O   UNL     1       5.228   5.842  18.350  0.00  0.00    +0.000 OA
BRANCH   7   8
ATOM      8  C   UNL     1       6.160   5.291  19.288  0.00  0.00    +0.000 C 
BRANCH   8  10
ATOM      9  C   UNL     1       7.727   6.873  18.083  0.00  0.00    +0.000 C 
ATOM     10  C   UNL     1       7.483   5.964  19.039  0.00  0.00    +0.000 C 
ENDBRANCH   8  10
ENDBRANCH   7   8
ENDBRANCH   1   7
BRANCH   2  11
ATOM     11  C   UNL     1       5.190   3.554  16.333  0.00  0.00    +0.000 C 
BRANCH  11  12
ATOM     12  N   UNL     1       6.083   4.599  15.886  0.00  0.00    +0.000 N 
ATOM     13  C   UNL     1       6.643   4.653  14.674  0.00  0.00    +0.000 A 
ATOM     14  N   UNL     1       6.242   3.843  13.653  0.00  0.00    +0.000 NA
ATOM     15  C   UNL     1       6.978   4.240  12.641  0.00  0.00    +0.000 A 
ATOM     16  N   UNL     1       7.814   5.219  13.059  0.00  0.00    +0.000 N 
ATOM     17  N   UNL     1       7.627   5.494  14.354  0.00  0.00    +0.000 NA
ATOM     18  H   UNL     1       6.572   5.097  16.618  0.00  0.00    +0.000 HD
ATOM     19  H   UNL     1       8.511   5.739  12.533  0.00  0.00    +0.000 HD
ENDBRANCH  11  12
ENDBRANCH   2  11
BRANCH   6  20
ATOM     20  O   UNL     1       2.831   6.290  19.955  0.00  0.00    +0.000 OA
BRANCH  20  21
ATOM     21  C   UNL     1       2.206   7.535  19.670  0.00  0.00    +0.000 C 
ATOM     22  C   UNL     1       1.409   7.951  20.900  0.00  0.00    +0.000 C 
ENDBRANCH  20  21
ENDBRANCH   6  20
TORSDOF 7
ENDMDL
MODEL 7
REMARK VINA RESULT:      -6.3      2.096      2.664
REMARK  Name = 
REMARK  8 active torsions:
REMARK  status: ('A' for Active; 'I' for Inactive)
REMARK    1  A    between atoms: C_2  and  C_3
REMARK    2  A    between atoms: C_3  and  O_4
REMARK    3  A    between atoms: O_4  and  C_5
REMARK    4  A    between atoms: C_6  and  C_7
REMARK    5  A    between atoms: C_7  and  N_8
REMARK    6  A    between atoms: C_17  and  O_18
REMARK    7  A    between atoms: O_18  and  C_19
REMARK    8  A    between atoms: C_19  and  C_20
REMARK                            x       y       z     vdW  Elec       q    Type
REMARK                         _______ _______ _______ _____ _____    ______ ____
ROOT
ATOM      1  C   UNL     1       2.518   6.807  19.529  0.00  0.00    +0.000 A 
ATOM      2  C   UNL     1       3.082   6.972  18.237  0.00  0.00    +0.000 A 
ATOM      3  C   UNL     1       2.835   8.171  17.539  0.00  0.00    +0.000 A 
ATOM      4  C   UNL     1       2.038   9.175  18.069  0.00  0.00    +0.000 A 
ATOM      5  C   UNL     1       1.454   8.992  19.313  0.00  0.00    +0.000 A 
ATOM      6  C   UNL     1       1.661   7.812  20.041  0.00  0.00    +0.000 A 
ENDROOT
BRANCH   1   7
ATOM      7  O   UNL     1       2.642   5.650  20.254  0.00  0.00    +0.000 OA
BRANCH   7   8
ATOM      8  C   UNL     1       1.705   4.603  19.970  0.00  0.00    +0.000 C 
BRANCH   8  10
ATOM      9  C   UNL     1       2.443   2.741  21.518  0.00  0.00    +0.000 C 
ATOM     10  C   UNL     1       1.616   3.749  21.205  0.00  0.00    +0.000 C 
ENDBRANCH   8  10
ENDBRANCH   7   8
ENDBRANCH   1   7
BRANCH   2  11
ATOM     11  C   UNL     1       3.876   5.922  17.478  0.00  0.00    +0.000 C 
BRANCH  11  12
ATOM     12  N   UNL     1       5.231   6.320  17.168  0.00  0.00    +0.000 N 
ATOM     13  C   UNL     1       5.987   5.766  16.217  0.00  0.00    +0.000 A 
ATOM     14  N   UNL     1       5.471   4.917  15.282  0.00  0.00    +0.000 NA
ATOM     15  C   UNL     1       6.500   4.648  14.513  0.00  0.00    +0.000 A 
ATOM     16  N   UNL     1       7.594   5.279  14.999  0.00  0.00    +0.000 N 
ATOM     17  N   UNL     1       7.296   5.990  16.091  0.00  0.00    +0.000 NA
ATOM     18  H   UNL     1       5.733   6.775  17.918  0.00  0.00    +0.000 HD
ATOM     19  H   UNL     1       8.547   5.281  14.647  0.00  0.00    +0.000 HD
ENDBRANCH  11  12
ENDBRANCH   2  11
BRANCH   6  20
ATOM     20  O   UNL     1       0.966   7.833  21.226  0.00  0.00    +0.000 OA
BRANCH  20  21
ATOM     21  C   UNL     1      -0.031   8.826  21.431  0.00  0.00    +0.000 C 
ATOM     22  C   UNL     1       0.118   9.353  22.852  0.00  0.00    +0.000 C 
ENDBRANCH  20  21
ENDBRANCH   6  20
TORSDOF 7
ENDMDL
MODEL 8
REMARK VINA RESULT:      -6.2      2.273      4.178
REMARK  Name = 
REMARK  8 active torsions:
REMARK  status: ('A' for Active; 'I' for Inactive)
REMARK    1  A    between atoms: C_2  and  C_3
REMARK    2  A    between atoms: C_3  and  O_4
REMARK    3  A    between atoms: O_4  and  C_5
REMARK    4  A    between atoms: C_6  and  C_7
REMARK    5  A    between atoms: C_7  and  N_8
REMARK    6  A    between atoms: C_17  and  O_18
REMARK    7  A    between atoms: O_18  and  C_19
REMARK    8  A    between atoms: C_19  and  C_20
REMARK                            x       y       z     vdW  Elec       q    Type
REMARK                         _______ _______ _______ _____ _____    ______ ____
ROOT
ATOM      1  C   UNL     1       3.102   5.292  18.956  0.00  0.00    +0.000 A 
ATOM      2  C   UNL     1       3.087   3.951  18.491  0.00  0.00    +0.000 A 
ATOM      3  C   UNL     1       2.178   3.043  19.072  0.00  0.00    +0.000 A 
ATOM      4  C   UNL     1       1.324   3.421  20.098  0.00  0.00    +0.000 A 
ATOM      5  C   UNL     1       1.372   4.720  20.578  0.00  0.00    +0.000 A 
ATOM      6  C   UNL     1       2.266   5.657  20.040  0.00  0.00    +0.000 A 
ENDROOT
BRANCH   1   7
ATOM      7  O   UNL     1       3.997   6.227  18.503  0.00  0.00    +0.000 OA
BRANCH   7   8
ATOM      8  C   UNL     1       3.615   6.985  17.350  0.00  0.00    +0.000 C 
BRANCH   8  10
ATOM      9  C   UNL     1       1.768   8.680  17.708  0.00  0.00    +0.000 C 
ATOM     10  C   UNL     1       3.041   8.284  17.849  0.00  0.00    +0.000 C 
ENDBRANCH   8  10
ENDBRANCH   7   8
ENDBRANCH   1   7
BRANCH   2  11
ATOM     11  C   UNL     1       4.036   3.360  17.463  0.00  0.00    +0.000 C 
BRANCH  11  12
ATOM     12  N   UNL     1       5.379   3.893  17.527  0.00  0.00    +0.000 N 
ATOM     13  C   UNL     1       6.074   4.331  16.474  0.00  0.00    +0.000 A 
ATOM     14  N   UNL     1       5.495   4.534  15.256  0.00  0.00    +0.000 NA
ATOM     15  C   UNL     1       6.477   5.011  14.527  0.00  0.00    +0.000 A 
ATOM     16  N   UNL     1       7.605   5.048  15.273  0.00  0.00    +0.000 N 
ATOM     17  N   UNL     1       7.377   4.610  16.515  0.00  0.00    +0.000 NA
ATOM     18  H   UNL     1       5.928   3.595  18.322  0.00  0.00    +0.000 HD
ATOM     19  H   UNL     1       8.537   5.359  15.016  0.00  0.00    +0.000 HD
ENDBRANCH  11  12
ENDBRANCH   2  11
BRANCH   6  20
ATOM     20  O   UNL     1       2.164   6.866  20.684  0.00  0.00    +0.000 OA
BRANCH  20  21
ATOM     21  C   UNL     1       0.884   7.333  21.088  0.00  0.00    +0.000 C 
ATOM     22  C   UNL     1       1.017   8.805  21.457  0.00  0.00    +0.000 C 
ENDBRANCH  20  21
ENDBRANCH   6  20
TORSDOF 7
ENDMDL
MODEL 9
REMARK VINA RESULT:      -6.2      3.060      5.179
REMARK  Name = 
REMARK  8 active torsions:
REMARK  status: ('A' for Active; 'I' for Inactive)
REMARK    1  A    between atoms: C_2  and  C_3
REMARK    2  A    between atoms: C_3  and  O_4
REMARK    3  A    between atoms: O_4  and  C_5
REMARK    4  A    between atoms: C_6  and  C_7
REMARK    5  A    between atoms: C_7  and  N_8
REMARK    6  A    between atoms: C_17  and  O_18
REMARK    7  A    between atoms: O_18  and  C_19
REMARK    8  A    between atoms: C_19  and  C_20
REMARK                            x       y       z     vdW  Elec       q    Type
REMARK                         _______ _______ _______ _____ _____    ______ ____
ROOT
ATOM      1  C   UNL     1       4.747   5.830  17.437  0.00  0.00    +0.000 A 
ATOM      2  C   UNL     1       4.209   4.554  17.127  0.00  0.00    +0.000 A 
ATOM      3  C   UNL     1       4.954   3.689  16.299  0.00  0.00    +0.000 A 
ATOM      4  C   UNL     1       6.177   4.065  15.762  0.00  0.00    +0.000 A 
ATOM      5  C   UNL     1       6.678   5.328  16.034  0.00  0.00    +0.000 A 
ATOM      6  C   UNL     1       5.970   6.227  16.843  0.00  0.00    +0.000 A 
ENDROOT
BRANCH   1   7
ATOM      7  O   UNL     1       4.066   6.765  18.174  0.00  0.00    +0.000 OA
BRANCH   7   8
ATOM      8  C   UNL     1       3.300   7.732  17.445  0.00  0.00    +0.000 C 
BRANCH   8  10
ATOM      9  C   UNL     1       2.051   7.847  19.644  0.00  0.00    +0.000 C 
ATOM     10  C   UNL     1       2.195   8.193  18.356  0.00  0.00    +0.000 C 
ENDBRANCH   8  10
ENDBRANCH   7   8
ENDBRANCH   1   7
BRANCH   2  11
ATOM     11  C   UNL     1       2.838   4.047  17.539  0.00  0.00    +0.000 C 
BRANCH  11  12
ATOM     12  N   UNL     1       2.377   4.564  18.808  0.00  0.00    +0.000 N 
ATOM     13  C   UNL     1       2.407   3.889  19.960  0.00  0.00    +0.000 A 
ATOM     14  N   UNL     1       3.095   2.719  20.098  0.00  0.00    +0.000 NA
ATOM     15  C   UNL     1       2.928   2.414  21.364  0.00  0.00    +0.000 A 
ATOM     16  N   UNL     1       2.137   3.346  21.944  0.00  0.00    +0.000 N 
ATOM     17  N   UNL     1       1.783   4.291  21.067  0.00  0.00    +0.000 NA
ATOM     18  H   UNL     1       1.693   5.307  18.753  0.00  0.00    +0.000 HD
ATOM     19  H   UNL     1       1.812   3.408  22.904  0.00  0.00    +0.000 HD
ENDBRANCH  11  12
ENDBRANCH   2  11
BRANCH   6  20
ATOM     20  O   UNL     1       6.634   7.425  16.952  0.00  0.00    +0.000 OA
BRANCH  20  21
ATOM     21  C   UNL     1       7.745   7.527  17.833  0.00  0.00    +0.000 C 
ATOM     22  C   UNL     1       8.137   8.996  17.926  0.00  0.00    +0.000 C 
ENDBRANCH  20  21
ENDBRANCH   6  20
TORSDOF 7
ENDMDL
