MODEL 1
REMARK VINA RESULT:      -7.8      0.000      0.000
REMARK  Name = 
REMARK  6 active torsions:
REMARK  status: ('A' for Active; 'I' for Inactive)
REMARK    1  A    between atoms: C_1  and  O_2
REMARK    2  A    between atoms: O_2  and  C_3
REMARK    3  A    between atoms: C_6  and  C_7
REMARK    4  A    between atoms: C_7  and  C_8
REMARK    5  A    between atoms: C_13  and  C_14
REMARK    6  A    between atoms: N_17  and  C_18
REMARK                            x       y       z     vdW  Elec       q    Type
REMARK                         _______ _______ _______ _____ _____    ______ ____
ROOT
ATOM      1  C   UNL     1       2.530   4.748  19.582  0.00  0.00    +0.000 A 
ATOM      2  C   UNL     1       1.312   4.164  19.982  0.00  0.00    +0.000 A 
ATOM      3  C   UNL     1       0.817   3.025  19.349  0.00  0.00    +0.000 A 
ATOM      4  C   UNL     1       1.537   2.446  18.308  0.00  0.00    +0.000 A 
ATOM      5  C   UNL     1       2.757   3.001  17.908  0.00  0.00    +0.000 A 
ATOM      6  C   UNL     1       3.270   4.148  18.532  0.00  0.00    +0.000 A 
ENDROOT
BRANCH   6   7
ATOM      7  C   UNL     1       4.532   4.708  18.026  0.00  0.00    +0.000 C 
ATOM      8  C   UNL     1       5.684   4.486  18.672  0.00  0.00    +0.000 C 
ATOM      9  C   UNL     1       7.022   4.972  18.201  0.00  0.00    +0.000 C 
ATOM     10  N   UNL     1       7.036   5.904  17.080  0.00  0.00    +0.000 NA
ATOM     11  C   UNL     1       7.532   7.227  17.415  0.00  0.00    +0.000 C 
ATOM     12  C   UNL     1       5.872   5.894  16.196  0.00  0.00    +0.000 C 
ATOM     13  C   UNL     1       4.489   5.538  16.780  0.00  0.00    +0.000 C 
ENDBRANCH   6   7
BRANCH   1  14
ATOM     14  C   UNL     1       2.944   6.048  20.239  0.00  0.00    +0.000 C 
BRANCH  14  18
ATOM     15  C   UNL     1       0.842   9.623  18.952  0.00  0.00    +0.000 A 
ATOM     16  C   UNL     1       1.602   8.902  18.035  0.00  0.00    +0.000 A 
ATOM     17  C   UNL     1       2.272   7.743  18.427  0.00  0.00    +0.000 A 
ATOM     18  C   UNL     1       2.228   7.298  19.756  0.00  0.00    +0.000 A 
ATOM     19  C   UNL     1       1.484   8.051  20.678  0.00  0.00    +0.000 A 
ATOM     20  C   UNL     1       0.794   9.202  20.279  0.00  0.00    +0.000 A 
BRANCH  15  22
ATOM     21  C   UNL     1      -1.140  10.573  18.101  0.00  0.00    +0.000 C 
ATOM     22  O   UNL     1       0.229  10.738  18.452  0.00  0.00    +0.000 OA
ENDBRANCH  15  22
ENDBRANCH  14  18
ENDBRANCH   1  14
TORSDOF 4
ENDMDL
MODEL 2
REMARK VINA RESULT:      -7.8      0.208      1.045
REMARK  Name = 
REMARK  6 active torsions:
REMARK  status: ('A' for Active; 'I' for Inactive)
REMARK    1  A    between atoms: C_1  and  O_2
REMARK    2  A    between atoms: O_2  and  C_3
REMARK    3  A    between atoms: C_6  and  C_7
REMARK    4  A    between atoms: C_7  and  C_8
REMARK    5  A    between atoms: C_13  and  C_14
REMARK    6  A    between atoms: N_17  and  C_18
REMARK                            x       y       z     vdW  Elec       q    Type
REMARK                         _______ _______ _______ _____ _____    ______ ____
ROOT
ATOM      1  C   UNL     1       2.568   4.734  19.532  0.00  0.00    +0.000 A 
ATOM      2  C   UNL     1       1.345   4.146  19.909  0.00  0.00    +0.000 A 
ATOM      3  C   UNL     1       0.857   3.016  19.254  0.00  0.00    +0.000 A 
ATOM      4  C   UNL     1       1.588   2.451  18.214  0.00  0.00    +0.000 A 
ATOM      5  C   UNL     1       2.813   3.011  17.836  0.00  0.00    +0.000 A 
ATOM      6  C   UNL     1       3.321   4.148  18.482  0.00  0.00    +0.000 A 
ENDROOT
BRANCH   6   7
ATOM      7  C   UNL     1       4.589   4.714  18.000  0.00  0.00    +0.000 C 
ATOM      8  C   UNL     1       5.724   4.530  18.688  0.00  0.00    +0.000 C 
ATOM      9  C   UNL     1       7.068   5.023  18.245  0.00  0.00    +0.000 C 
ATOM     10  N   UNL     1       7.103   5.922  17.097  0.00  0.00    +0.000 NA
ATOM     11  C   UNL     1       7.567   7.262  17.409  0.00  0.00    +0.000 C 
ATOM     12  C   UNL     1       5.968   5.868  16.178  0.00  0.00    +0.000 C 
ATOM     13  C   UNL     1       4.573   5.506  16.729  0.00  0.00    +0.000 C 
ENDBRANCH   6   7
BRANCH   1  14
ATOM     14  C   UNL     1       2.976   6.025  20.212  0.00  0.00    +0.000 C 
BRANCH  14  18
ATOM     15  C   UNL     1       0.959   9.604  18.810  0.00  0.00    +0.000 A 
ATOM     16  C   UNL     1       0.824   9.213  20.138  0.00  0.00    +0.000 A 
ATOM     17  C   UNL     1       1.477   8.075  20.611  0.00  0.00    +0.000 A 
ATOM     18  C   UNL     1       2.251   7.278  19.754  0.00  0.00    +0.000 A 
ATOM     19  C   UNL     1       2.352   7.666  18.409  0.00  0.00    +0.000 A 
ATOM     20  C   UNL     1       1.715   8.820  17.941  0.00  0.00    +0.000 A 
BRANCH  15  22
ATOM     21  C   UNL     1      -1.064  10.809  18.935  0.00  0.00    +0.000 C 
ATOM     22  O   UNL     1       0.276  10.738  18.464  0.00  0.00    +0.000 OA
ENDBRANCH  15  22
ENDBRANCH  14  18
ENDBRANCH   1  14
TORSDOF 4
ENDMDL
MODEL 3
REMARK VINA RESULT:      -7.7      2.903      5.869
REMARK  Name = 
REMARK  6 active torsions:
REMARK  status: ('A' for Active; 'I' for Inactive)
REMARK    1  A    between atoms: C_1  and  O_2
REMARK    2  A    between atoms: O_2  and  C_3
REMARK    3  A    between atoms: C_6  and  C_7
REMARK    4  A    between atoms: C_7  and  C_8
REMARK    5  A    between atoms: C_13  and  C_14
REMARK    6  A    between atoms: N_17  and  C_18
REMARK                            x       y       z     vdW  Elec       q    Type
REMARK                         _______ _______ _______ _____ _____    ______ ____
ROOT
ATOM      1  C   UNL     1       3.432   4.597  19.742  0.00  0.00    +0.000 A 
ATOM      2  C   UNL     1       3.565   3.216  19.987  0.00  0.00    +0.000 A 
ATOM      3  C   UNL     1       2.467   2.441  20.356  0.00  0.00    +0.000 A 
ATOM      4  C   UNL     1       1.214   3.032  20.480  0.00  0.00    +0.000 A 
ATOM      5  C   UNL     1       1.058   4.399  20.224  0.00  0.00    +0.000 A 
ATOM      6  C   UNL     1       2.151   5.196  19.853  0.00  0.00    +0.000 A 
ENDROOT
BRANCH   6   7
ATOM      7  C   UNL     1       1.925   6.635  19.650  0.00  0.00    +0.000 C 
ATOM      8  C   UNL     1       1.544   7.416  20.670  0.00  0.00    +0.000 C 
ATOM      9  C   UNL     1       1.345   8.898  20.567  0.00  0.00    +0.000 C 
ATOM     10  N   UNL     1       1.379   9.485  19.233  0.00  0.00    +0.000 NA
ATOM     11  C   UNL     1       0.115  10.059  18.806  0.00  0.00    +0.000 C 
ATOM     12  C   UNL     1       2.089   8.736  18.198  0.00  0.00    +0.000 C 
ATOM     13  C   UNL     1       2.124   7.195  18.275  0.00  0.00    +0.000 C 
ENDBRANCH   6   7
BRANCH   1  14
ATOM     14  C   UNL     1       4.689   5.393  19.459  0.00  0.00    +0.000 C 
BRANCH  14  18
ATOM     15  C   UNL     1       6.612   4.759  15.619  0.00  0.00    +0.000 A 
ATOM     16  C   UNL     1       5.259   5.084  15.667  0.00  0.00    +0.000 A 
ATOM     17  C   UNL     1       4.628   5.307  16.890  0.00  0.00    +0.000 A 
ATOM     18  C   UNL     1       5.327   5.171  18.099  0.00  0.00    +0.000 A 
ATOM     19  C   UNL     1       6.682   4.811  18.038  0.00  0.00    +0.000 A 
ATOM     20  C   UNL     1       7.321   4.610  16.809  0.00  0.00    +0.000 A 
BRANCH  15  22
ATOM     21  C   UNL     1       6.260   3.895  13.454  0.00  0.00    +0.000 C 
ATOM     22  O   UNL     1       7.120   4.569  14.363  0.00  0.00    +0.000 OA
ENDBRANCH  15  22
ENDBRANCH  14  18
ENDBRANCH   1  14
TORSDOF 4
ENDMDL
MODEL 4
REMARK VINA RESULT:      -7.7      0.688      1.682
REMARK  Name = 
REMARK  6 active torsions:
REMARK  status: ('A' for Active; 'I' for Inactive)
REMARK    1  A    between atoms: C_1  and  O_2
REMARK    2  A    between atoms: O_2  and  C_3
REMARK    3  A    between atoms: C_6  and  C_7
REMARK    4  A    between atoms: C_7  and  C_8
REMARK    5  A    between atoms: C_13  and  C_14
REMARK    6  A    between atoms: N_17  and  C_18
REMARK                            x       y       z     vdW  Elec       q    Type
REMARK                         _______ _______ _______ _____ _____    ______ ____
ROOT
ATOM      1  C   UNL     1       2.475   4.842  19.588  0.00  0.00    +0.000 A 
ATOM      2  C   UNL     1       1.304   4.350  20.199  0.00  0.00    +0.000 A 
ATOM      3  C   UNL     1       0.674   3.200  19.728  0.00  0.00    +0.000 A 
ATOM      4  C   UNL     1       1.208   2.516  18.640  0.00  0.00    +0.000 A 
ATOM      5  C   UNL     1       2.379   2.979  18.030  0.00  0.00    +0.000 A 
ATOM      6  C   UNL     1       3.027   4.135  18.488  0.00  0.00    +0.000 A 
ENDROOT
BRANCH   6   7
ATOM      7  C   UNL     1       4.224   4.594  17.768  0.00  0.00    +0.000 C 
ATOM      8  C   UNL     1       4.118   5.452  16.745  0.00  0.00    +0.000 C 
ATOM      9  C   UNL     1       5.285   6.013  15.991  0.00  0.00    +0.000 C 
ATOM     10  N   UNL     1       6.596   5.437  16.265  0.00  0.00    +0.000 NA
ATOM     11  C   UNL     1       7.184   4.739  15.136  0.00  0.00    +0.000 C 
ATOM     12  C   UNL     1       6.768   4.767  17.553  0.00  0.00    +0.000 C 
ATOM     13  C   UNL     1       5.557   4.068  18.205  0.00  0.00    +0.000 C 
ENDBRANCH   6   7
BRANCH   1  14
ATOM     14  C   UNL     1       3.035   6.159  20.082  0.00  0.00    +0.000 C 
BRANCH  14  18
ATOM     15  C   UNL     1       0.764   9.704  19.023  0.00  0.00    +0.000 A 
ATOM     16  C   UNL     1       0.751   9.244  20.336  0.00  0.00    +0.000 A 
ATOM     17  C   UNL     1       1.487   8.116  20.699  0.00  0.00    +0.000 A 
ATOM     18  C   UNL     1       2.224   7.398  19.745  0.00  0.00    +0.000 A 
ATOM     19  C   UNL     1       2.203   7.854  18.418  0.00  0.00    +0.000 A 
ATOM     20  C   UNL     1       1.482   8.999  18.060  0.00  0.00    +0.000 A 
BRANCH  15  22
ATOM     21  C   UNL     1      -1.176  10.606  18.033  0.00  0.00    +0.000 C 
ATOM     22  O   UNL     1       0.009  10.820  18.789  0.00  0.00    +0.000 OA
ENDBRANCH  15  22
ENDBRANCH  14  18
ENDBRANCH   1  14
TORSDOF 4
ENDMDL
MODEL 5
REMARK VINA RESULT:      -7.6      0.836      1.408
REMARK  Name = 
REMARK  6 active torsions:
REMARK  status: ('A' for Active; 'I' for Inactive)
REMARK    1  A    between atoms: C_1  and  O_2
REMARK    2  A    between atoms: O_2  and  C_3
REMARK    3  A    between atoms: C_6  and  C_7
REMARK    4  A    between atoms: C_7  and  C_8
REMARK    5  A    between atoms: C_13  and  C_14
REMARK    6  A    between atoms: N_17  and  C_18
REMARK                            x       y       z     vdW  Elec       q    Type
REMARK                         _______ _______ _______ _____ _____    ______ ____
ROOT
ATOM      1  C   UNL     1       2.419   4.775  19.634  0.00  0.00    +0.000 A 
ATOM      2  C   UNL     1       1.241   4.272  20.220  0.00  0.00    +0.000 A 
ATOM      3  C   UNL     1       0.618   3.130  19.719  0.00  0.00    +0.000 A 
ATOM      4  C   UNL     1       1.169   2.466  18.627  0.00  0.00    +0.000 A 
ATOM      5  C   UNL     1       2.347   2.940  18.042  0.00  0.00    +0.000 A 
ATOM      6  C   UNL     1       2.987   4.089  18.530  0.00  0.00    +0.000 A 
ENDROOT
BRANCH   6   7
ATOM      7  C   UNL     1       4.194   4.561  17.835  0.00  0.00    +0.000 C 
ATOM      8  C   UNL     1       4.098   5.405  16.799  0.00  0.00    +0.000 C 
ATOM      9  C   UNL     1       5.274   5.979  16.067  0.00  0.00    +0.000 C 
ATOM     10  N   UNL     1       6.588   5.431  16.382  0.00  0.00    +0.000 NA
ATOM     11  C   UNL     1       7.218   4.731  15.277  0.00  0.00    +0.000 C 
ATOM     12  C   UNL     1       6.739   4.780  17.682  0.00  0.00    +0.000 C 
ATOM     13  C   UNL     1       5.525   4.066  18.312  0.00  0.00    +0.000 C 
ENDBRANCH   6   7
BRANCH   1  14
ATOM     14  C   UNL     1       2.971   6.084  20.159  0.00  0.00    +0.000 C 
BRANCH  14  18
ATOM     15  C   UNL     1       0.843   9.680  18.979  0.00  0.00    +0.000 A 
ATOM     16  C   UNL     1       1.598   8.986  18.038  0.00  0.00    +0.000 A 
ATOM     17  C   UNL     1       2.276   7.820  18.395  0.00  0.00    +0.000 A 
ATOM     18  C   UNL     1       2.245   7.342  19.713  0.00  0.00    +0.000 A 
ATOM     19  C   UNL     1       1.506   8.068  20.659  0.00  0.00    +0.000 A 
ATOM     20  C   UNL     1       0.808   9.225  20.295  0.00  0.00    +0.000 A 
BRANCH  15  22
ATOM     21  C   UNL     1       0.304  11.943  19.359  0.00  0.00    +0.000 C 
ATOM     22  O   UNL     1       0.220  10.804  18.511  0.00  0.00    +0.000 OA
ENDBRANCH  15  22
ENDBRANCH  14  18
ENDBRANCH   1  14
TORSDOF 4
ENDMDL
MODEL 6
REMARK VINA RESULT:      -7.6      1.891      4.498
REMARK  Name = 
REMARK  6 active torsions:
REMARK  status: ('A' for Active; 'I' for Inactive)
REMARK    1  A    between atoms: C_1  and  O_2
REMARK    2  A    between atoms: O_2  and  C_3
REMARK    3  A    between atoms: C_6  and  C_7
REMARK    4  A    between atoms: C_7  and  C_8
REMARK    5  A    between atoms: C_13  and  C_14
REMARK    6  A    between atoms: N_17  and  C_18
REMARK                            x       y       z     vdW  Elec       q    Type
REMARK                         _______ _______ _______ _____ _____    ______ ____
ROOT
ATOM      1  C   UNL     1       5.055   6.288  17.515  0.00  0.00    +0.000 A 
ATOM      2  C   UNL     1       6.081   7.236  17.339  0.00  0.00    +0.000 A 
ATOM      3  C   UNL     1       7.371   6.998  17.811  0.00  0.00    +0.000 A 
ATOM      4  C   UNL     1       7.658   5.802  18.462  0.00  0.00    +0.000 A 
ATOM      5  C   UNL     1       6.656   4.841  18.633  0.00  0.00    +0.000 A 
ATOM      6  C   UNL     1       5.352   5.063  18.166  0.00  0.00    +0.000 A 
ENDROOT
BRANCH   6   7
ATOM      7  C   UNL     1       4.336   4.032  18.425  0.00  0.00    +0.000 C 
ATOM      8  C   UNL     1       3.871   3.267  17.428  0.00  0.00    +0.000 C 
ATOM      9  C   UNL     1       2.878   2.159  17.608  0.00  0.00    +0.000 C 
ATOM     10  N   UNL     1       2.239   2.042  18.913  0.00  0.00    +0.000 NA
ATOM     11  C   UNL     1       0.808   2.287  18.897  0.00  0.00    +0.000 C 
ATOM     12  C   UNL     1       2.945   2.628  20.051  0.00  0.00    +0.000 C 
ATOM     13  C   UNL     1       3.832   3.870  19.826  0.00  0.00    +0.000 C 
ENDBRANCH   6   7
BRANCH   1  14
ATOM     14  C   UNL     1       3.655   6.667  17.079  0.00  0.00    +0.000 C 
BRANCH  14  18
ATOM     15  C   UNL     1       1.296   8.975  19.900  0.00  0.00    +0.000 A 
ATOM     16  C   UNL     1       1.811   7.739  20.281  0.00  0.00    +0.000 A 
ATOM     17  C   UNL     1       2.583   6.990  19.394  0.00  0.00    +0.000 A 
ATOM     18  C   UNL     1       2.828   7.444  18.089  0.00  0.00    +0.000 A 
ATOM     19  C   UNL     1       2.276   8.677  17.707  0.00  0.00    +0.000 A 
ATOM     20  C   UNL     1       1.520   9.438  18.606  0.00  0.00    +0.000 A 
BRANCH  15  22
ATOM     21  C   UNL     1       0.922   9.330  22.201  0.00  0.00    +0.000 C 
ATOM     22  O   UNL     1       0.559   9.618  20.856  0.00  0.00    +0.000 OA
ENDBRANCH  15  22
ENDBRANCH  14  18
ENDBRANCH   1  14
TORSDOF 4
ENDMDL
MODEL 7
REMARK VINA RESULT:      -7.5      2.899      5.870
REMARK  Name = 
REMARK  6 active torsions:
REMARK  status: ('A' for Active; 'I' for Inactive)
REMARK    1  A    between atoms: C_1  and  O_2
REMARK    2  A    between atoms: O_2  and  C_3
REMARK    3  A    between atoms: C_6  and  C_7
REMARK    4  A    between atoms: C_7  and  C_8
REMARK    5  A    between atoms: C_13  and  C_14
REMARK    6  A    between atoms: N_17  and  C_18
REMARK                            x       y       z     vdW  Elec       q    Type
REMARK                         _______ _______ _______ _____ _____    ______ ____
ROOT
ATOM      1  C   UNL     1       3.509   4.755  19.655  0.00  0.00    +0.000 A 
ATOM      2  C   UNL     1       3.705   3.371  19.831  0.00  0.00    +0.000 A 
ATOM      3  C   UNL     1       2.650   2.535  20.191  0.00  0.00    +0.000 A 
ATOM      4  C   UNL     1       1.378   3.068  20.375  0.00  0.00    +0.000 A 
ATOM      5  C   UNL     1       1.160   4.437  20.189  0.00  0.00    +0.000 A 
ATOM      6  C   UNL     1       2.209   5.295  19.828  0.00  0.00    +0.000 A 
ENDROOT
BRANCH   6   7
ATOM      7  C   UNL     1       1.920   6.731  19.700  0.00  0.00    +0.000 C 
ATOM      8  C   UNL     1       1.553   7.451  20.768  0.00  0.00    +0.000 C 
ATOM      9  C   UNL     1       1.292   8.927  20.741  0.00  0.00    +0.000 C 
ATOM     10  N   UNL     1       1.249   9.573  19.434  0.00  0.00    +0.000 NA
ATOM     11  C   UNL     1      -0.053  10.114  19.085  0.00  0.00    +0.000 C 
ATOM     12  C   UNL     1       1.943   8.899  18.339  0.00  0.00    +0.000 C 
ATOM     13  C   UNL     1       2.040   7.359  18.345  0.00  0.00    +0.000 C 
ENDBRANCH   6   7
BRANCH   1  14
ATOM     14  C   UNL     1       4.725   5.615  19.378  0.00  0.00    +0.000 C 
BRANCH  14  18
ATOM     15  C   UNL     1       6.464   5.170  15.425  0.00  0.00    +0.000 A 
ATOM     16  C   UNL     1       7.098   4.600  16.525  0.00  0.00    +0.000 A 
ATOM     17  C   UNL     1       6.546   4.719  17.800  0.00  0.00    +0.000 A 
ATOM     18  C   UNL     1       5.365   5.446  18.011  0.00  0.00    +0.000 A 
ATOM     19  C   UNL     1       4.753   6.044  16.899  0.00  0.00    +0.000 A 
ATOM     20  C   UNL     1       5.296   5.905  15.616  0.00  0.00    +0.000 A 
BRANCH  15  22
ATOM     21  C   UNL     1       6.507   4.010  13.374  0.00  0.00    +0.000 C 
ATOM     22  O   UNL     1       7.096   4.983  14.227  0.00  0.00    +0.000 OA
ENDBRANCH  15  22
ENDBRANCH  14  18
ENDBRANCH   1  14
TORSDOF 4
ENDMDL
MODEL 8
REMARK VINA RESULT:      -7.5      1.878      4.417
REMARK  Name = 
REMARK  6 active torsions:
REMARK  status: ('A' for Active; 'I' for Inactive)
REMARK    1  A    between atoms: C_1  and  O_2
REMARK    2  A    between atoms: O_2  and  C_3
REMARK    3  A    between atoms: C_6  and  C_7
REMARK    4  A    between atoms: C_7  and  C_8
REMARK    5  A    between atoms: C_13  and  C_14
REMARK    6  A    between atoms: N_17  and  C_18
REMARK                            x       y       z     vdW  Elec       q    Type
REMARK                         _______ _______ _______ _____ _____    ______ ____
ROOT
ATOM      1  C   UNL     1       5.072   6.333  17.467  0.00  0.00    +0.000 A 
ATOM      2  C   UNL     1       6.096   7.287  17.302  0.00  0.00    +0.000 A 
ATOM      3  C   UNL     1       7.383   7.053  17.784  0.00  0.00    +0.000 A 
ATOM      4  C   UNL     1       7.669   5.857  18.436  0.00  0.00    +0.000 A 
ATOM      5  C   UNL     1       6.670   4.891  18.595  0.00  0.00    +0.000 A 
ATOM      6  C   UNL     1       5.369   5.108  18.117  0.00  0.00    +0.000 A 
ENDROOT
BRANCH   6   7
ATOM      7  C   UNL     1       4.356   4.072  18.364  0.00  0.00    +0.000 C 
ATOM      8  C   UNL     1       3.809   3.395  17.345  0.00  0.00    +0.000 C 
ATOM      9  C   UNL     1       2.812   2.288  17.507  0.00  0.00    +0.000 C 
ATOM     10  N   UNL     1       2.263   2.074  18.841  0.00  0.00    +0.000 NA
ATOM     11  C   UNL     1       0.839   2.337  18.944  0.00  0.00    +0.000 C 
ATOM     12  C   UNL     1       3.056   2.559  19.969  0.00  0.00    +0.000 C 
ATOM     13  C   UNL     1       3.947   3.804  19.781  0.00  0.00    +0.000 C 
ENDBRANCH   6   7
BRANCH   1  14
ATOM     14  C   UNL     1       3.674   6.707  17.019  0.00  0.00    +0.000 C 
BRANCH  14  18
ATOM     15  C   UNL     1       1.292   8.868  19.934  0.00  0.00    +0.000 A 
ATOM     16  C   UNL     1       1.504   9.419  18.674  0.00  0.00    +0.000 A 
ATOM     17  C   UNL     1       2.254   8.732  17.719  0.00  0.00    +0.000 A 
ATOM     18  C   UNL     1       2.842   7.493  18.016  0.00  0.00    +0.000 A 
ATOM     19  C   UNL     1       2.646   6.964  19.302  0.00  0.00    +0.000 A 
ATOM     20  C   UNL     1       1.875   7.644  20.252  0.00  0.00    +0.000 A 
BRANCH  15  22
ATOM     21  C   UNL     1      -0.201   8.906  21.759  0.00  0.00    +0.000 C 
ATOM     22  O   UNL     1       0.538   9.631  20.783  0.00  0.00    +0.000 OA
ENDBRANCH  15  22
ENDBRANCH  14  18
ENDBRANCH   1  14
TORSDOF 4
ENDMDL
MODEL 9
REMARK VINA RESULT:      -7.4      1.337      1.982
REMARK  Name = 
REMARK  6 active torsions:
REMARK  status: ('A' for Active; 'I' for Inactive)
REMARK    1  A    between atoms: C_1  and  O_2
REMARK    2  A    between atoms: O_2  and  C_3
REMARK    3  A    between atoms: C_6  and  C_7
REMARK    4  A    between atoms: C_7  and  C_8
REMARK    5  A    between atoms: C_13  and  C_14
REMARK    6  A    between atoms: N_17  and  C_18
REMARK                            x       y       z     vdW  Elec       q    Type
REMARK                         _______ _______ _______ _____ _____    ______ ____
ROOT
ATOM      1  C   UNL     1       2.694   5.189  17.975  0.00  0.00    +0.000 A 
ATOM      2  C   UNL     1       1.466   4.501  18.031  0.00  0.00    +0.000 A 
ATOM      3  C   UNL     1       1.423   3.118  18.201  0.00  0.00    +0.000 A 
ATOM      4  C   UNL     1       2.608   2.400  18.324  0.00  0.00    +0.000 A 
ATOM      5  C   UNL     1       3.837   3.068  18.287  0.00  0.00    +0.000 A 
ATOM      6  C   UNL     1       3.901   4.458  18.117  0.00  0.00    +0.000 A 
ENDROOT
BRANCH   6   7
ATOM      7  C   UNL     1       5.227   5.088  18.036  0.00  0.00    +0.000 C 
ATOM      8  C   UNL     1       5.972   5.254  19.137  0.00  0.00    +0.000 C 
ATOM      9  C   UNL     1       7.353   5.836  19.140  0.00  0.00    +0.000 C 
ATOM     10  N   UNL     1       7.829   6.432  17.898  0.00  0.00    +0.000 NA
ATOM     11  C   UNL     1       8.056   7.864  17.977  0.00  0.00    +0.000 C 
ATOM     12  C   UNL     1       7.192   5.984  16.661  0.00  0.00    +0.000 C 
ATOM     13  C   UNL     1       5.713   5.545  16.694  0.00  0.00    +0.000 C 
ENDBRANCH   6   7
BRANCH   1  14
ATOM     14  C   UNL     1       2.664   6.673  17.674  0.00  0.00    +0.000 C 
BRANCH  14  18
ATOM     15  C   UNL     1       0.992   9.298  20.701  0.00  0.00    +0.000 A 
ATOM     16  C   UNL     1       1.468   8.042  21.065  0.00  0.00    +0.000 A 
ATOM     17  C   UNL     1       2.022   7.191  20.109  0.00  0.00    +0.000 A 
ATOM     18  C   UNL     1       2.079   7.563  18.757  0.00  0.00    +0.000 A 
ATOM     19  C   UNL     1       1.566   8.819  18.399  0.00  0.00    +0.000 A 
ATOM     20  C   UNL     1       1.030   9.681  19.362  0.00  0.00    +0.000 A 
BRANCH  15  22
ATOM     21  C   UNL     1      -0.334   9.329  22.650  0.00  0.00    +0.000 C 
ATOM     22  O   UNL     1       0.476  10.044  21.724  0.00  0.00    +0.000 OA
ENDBRANCH  15  22
ENDBRANCH  14  18
ENDBRANCH   1  14
TORSDOF 4
ENDMDL
