MODEL 1
REMARK VINA RESULT:      -9.1      0.000      0.000
REMARK  Name = 
REMARK  5 active torsions:
REMARK  status: ('A' for Active; 'I' for Inactive)
REMARK    1  A    between atoms: N_3  and  C_4
REMARK    2  A    between atoms: C_7  and  C_8
REMARK    3  A    between atoms: N_14  and  S_15
REMARK    4  A    between atoms: S_15  and  C_18
REMARK    5  A    between atoms: C_22  and  C_23
REMARK                            x       y       z     vdW  Elec       q    Type
REMARK                         _______ _______ _______ _____ _____    ______ ____
ROOT
ATOM      1  O   UNL     1       7.731   8.580  17.270  0.00  0.00    +0.000 OA
ATOM      2  C   UNL     1       8.168   8.111  18.306  0.00  0.00    +0.000 C 
ATOM      3  N   UNL     1       8.928   8.785  19.233  0.00  0.00    +0.000 N 
ATOM      4  N   UNL     1       7.975   6.770  18.611  0.00  0.00    +0.000 N 
ATOM      5  H   UNL     1       9.331   8.246  19.982  0.00  0.00    +0.000 HD
ATOM      6  H   UNL     1       8.371   6.320  19.425  0.00  0.00    +0.000 HD
ENDROOT
BRANCH   3   7
ATOM      7  C   UNL     1       9.271  10.156  19.166  0.00  0.00    +0.000 A 
ATOM      8  C   UNL     1       9.475  10.828  17.960  0.00  0.00    +0.000 A 
ATOM      9  C   UNL     1       9.827  12.178  17.936  0.00  0.00    +0.000 A 
ATOM     10  C   UNL     1       9.977  12.896  19.124  0.00  0.00    +0.000 A 
ATOM     11  C   UNL     1       9.766  12.227  20.339  0.00  0.00    +0.000 A 
ATOM     12  C   UNL     1       9.404  10.872  20.362  0.00  0.00    +0.000 A 
BRANCH  10  13
ATOM     13  C   UNL     1      10.341  14.360  19.088  0.00  0.00    +0.000 C 
ATOM     14  F   UNL     1      10.997  14.784  20.205  0.00  0.00    +0.000 F 
ATOM     15  F   UNL     1      11.154  14.667  18.041  0.00  0.00    +0.000 F 
ATOM     16  F   UNL     1       9.251  15.167  18.968  0.00  0.00    +0.000 F 
ENDBRANCH  10  13
ENDBRANCH   3   7
BRANCH   4  17
ATOM     17  S   UNL     1       7.231   5.709  17.555  0.00  0.00    +0.000 S 
ATOM     18  O   UNL     1       7.471   6.248  16.232  0.00  0.00    +0.000 OA
ATOM     19  O   UNL     1       7.621   4.359  17.894  0.00  0.00    +0.000 OA
BRANCH  17  20
ATOM     20  C   UNL     1       5.498   5.931  17.896  0.00  0.00    +0.000 A 
ATOM     21  C   UNL     1       4.823   6.994  17.288  0.00  0.00    +0.000 A 
ATOM     22  C   UNL     1       3.486   7.227  17.601  0.00  0.00    +0.000 A 
ATOM     23  C   UNL     1       2.824   6.395  18.508  0.00  0.00    +0.000 A 
ATOM     24  C   UNL     1       3.488   5.315  19.113  0.00  0.00    +0.000 A 
ATOM     25  C   UNL     1       4.839   5.085  18.797  0.00  0.00    +0.000 A 
BRANCH  24  26
ATOM     26  C   UNL     1       2.772   4.417  20.095  0.00  0.00    +0.000 C 
ATOM     27  F   UNL     1       1.585   3.940  19.627  0.00  0.00    +0.000 F 
ATOM     28  F   UNL     1       3.508   3.319  20.426  0.00  0.00    +0.000 F 
ATOM     29  F   UNL     1       2.483   5.044  21.268  0.00  0.00    +0.000 F 
ENDBRANCH  24  26
ENDBRANCH  17  20
ENDBRANCH   4  17
TORSDOF 5
ENDMDL
MODEL 2
REMARK VINA RESULT:      -9.0      1.569      2.023
REMARK  Name = 
REMARK  5 active torsions:
REMARK  status: ('A' for Active; 'I' for Inactive)
REMARK    1  A    between atoms: N_3  and  C_4
REMARK    2  A    between atoms: C_7  and  C_8
REMARK    3  A    between atoms: N_14  and  S_15
REMARK    4  A    between atoms: S_15  and  C_18
REMARK    5  A    between atoms: C_22  and  C_23
REMARK                            x       y       z     vdW  Elec       q    Type
REMARK                         _______ _______ _______ _____ _____    ______ ____
ROOT
ATOM      1  O   UNL     1       8.262   7.096  18.793  0.00  0.00    +0.000 OA
ATOM      2  C   UNL     1       7.882   7.569  17.736  0.00  0.00    +0.000 C 
ATOM      3  N   UNL     1       7.951   8.895  17.381  0.00  0.00    +0.000 N 
ATOM      4  N   UNL     1       7.258   6.768  16.788  0.00  0.00    +0.000 N 
ATOM      5  H   UNL     1       7.486   9.172  16.531  0.00  0.00    +0.000 HD
ATOM      6  H   UNL     1       6.870   7.124  15.925  0.00  0.00    +0.000 HD
ENDROOT
BRANCH   3   7
ATOM      7  C   UNL     1       8.536   9.920  18.161  0.00  0.00    +0.000 A 
ATOM      8  C   UNL     1       9.085   9.692  19.423  0.00  0.00    +0.000 A 
ATOM      9  C   UNL     1       9.642  10.732  20.169  0.00  0.00    +0.000 A 
ATOM     10  C   UNL     1       9.669  12.033  19.663  0.00  0.00    +0.000 A 
ATOM     11  C   UNL     1       9.124  12.268  18.391  0.00  0.00    +0.000 A 
ATOM     12  C   UNL     1       8.574  11.219  17.640  0.00  0.00    +0.000 A 
BRANCH  10  13
ATOM     13  C   UNL     1      10.287  13.150  20.469  0.00  0.00    +0.000 C 
ATOM     14  F   UNL     1      11.610  13.344  20.203  0.00  0.00    +0.000 F 
ATOM     15  F   UNL     1       9.683  14.348  20.243  0.00  0.00    +0.000 F 
ATOM     16  F   UNL     1      10.205  12.934  21.811  0.00  0.00    +0.000 F 
ENDBRANCH  10  13
ENDBRANCH   3   7
BRANCH   4  17
ATOM     17  S   UNL     1       6.907   5.158  17.066  0.00  0.00    +0.000 S 
ATOM     18  O   UNL     1       7.038   4.506  15.779  0.00  0.00    +0.000 OA
ATOM     19  O   UNL     1       7.660   4.704  18.214  0.00  0.00    +0.000 OA
BRANCH  17  20
ATOM     20  C   UNL     1       5.171   5.173  17.462  0.00  0.00    +0.000 A 
ATOM     21  C   UNL     1       4.517   6.403  17.572  0.00  0.00    +0.000 A 
ATOM     22  C   UNL     1       3.178   6.438  17.954  0.00  0.00    +0.000 A 
ATOM     23  C   UNL     1       2.494   5.247  18.215  0.00  0.00    +0.000 A 
ATOM     24  C   UNL     1       3.138   4.004  18.094  0.00  0.00    +0.000 A 
ATOM     25  C   UNL     1       4.491   3.975  17.711  0.00  0.00    +0.000 A 
BRANCH  24  26
ATOM     26  C   UNL     1       2.399   2.717  18.379  0.00  0.00    +0.000 C 
ATOM     27  F   UNL     1       1.068   2.782  18.094  0.00  0.00    +0.000 F 
ATOM     28  F   UNL     1       2.882   1.670  17.653  0.00  0.00    +0.000 F 
ATOM     29  F   UNL     1       2.481   2.340  19.684  0.00  0.00    +0.000 F 
ENDBRANCH  24  26
ENDBRANCH  17  20
ENDBRANCH   4  17
TORSDOF 5
ENDMDL
MODEL 3
REMARK VINA RESULT:      -9.0      0.149      1.407
REMARK  Name = 
REMARK  5 active torsions:
REMARK  status: ('A' for Active; 'I' for Inactive)
REMARK    1  A    between atoms: N_3  and  C_4
REMARK    2  A    between atoms: C_7  and  C_8
REMARK    3  A    between atoms: N_14  and  S_15
REMARK    4  A    between atoms: S_15  and  C_18
REMARK    5  A    between atoms: C_22  and  C_23
REMARK                            x       y       z     vdW  Elec       q    Type
REMARK                         _______ _______ _______ _____ _____    ______ ____
ROOT
ATOM      1  O   UNL     1       7.726   8.589  17.283  0.00  0.00    +0.000 OA
ATOM      2  C   UNL     1       8.168   8.115  18.315  0.00  0.00    +0.000 C 
ATOM      3  N   UNL     1       8.925   8.786  19.246  0.00  0.00    +0.000 N 
ATOM      4  N   UNL     1       7.985   6.770  18.609  0.00  0.00    +0.000 N 
ATOM      5  H   UNL     1       9.334   8.243  19.989  0.00  0.00    +0.000 HD
ATOM      6  H   UNL     1       8.385   6.315  19.419  0.00  0.00    +0.000 HD
ENDROOT
BRANCH   3   7
ATOM      7  C   UNL     1       9.259  10.160  19.189  0.00  0.00    +0.000 A 
ATOM      8  C   UNL     1       9.338  10.968  20.324  0.00  0.00    +0.000 A 
ATOM      9  C   UNL     1       9.657  12.322  20.226  0.00  0.00    +0.000 A 
ATOM     10  C   UNL     1       9.914  12.904  18.984  0.00  0.00    +0.000 A 
ATOM     11  C   UNL     1       9.843  12.096  17.839  0.00  0.00    +0.000 A 
ATOM     12  C   UNL     1       9.531  10.732  17.940  0.00  0.00    +0.000 A 
BRANCH  10  13
ATOM     13  C   UNL     1      10.275  14.367  18.888  0.00  0.00    +0.000 C 
ATOM     14  F   UNL     1      10.834  14.712  17.694  0.00  0.00    +0.000 F 
ATOM     15  F   UNL     1       9.194  15.179  19.041  0.00  0.00    +0.000 F 
ATOM     16  F   UNL     1      11.170  14.748  19.842  0.00  0.00    +0.000 F 
ENDBRANCH  10  13
ENDBRANCH   3   7
BRANCH   4  17
ATOM     17  S   UNL     1       7.245   5.713  17.547  0.00  0.00    +0.000 S 
ATOM     18  O   UNL     1       7.469   6.270  16.228  0.00  0.00    +0.000 OA
ATOM     19  O   UNL     1       7.654   4.363  17.865  0.00  0.00    +0.000 OA
BRANCH  17  20
ATOM     20  C   UNL     1       5.512   5.909  17.903  0.00  0.00    +0.000 A 
ATOM     21  C   UNL     1       4.818   6.964  17.306  0.00  0.00    +0.000 A 
ATOM     22  C   UNL     1       3.480   7.178  17.630  0.00  0.00    +0.000 A 
ATOM     23  C   UNL     1       2.838   6.333  18.540  0.00  0.00    +0.000 A 
ATOM     24  C   UNL     1       3.522   5.260  19.134  0.00  0.00    +0.000 A 
ATOM     25  C   UNL     1       4.873   5.050  18.806  0.00  0.00    +0.000 A 
BRANCH  24  26
ATOM     26  C   UNL     1       2.827   4.349  20.119  0.00  0.00    +0.000 C 
ATOM     27  F   UNL     1       2.528   4.956  21.302  0.00  0.00    +0.000 F 
ATOM     28  F   UNL     1       1.644   3.871  19.640  0.00  0.00    +0.000 F 
ATOM     29  F   UNL     1       3.572   3.256  20.441  0.00  0.00    +0.000 F 
ENDBRANCH  24  26
ENDBRANCH  17  20
ENDBRANCH   4  17
TORSDOF 5
ENDMDL
MODEL 4
REMARK VINA RESULT:      -9.0      6.226      7.608
REMARK  Name = 
REMARK  5 active torsions:
REMARK  status: ('A' for Active; 'I' for Inactive)
REMARK    1  A    between atoms: N_3  and  C_4
REMARK    2  A    between atoms: C_7  and  C_8
REMARK    3  A    between atoms: N_14  and  S_15
REMARK    4  A    between atoms: S_15  and  C_18
REMARK    5  A    between atoms: C_22  and  C_23
REMARK                            x       y       z     vdW  Elec       q    Type
REMARK                         _______ _______ _______ _____ _____    ______ ____
ROOT
ATOM      1  O   UNL     1       2.477   5.672  18.142  0.00  0.00    +0.000 OA
ATOM      2  C   UNL     1       2.816   5.763  19.310  0.00  0.00    +0.000 C 
ATOM      3  N   UNL     1       2.564   6.832  20.136  0.00  0.00    +0.000 N 
ATOM      4  N   UNL     1       3.581   4.766  19.902  0.00  0.00    +0.000 N 
ATOM      5  H   UNL     1       3.010   6.834  21.040  0.00  0.00    +0.000 HD
ATOM      6  H   UNL     1       3.939   4.824  20.845  0.00  0.00    +0.000 HD
ENDROOT
BRANCH   3   7
ATOM      7  C   UNL     1       1.810   7.976  19.785  0.00  0.00    +0.000 A 
ATOM      8  C   UNL     1       1.910   8.597  18.539  0.00  0.00    +0.000 A 
ATOM      9  C   UNL     1       1.160   9.733  18.235  0.00  0.00    +0.000 A 
ATOM     10  C   UNL     1       0.280  10.276  19.172  0.00  0.00    +0.000 A 
ATOM     11  C   UNL     1       0.169   9.652  20.425  0.00  0.00    +0.000 A 
ATOM     12  C   UNL     1       0.917   8.505  20.726  0.00  0.00    +0.000 A 
BRANCH  10  13
ATOM     13  C   UNL     1      -0.541  11.495  18.829  0.00  0.00    +0.000 C 
ATOM     14  F   UNL     1      -1.419  11.289  17.808  0.00  0.00    +0.000 F 
ATOM     15  F   UNL     1      -1.289  11.929  19.880  0.00  0.00    +0.000 F 
ATOM     16  F   UNL     1       0.228  12.553  18.451  0.00  0.00    +0.000 F 
ENDBRANCH  10  13
ENDBRANCH   3   7
BRANCH   4  17
ATOM     17  S   UNL     1       4.157   3.451  19.047  0.00  0.00    +0.000 S 
ATOM     18  O   UNL     1       4.872   2.644  20.014  0.00  0.00    +0.000 OA
ATOM     19  O   UNL     1       3.079   2.893  18.260  0.00  0.00    +0.000 OA
BRANCH  17  20
ATOM     20  C   UNL     1       5.378   4.160  17.963  0.00  0.00    +0.000 A 
ATOM     21  C   UNL     1       6.363   4.987  18.510  0.00  0.00    +0.000 A 
ATOM     22  C   UNL     1       7.282   5.610  17.668  0.00  0.00    +0.000 A 
ATOM     23  C   UNL     1       7.221   5.400  16.288  0.00  0.00    +0.000 A 
ATOM     24  C   UNL     1       6.244   4.560  15.729  0.00  0.00    +0.000 A 
ATOM     25  C   UNL     1       5.316   3.935  16.582  0.00  0.00    +0.000 A 
BRANCH  24  26
ATOM     26  C   UNL     1       6.177   4.334  14.237  0.00  0.00    +0.000 C 
ATOM     27  F   UNL     1       6.455   3.051  13.869  0.00  0.00    +0.000 F 
ATOM     28  F   UNL     1       4.943   4.605  13.725  0.00  0.00    +0.000 F 
ATOM     29  F   UNL     1       7.051   5.115  13.546  0.00  0.00    +0.000 F 
ENDBRANCH  24  26
ENDBRANCH  17  20
ENDBRANCH   4  17
TORSDOF 5
ENDMDL
MODEL 5
REMARK VINA RESULT:      -9.0      0.818      1.196
REMARK  Name = 
REMARK  5 active torsions:
REMARK  status: ('A' for Active; 'I' for Inactive)
REMARK    1  A    between atoms: N_3  and  C_4
REMARK    2  A    between atoms: C_7  and  C_8
REMARK    3  A    between atoms: N_14  and  S_15
REMARK    4  A    between atoms: S_15  and  C_18
REMARK    5  A    between atoms: C_22  and  C_23
REMARK                            x       y       z     vdW  Elec       q    Type
REMARK                         _______ _______ _______ _____ _____    ______ ____
ROOT
ATOM      1  O   UNL     1       7.794   8.315  17.137  0.00  0.00    +0.000 OA
ATOM      2  C   UNL     1       8.161   7.893  18.220  0.00  0.00    +0.000 C 
ATOM      3  N   UNL     1       8.809   8.623  19.187  0.00  0.00    +0.000 N 
ATOM      4  N   UNL     1       8.002   6.552  18.545  0.00  0.00    +0.000 N 
ATOM      5  H   UNL     1       9.170   8.122  19.982  0.00  0.00    +0.000 HD
ATOM      6  H   UNL     1       8.345   6.141  19.402  0.00  0.00    +0.000 HD
ENDROOT
BRANCH   3   7
ATOM      7  C   UNL     1       9.097  10.006  19.110  0.00  0.00    +0.000 A 
ATOM      8  C   UNL     1       9.041  10.727  17.916  0.00  0.00    +0.000 A 
ATOM      9  C   UNL     1       9.346  12.088  17.878  0.00  0.00    +0.000 A 
ATOM     10  C   UNL     1       9.711  12.768  19.042  0.00  0.00    +0.000 A 
ATOM     11  C   UNL     1       9.763  12.050  20.247  0.00  0.00    +0.000 A 
ATOM     12  C   UNL     1       9.447  10.684  20.284  0.00  0.00    +0.000 A 
BRANCH  10  13
ATOM     13  C   UNL     1      10.023  14.243  18.995  0.00  0.00    +0.000 C 
ATOM     14  F   UNL     1      10.258  14.710  17.736  0.00  0.00    +0.000 F 
ATOM     15  F   UNL     1       9.009  15.004  19.490  0.00  0.00    +0.000 F 
ATOM     16  F   UNL     1      11.127  14.567  19.724  0.00  0.00    +0.000 F 
ENDBRANCH  10  13
ENDBRANCH   3   7
BRANCH   4  17
ATOM     17  S   UNL     1       7.397   5.433  17.461  0.00  0.00    +0.000 S 
ATOM     18  O   UNL     1       7.407   6.097  16.174  0.00  0.00    +0.000 OA
ATOM     19  O   UNL     1       8.078   4.173  17.657  0.00  0.00    +0.000 OA
BRANCH  17  20
ATOM     20  C   UNL     1       5.691   5.267  17.943  0.00  0.00    +0.000 A 
ATOM     21  C   UNL     1       4.784   6.259  17.561  0.00  0.00    +0.000 A 
ATOM     22  C   UNL     1       3.462   6.185  17.991  0.00  0.00    +0.000 A 
ATOM     23  C   UNL     1       3.046   5.117  18.791  0.00  0.00    +0.000 A 
ATOM     24  C   UNL     1       3.945   4.106  19.169  0.00  0.00    +0.000 A 
ATOM     25  C   UNL     1       5.280   4.187  18.735  0.00  0.00    +0.000 A 
BRANCH  24  26
ATOM     26  C   UNL     1       3.495   2.953  20.036  0.00  0.00    +0.000 C 
ATOM     27  F   UNL     1       2.615   2.119  19.415  0.00  0.00    +0.000 F 
ATOM     28  F   UNL     1       4.534   2.165  20.432  0.00  0.00    +0.000 F 
ATOM     29  F   UNL     1       2.876   3.362  21.177  0.00  0.00    +0.000 F 
ENDBRANCH  24  26
ENDBRANCH  17  20
ENDBRANCH   4  17
TORSDOF 5
ENDMDL
MODEL 6
REMARK VINA RESULT:      -9.0      0.564      1.216
REMARK  Name = 
REMARK  5 active torsions:
REMARK  status: ('A' for Active; 'I' for Inactive)
REMARK    1  A    between atoms: N_3  and  C_4
REMARK    2  A    between atoms: C_7  and  C_8
REMARK    3  A    between atoms: N_14  and  S_15
REMARK    4  A    between atoms: S_15  and  C_18
REMARK    5  A    between atoms: C_22  and  C_23
REMARK                            x       y       z     vdW  Elec       q    Type
REMARK                         _______ _______ _______ _____ _____    ______ ____
ROOT
ATOM      1  O   UNL     1       7.871   8.500  17.098  0.00  0.00    +0.000 OA
ATOM      2  C   UNL     1       8.200   8.152  18.219  0.00  0.00    +0.000 C 
ATOM      3  N   UNL     1       8.887   8.921  19.127  0.00  0.00    +0.000 N 
ATOM      4  N   UNL     1       7.948   6.859  18.658  0.00  0.00    +0.000 N 
ATOM      5  H   UNL     1       9.207   8.469  19.969  0.00  0.00    +0.000 HD
ATOM      6  H   UNL     1       8.255   6.503  19.553  0.00  0.00    +0.000 HD
ENDROOT
BRANCH   3   7
ATOM      7  C   UNL     1       9.268  10.269  18.934  0.00  0.00    +0.000 A 
ATOM      8  C   UNL     1       8.673  11.095  17.979  0.00  0.00    +0.000 A 
ATOM      9  C   UNL     1       9.086  12.417  17.808  0.00  0.00    +0.000 A 
ATOM     10  C   UNL     1      10.106  12.951  18.598  0.00  0.00    +0.000 A 
ATOM     11  C   UNL     1      10.704  12.127  19.564  0.00  0.00    +0.000 A 
ATOM     12  C   UNL     1      10.281  10.801  19.741  0.00  0.00    +0.000 A 
BRANCH  10  13
ATOM     13  C   UNL     1      10.536  14.386  18.418  0.00  0.00    +0.000 C 
ATOM     14  F   UNL     1      10.050  14.961  17.282  0.00  0.00    +0.000 F 
ATOM     15  F   UNL     1      10.126  15.183  19.442  0.00  0.00    +0.000 F 
ATOM     16  F   UNL     1      11.889  14.523  18.354  0.00  0.00    +0.000 F 
ENDBRANCH  10  13
ENDBRANCH   3   7
BRANCH   4  17
ATOM     17  S   UNL     1       7.278   5.690  17.668  0.00  0.00    +0.000 S 
ATOM     18  O   UNL     1       7.524   6.143  16.314  0.00  0.00    +0.000 OA
ATOM     19  O   UNL     1       7.722   4.388  18.112  0.00  0.00    +0.000 OA
BRANCH  17  20
ATOM     20  C   UNL     1       5.529   5.852  17.958  0.00  0.00    +0.000 A 
ATOM     21  C   UNL     1       4.833   6.878  17.313  0.00  0.00    +0.000 A 
ATOM     22  C   UNL     1       3.479   7.066  17.585  0.00  0.00    +0.000 A 
ATOM     23  C   UNL     1       2.824   6.225  18.488  0.00  0.00    +0.000 A 
ATOM     24  C   UNL     1       3.510   5.181  19.130  0.00  0.00    +0.000 A 
ATOM     25  C   UNL     1       4.877   4.997  18.855  0.00  0.00    +0.000 A 
BRANCH  24  26
ATOM     26  C   UNL     1       2.802   4.273  20.108  0.00  0.00    +0.000 C 
ATOM     27  F   UNL     1       3.526   3.169  20.446  0.00  0.00    +0.000 F 
ATOM     28  F   UNL     1       2.513   4.900  21.283  0.00  0.00    +0.000 F 
ATOM     29  F   UNL     1       1.616   3.806  19.630  0.00  0.00    +0.000 F 
ENDBRANCH  24  26
ENDBRANCH  17  20
ENDBRANCH   4  17
TORSDOF 5
ENDMDL
MODEL 7
REMARK VINA RESULT:      -8.9      6.161      7.674
REMARK  Name = 
REMARK  5 active torsions:
REMARK  status: ('A' for Active; 'I' for Inactive)
REMARK    1  A    between atoms: N_3  and  C_4
REMARK    2  A    between atoms: C_7  and  C_8
REMARK    3  A    between atoms: N_14  and  S_15
REMARK    4  A    between atoms: S_15  and  C_18
REMARK    5  A    between atoms: C_22  and  C_23
REMARK                            x       y       z     vdW  Elec       q    Type
REMARK                         _______ _______ _______ _____ _____    ______ ____
ROOT
ATOM      1  O   UNL     1       2.381   5.796  18.362  0.00  0.00    +0.000 OA
ATOM      2  C   UNL     1       2.717   5.902  19.529  0.00  0.00    +0.000 C 
ATOM      3  N   UNL     1       2.433   6.966  20.351  0.00  0.00    +0.000 N 
ATOM      4  N   UNL     1       3.511   4.931  20.125  0.00  0.00    +0.000 N 
ATOM      5  H   UNL     1       2.878   6.986  21.254  0.00  0.00    +0.000 HD
ATOM      6  H   UNL     1       3.868   5.004  21.068  0.00  0.00    +0.000 HD
ENDROOT
BRANCH   3   7
ATOM      7  C   UNL     1       1.645   8.086  19.994  0.00  0.00    +0.000 A 
ATOM      8  C   UNL     1       0.710   8.660  20.857  0.00  0.00    +0.000 A 
ATOM      9  C   UNL     1      -0.058   9.756  20.464  0.00  0.00    +0.000 A 
ATOM     10  C   UNL     1       0.095  10.313  19.192  0.00  0.00    +0.000 A 
ATOM     11  C   UNL     1       1.038   9.744  18.323  0.00  0.00    +0.000 A 
ATOM     12  C   UNL     1       1.816   8.648  18.723  0.00  0.00    +0.000 A 
BRANCH  10  13
ATOM     13  C   UNL     1      -0.729  11.509  18.781  0.00  0.00    +0.000 C 
ATOM     14  F   UNL     1       0.017  12.621  18.529  0.00  0.00    +0.000 F 
ATOM     15  F   UNL     1      -1.448  11.279  17.648  0.00  0.00    +0.000 F 
ATOM     16  F   UNL     1      -1.632  11.874  19.732  0.00  0.00    +0.000 F 
ENDBRANCH  10  13
ENDBRANCH   3   7
BRANCH   4  17
ATOM     17  S   UNL     1       4.126   3.630  19.276  0.00  0.00    +0.000 S 
ATOM     18  O   UNL     1       4.828   2.826  20.256  0.00  0.00    +0.000 OA
ATOM     19  O   UNL     1       3.076   3.063  18.459  0.00  0.00    +0.000 OA
BRANCH  17  20
ATOM     20  C   UNL     1       5.364   4.364  18.228  0.00  0.00    +0.000 A 
ATOM     21  C   UNL     1       6.312   5.216  18.802  0.00  0.00    +0.000 A 
ATOM     22  C   UNL     1       7.242   5.858  17.987  0.00  0.00    +0.000 A 
ATOM     23  C   UNL     1       7.231   5.639  16.607  0.00  0.00    +0.000 A 
ATOM     24  C   UNL     1       6.292   4.773  16.021  0.00  0.00    +0.000 A 
ATOM     25  C   UNL     1       5.353   4.130  16.847  0.00  0.00    +0.000 A 
BRANCH  24  26
ATOM     26  C   UNL     1       6.279   4.539  14.529  0.00  0.00    +0.000 C 
ATOM     27  F   UNL     1       5.127   4.948  13.926  0.00  0.00    +0.000 F 
ATOM     28  F   UNL     1       7.285   5.201  13.890  0.00  0.00    +0.000 F 
ATOM     29  F   UNL     1       6.424   3.226  14.200  0.00  0.00    +0.000 F 
ENDBRANCH  24  26
ENDBRANCH  17  20
ENDBRANCH   4  17
TORSDOF 5
ENDMDL
MODEL 8
REMARK VINA RESULT:      -8.9      6.151      7.674
REMARK  Name = 
REMARK  5 active torsions:
REMARK  status: ('A' for Active; 'I' for Inactive)
REMARK    1  A    between atoms: N_3  and  C_4
REMARK    2  A    between atoms: C_7  and  C_8
REMARK    3  A    between atoms: N_14  and  S_15
REMARK    4  A    between atoms: S_15  and  C_18
REMARK    5  A    between atoms: C_22  and  C_23
REMARK                            x       y       z     vdW  Elec       q    Type
REMARK                         _______ _______ _______ _____ _____    ______ ____
ROOT
ATOM      1  O   UNL     1       2.444   5.744  18.370  0.00  0.00    +0.000 OA
ATOM      2  C   UNL     1       2.778   5.822  19.540  0.00  0.00    +0.000 C 
ATOM      3  N   UNL     1       2.490   6.864  20.388  0.00  0.00    +0.000 N 
ATOM      4  N   UNL     1       3.574   4.839  20.113  0.00  0.00    +0.000 N 
ATOM      5  H   UNL     1       2.934   6.863  21.292  0.00  0.00    +0.000 HD
ATOM      6  H   UNL     1       3.930   4.889  21.058  0.00  0.00    +0.000 HD
ENDROOT
BRANCH   3   7
ATOM      7  C   UNL     1       1.699   7.990  20.059  0.00  0.00    +0.000 A 
ATOM      8  C   UNL     1       0.768   8.546  20.938  0.00  0.00    +0.000 A 
ATOM      9  C   UNL     1      -0.004   9.649  20.572  0.00  0.00    +0.000 A 
ATOM     10  C   UNL     1       0.142  10.232  19.312  0.00  0.00    +0.000 A 
ATOM     11  C   UNL     1       1.081   9.682  18.426  0.00  0.00    +0.000 A 
ATOM     12  C   UNL     1       1.862   8.579  18.799  0.00  0.00    +0.000 A 
BRANCH  10  13
ATOM     13  C   UNL     1      -0.685  11.435  18.930  0.00  0.00    +0.000 C 
ATOM     14  F   UNL     1      -1.656  11.738  19.837  0.00  0.00    +0.000 F 
ATOM     15  F   UNL     1       0.067  12.561  18.800  0.00  0.00    +0.000 F 
ATOM     16  F   UNL     1      -1.327  11.271  17.740  0.00  0.00    +0.000 F 
ENDBRANCH  10  13
ENDBRANCH   3   7
BRANCH   4  17
ATOM     17  S   UNL     1       4.194   3.561  19.232  0.00  0.00    +0.000 S 
ATOM     18  O   UNL     1       4.913   2.745  20.189  0.00  0.00    +0.000 OA
ATOM     19  O   UNL     1       3.143   3.001  18.412  0.00  0.00    +0.000 OA
BRANCH  17  20
ATOM     20  C   UNL     1       5.416   4.329  18.188  0.00  0.00    +0.000 A 
ATOM     21  C   UNL     1       6.343   5.200  18.767  0.00  0.00    +0.000 A 
ATOM     22  C   UNL     1       7.259   5.867  17.956  0.00  0.00    +0.000 A 
ATOM     23  C   UNL     1       7.253   5.655  16.574  0.00  0.00    +0.000 A 
ATOM     24  C   UNL     1       6.335   4.771  15.984  0.00  0.00    +0.000 A 
ATOM     25  C   UNL     1       5.411   4.102  16.806  0.00  0.00    +0.000 A 
BRANCH  24  26
ATOM     26  C   UNL     1       6.327   4.544  14.490  0.00  0.00    +0.000 C 
ATOM     27  F   UNL     1       6.444   3.232  14.140  0.00  0.00    +0.000 F 
ATOM     28  F   UNL     1       5.178   4.982  13.904  0.00  0.00    +0.000 F 
ATOM     29  F   UNL     1       7.344   5.188  13.854  0.00  0.00    +0.000 F 
ENDBRANCH  24  26
ENDBRANCH  17  20
ENDBRANCH   4  17
TORSDOF 5
ENDMDL
MODEL 9
REMARK VINA RESULT:      -8.9      1.530      2.040
REMARK  Name = 
REMARK  5 active torsions:
REMARK  status: ('A' for Active; 'I' for Inactive)
REMARK    1  A    between atoms: N_3  and  C_4
REMARK    2  A    between atoms: C_7  and  C_8
REMARK    3  A    between atoms: N_14  and  S_15
REMARK    4  A    between atoms: S_15  and  C_18
REMARK    5  A    between atoms: C_22  and  C_23
REMARK                            x       y       z     vdW  Elec       q    Type
REMARK                         _______ _______ _______ _____ _____    ______ ____
ROOT
ATOM      1  O   UNL     1       8.580   7.361  18.848  0.00  0.00    +0.000 OA
ATOM      2  C   UNL     1       7.970   7.813  17.894  0.00  0.00    +0.000 C 
ATOM      3  N   UNL     1       7.885   9.141  17.553  0.00  0.00    +0.000 N 
ATOM      4  N   UNL     1       7.220   6.977  17.077  0.00  0.00    +0.000 N 
ATOM      5  H   UNL     1       7.244   9.391  16.817  0.00  0.00    +0.000 HD
ATOM      6  H   UNL     1       6.648   7.310  16.313  0.00  0.00    +0.000 HD
ENDROOT
BRANCH   3   7
ATOM      7  C   UNL     1       8.549  10.199  18.218  0.00  0.00    +0.000 A 
ATOM      8  C   UNL     1       9.299  10.012  19.379  0.00  0.00    +0.000 A 
ATOM      9  C   UNL     1       9.929  11.083  20.014  0.00  0.00    +0.000 A 
ATOM     10  C   UNL     1       9.829  12.376  19.495  0.00  0.00    +0.000 A 
ATOM     11  C   UNL     1       9.082  12.569  18.323  0.00  0.00    +0.000 A 
ATOM     12  C   UNL     1       8.457  11.489  17.681  0.00  0.00    +0.000 A 
BRANCH  10  13
ATOM     13  C   UNL     1      10.527  13.526  20.178  0.00  0.00    +0.000 C 
ATOM     14  F   UNL     1      10.013  13.822  21.406  0.00  0.00    +0.000 F 
ATOM     15  F   UNL     1      11.851  13.285  20.378  0.00  0.00    +0.000 F 
ATOM     16  F   UNL     1      10.458  14.680  19.459  0.00  0.00    +0.000 F 
ENDBRANCH  10  13
ENDBRANCH   3   7
BRANCH   4  17
ATOM     17  S   UNL     1       7.031   5.347  17.394  0.00  0.00    +0.000 S 
ATOM     18  O   UNL     1       7.339   4.672  16.149  0.00  0.00    +0.000 OA
ATOM     19  O   UNL     1       7.734   5.021  18.615  0.00  0.00    +0.000 OA
BRANCH  17  20
ATOM     20  C   UNL     1       5.278   5.175  17.653  0.00  0.00    +0.000 A 
ATOM     21  C   UNL     1       4.484   6.325  17.671  0.00  0.00    +0.000 A 
ATOM     22  C   UNL     1       3.123   6.216  17.946  0.00  0.00    +0.000 A 
ATOM     23  C   UNL     1       2.557   4.962  18.192  0.00  0.00    +0.000 A 
ATOM     24  C   UNL     1       3.343   3.798  18.163  0.00  0.00    +0.000 A 
ATOM     25  C   UNL     1       4.717   3.913  17.888  0.00  0.00    +0.000 A 
BRANCH  24  26
ATOM     26  C   UNL     1       2.731   2.443  18.432  0.00  0.00    +0.000 C 
ATOM     27  F   UNL     1       2.682   2.123  19.756  0.00  0.00    +0.000 F 
ATOM     28  F   UNL     1       1.448   2.354  17.982  0.00  0.00    +0.000 F 
ATOM     29  F   UNL     1       3.412   1.429  17.831  0.00  0.00    +0.000 F 
ENDBRANCH  24  26
ENDBRANCH  17  20
ENDBRANCH   4  17
TORSDOF 5
ENDMDL
