MODEL 1
REMARK VINA RESULT:      -8.1      0.000      0.000
REMARK  Name = 
REMARK  6 active torsions:
REMARK  status: ('A' for Active; 'I' for Inactive)
REMARK    1  A    between atoms: C_1  and  C_2
REMARK    2  A    between atoms: C_2  and  C_3
REMARK    3  A    between atoms: C_2  and  N_4
REMARK    4  A    between atoms: C_2  and  C_24
REMARK    5  A    between atoms: C_5  and  C_7
REMARK    6  A    between atoms: N_9  and  C_10
REMARK                            x       y       z     vdW  Elec       q    Type
REMARK                         _______ _______ _______ _____ _____    ______ ____
ROOT
ATOM      1  C   UNL     1       1.737   8.861  19.020  0.00  0.00    +0.000 A 
ATOM      2  N   UNL     1       1.816  10.092  18.443  0.00  0.00    +0.000 NA
ATOM      3  N   UNL     1       1.168  10.945  19.313  0.00  0.00    +0.000 N 
ATOM      4  C   UNL     1       0.727  10.251  20.400  0.00  0.00    +0.000 A 
ATOM      5  C   UNL     1       1.055   8.941  20.244  0.00  0.00    +0.000 A 
ATOM      6  C   UNL     1       0.427   8.032  21.236  0.00  0.00    +0.000 C 
ATOM      7  C   UNL     1      -0.501   8.990  22.010  0.00  0.00    +0.000 C 
ATOM      8  C   UNL     1       0.071  10.004  22.946  0.00  0.00    +0.000 C 
ATOM      9  C   UNL     1      -0.253  10.442  21.538  0.00  0.00    +0.000 C 
ENDROOT
BRANCH   3  10
ATOM     10  C   UNL     1       1.021  12.348  19.127  0.00  0.00    +0.000 A 
ATOM     11  C   UNL     1       2.114  13.173  19.483  0.00  0.00    +0.000 A 
ATOM     12  C   UNL     1       2.025  14.565  19.424  0.00  0.00    +0.000 A 
ATOM     13  C   UNL     1       0.840  15.150  18.999  0.00  0.00    +0.000 A 
ATOM     14 CL   UNL     1       0.704  16.865  18.978  0.00  0.00    +0.000 Cl
ATOM     15  C   UNL     1      -0.236  14.356  18.612  0.00  0.00    +0.000 A 
ATOM     16  C   UNL     1      -0.154  12.953  18.662  0.00  0.00    +0.000 A 
ATOM     17 CL   UNL     1      -1.600  12.097  18.258  0.00  0.00    +0.000 Cl
ENDBRANCH   3  10
BRANCH   1  19
ATOM     18  N   UNL     1       3.208   6.923  19.121  0.00  0.00    +0.000 N 
ATOM     19  C   UNL     1       2.225   7.600  18.427  0.00  0.00    +0.000 C 
ATOM     20  O   UNL     1       1.769   7.202  17.358  0.00  0.00    +0.000 OA
ATOM     21  H   UNL     1       3.523   7.347  19.990  0.00  0.00    +0.000 HD
BRANCH  18  23
ATOM     22  C   UNL     1       4.237   5.789  17.162  0.00  0.00    +0.000 C 
ATOM     23  C   UNL     1       3.823   5.665  18.653  0.00  0.00    +0.000 C 
ATOM     24  C   UNL     1       5.128   5.372  19.440  0.00  0.00    +0.000 C 
BRANCH  23  25
ATOM     25  C   UNL     1       2.807   4.512  18.843  0.00  0.00    +0.000 A 
ATOM     26  C   UNL     1       2.728   3.442  17.930  0.00  0.00    +0.000 A 
ATOM     27  C   UNL     1       1.778   2.423  18.075  0.00  0.00    +0.000 A 
ATOM     28  C   UNL     1       0.896   2.436  19.148  0.00  0.00    +0.000 A 
ATOM     29  C   UNL     1       0.970   3.463  20.082  0.00  0.00    +0.000 A 
ATOM     30  C   UNL     1       1.918   4.482  19.936  0.00  0.00    +0.000 A 
ENDBRANCH  23  25
ENDBRANCH  18  23
ENDBRANCH   1  19
TORSDOF 4
ENDMDL
MODEL 2
REMARK VINA RESULT:      -7.9      3.719      8.020
REMARK  Name = 
REMARK  6 active torsions:
REMARK  status: ('A' for Active; 'I' for Inactive)
REMARK    1  A    between atoms: C_1  and  C_2
REMARK    2  A    between atoms: C_2  and  C_3
REMARK    3  A    between atoms: C_2  and  N_4
REMARK    4  A    between atoms: C_2  and  C_24
REMARK    5  A    between atoms: C_5  and  C_7
REMARK    6  A    between atoms: N_9  and  C_10
REMARK                            x       y       z     vdW  Elec       q    Type
REMARK                         _______ _______ _______ _____ _____    ______ ____
ROOT
ATOM      1  C   UNL     1       2.356   7.144  19.615  0.00  0.00    +0.000 A 
ATOM      2  N   UNL     1       3.319   7.380  18.682  0.00  0.00    +0.000 NA
ATOM      3  N   UNL     1       3.848   6.141  18.382  0.00  0.00    +0.000 N 
ATOM      4  C   UNL     1       3.205   5.176  19.099  0.00  0.00    +0.000 A 
ATOM      5  C   UNL     1       2.273   5.770  19.891  0.00  0.00    +0.000 A 
ATOM      6  C   UNL     1       1.664   4.867  20.900  0.00  0.00    +0.000 C 
ATOM      7  C   UNL     1       2.482   3.573  20.711  0.00  0.00    +0.000 C 
ATOM      8  C   UNL     1       2.291   2.731  19.492  0.00  0.00    +0.000 C 
ATOM      9  C   UNL     1       3.421   3.731  19.492  0.00  0.00    +0.000 C 
ENDROOT
BRANCH   3  10
ATOM     10  C   UNL     1       4.879   5.899  17.431  0.00  0.00    +0.000 A 
ATOM     11  C   UNL     1       4.521   5.905  16.062  0.00  0.00    +0.000 A 
ATOM     12  C   UNL     1       5.445   5.584  15.067  0.00  0.00    +0.000 A 
ATOM     13  C   UNL     1       6.745   5.259  15.429  0.00  0.00    +0.000 A 
ATOM     14 CL   UNL     1       7.875   4.806  14.213  0.00  0.00    +0.000 Cl
ATOM     15  C   UNL     1       7.127   5.279  16.768  0.00  0.00    +0.000 A 
ATOM     16  C   UNL     1       6.204   5.607  17.778  0.00  0.00    +0.000 A 
ATOM     17 CL   UNL     1       6.787   5.486  19.401  0.00  0.00    +0.000 Cl
ENDBRANCH   3  10
BRANCH   1  19
ATOM     18  N   UNL     1       0.959   9.136  19.511  0.00  0.00    +0.000 N 
ATOM     19  C   UNL     1       1.555   8.175  20.304  0.00  0.00    +0.000 C 
ATOM     20  O   UNL     1       1.451   8.162  21.528  0.00  0.00    +0.000 OA
ATOM     21  H   UNL     1       1.119   9.061  18.510  0.00  0.00    +0.000 HD
BRANCH  18  23
ATOM     22  C   UNL     1      -0.438   9.877  21.430  0.00  0.00    +0.000 C 
ATOM     23  C   UNL     1       0.151  10.251  20.043  0.00  0.00    +0.000 C 
ATOM     24  C   UNL     1       1.038  11.504  20.274  0.00  0.00    +0.000 C 
BRANCH  23  25
ATOM     25  C   UNL     1      -0.983  10.569  19.037  0.00  0.00    +0.000 A 
ATOM     26  C   UNL     1      -1.978  11.525  19.326  0.00  0.00    +0.000 A 
ATOM     27  C   UNL     1      -3.029  11.780  18.436  0.00  0.00    +0.000 A 
ATOM     28  C   UNL     1      -3.103  11.101  17.226  0.00  0.00    +0.000 A 
ATOM     29  C   UNL     1      -2.119  10.175  16.901  0.00  0.00    +0.000 A 
ATOM     30  C   UNL     1      -1.069   9.920  17.790  0.00  0.00    +0.000 A 
ENDBRANCH  23  25
ENDBRANCH  18  23
ENDBRANCH   1  19
TORSDOF 4
ENDMDL
MODEL 3
REMARK VINA RESULT:      -7.9      1.202      2.600
REMARK  Name = 
REMARK  6 active torsions:
REMARK  status: ('A' for Active; 'I' for Inactive)
REMARK    1  A    between atoms: C_1  and  C_2
REMARK    2  A    between atoms: C_2  and  C_3
REMARK    3  A    between atoms: C_2  and  N_4
REMARK    4  A    between atoms: C_2  and  C_24
REMARK    5  A    between atoms: C_5  and  C_7
REMARK    6  A    between atoms: N_9  and  C_10
REMARK                            x       y       z     vdW  Elec       q    Type
REMARK                         _______ _______ _______ _____ _____    ______ ____
ROOT
ATOM      1  C   UNL     1       2.099   8.283  18.881  0.00  0.00    +0.000 A 
ATOM      2  N   UNL     1       1.989   9.482  18.247  0.00  0.00    +0.000 NA
ATOM      3  N   UNL     1       1.260  10.282  19.102  0.00  0.00    +0.000 N 
ATOM      4  C   UNL     1       0.955   9.591  20.237  0.00  0.00    +0.000 A 
ATOM      5  C   UNL     1       1.455   8.330  20.127  0.00  0.00    +0.000 A 
ATOM      6  C   UNL     1       0.992   7.396  21.183  0.00  0.00    +0.000 C 
ATOM      7  C   UNL     1      -0.032   8.257  21.951  0.00  0.00    +0.000 C 
ATOM      8  C   UNL     1       0.426   9.385  22.815  0.00  0.00    +0.000 C 
ATOM      9  C   UNL     1      -0.002   9.704  21.404  0.00  0.00    +0.000 C 
ENDROOT
BRANCH   3  10
ATOM     10  C   UNL     1       0.916  11.641  18.859  0.00  0.00    +0.000 A 
ATOM     11  C   UNL     1       1.930  12.613  19.029  0.00  0.00    +0.000 A 
ATOM     12  C   UNL     1       1.658  13.977  18.906  0.00  0.00    +0.000 A 
ATOM     13  C   UNL     1       0.368  14.386  18.601  0.00  0.00    +0.000 A 
ATOM     14 CL   UNL     1       0.013  16.067  18.503  0.00  0.00    +0.000 Cl
ATOM     15  C   UNL     1      -0.638  13.445  18.397  0.00  0.00    +0.000 A 
ATOM     16  C   UNL     1      -0.374  12.068  18.514  0.00  0.00    +0.000 A 
ATOM     17 CL   UNL     1      -1.737  11.020  18.341  0.00  0.00    +0.000 Cl
ENDBRANCH   3  10
BRANCH   1  19
ATOM     18  N   UNL     1       2.631   5.914  19.073  0.00  0.00    +0.000 N 
ATOM     19  C   UNL     1       2.735   7.071  18.326  0.00  0.00    +0.000 C 
ATOM     20  O   UNL     1       3.334   7.121  17.255  0.00  0.00    +0.000 OA
ATOM     21  H   UNL     1       2.124   5.986  19.951  0.00  0.00    +0.000 HD
BRANCH  18  23
ATOM     22  C   UNL     1       3.040   3.571  19.798  0.00  0.00    +0.000 C 
ATOM     23  C   UNL     1       3.233   4.626  18.676  0.00  0.00    +0.000 C 
ATOM     24  C   UNL     1       2.521   4.057  17.420  0.00  0.00    +0.000 C 
BRANCH  23  25
ATOM     25  C   UNL     1       4.739   4.847  18.391  0.00  0.00    +0.000 A 
ATOM     26  C   UNL     1       5.314   4.500  17.151  0.00  0.00    +0.000 A 
ATOM     27  C   UNL     1       6.684   4.657  16.909  0.00  0.00    +0.000 A 
ATOM     28  C   UNL     1       7.513   5.184  17.891  0.00  0.00    +0.000 A 
ATOM     29  C   UNL     1       6.970   5.565  19.112  0.00  0.00    +0.000 A 
ATOM     30  C   UNL     1       5.601   5.407  19.355  0.00  0.00    +0.000 A 
ENDBRANCH  23  25
ENDBRANCH  18  23
ENDBRANCH   1  19
TORSDOF 4
ENDMDL
MODEL 4
REMARK VINA RESULT:      -7.9      3.691      7.950
REMARK  Name = 
REMARK  6 active torsions:
REMARK  status: ('A' for Active; 'I' for Inactive)
REMARK    1  A    between atoms: C_1  and  C_2
REMARK    2  A    between atoms: C_2  and  C_3
REMARK    3  A    between atoms: C_2  and  N_4
REMARK    4  A    between atoms: C_2  and  C_24
REMARK    5  A    between atoms: C_5  and  C_7
REMARK    6  A    between atoms: N_9  and  C_10
REMARK                            x       y       z     vdW  Elec       q    Type
REMARK                         _______ _______ _______ _____ _____    ______ ____
ROOT
ATOM      1  C   UNL     1       2.257   7.138  19.603  0.00  0.00    +0.000 A 
ATOM      2  N   UNL     1       3.136   7.225  18.568  0.00  0.00    +0.000 NA
ATOM      3  N   UNL     1       3.615   5.943  18.386  0.00  0.00    +0.000 N 
ATOM      4  C   UNL     1       3.023   5.097  19.277  0.00  0.00    +0.000 A 
ATOM      5  C   UNL     1       2.176   5.814  20.063  0.00  0.00    +0.000 A 
ATOM      6  C   UNL     1       1.646   5.066  21.231  0.00  0.00    +0.000 C 
ATOM      7  C   UNL     1       2.421   3.736  21.141  0.00  0.00    +0.000 C 
ATOM      8  C   UNL     1       2.106   2.750  20.064  0.00  0.00    +0.000 C 
ATOM      9  C   UNL     1       3.249   3.708  19.834  0.00  0.00    +0.000 C 
ENDROOT
BRANCH   3  10
ATOM     10  C   UNL     1       4.551   5.551  17.389  0.00  0.00    +0.000 A 
ATOM     11  C   UNL     1       5.697   6.363  17.214  0.00  0.00    +0.000 A 
ATOM     12  C   UNL     1       6.619   6.109  16.197  0.00  0.00    +0.000 A 
ATOM     13  C   UNL     1       6.410   5.033  15.346  0.00  0.00    +0.000 A 
ATOM     14 CL   UNL     1       7.512   4.748  14.055  0.00  0.00    +0.000 Cl
ATOM     15  C   UNL     1       5.307   4.202  15.522  0.00  0.00    +0.000 A 
ATOM     16  C   UNL     1       4.375   4.446  16.547  0.00  0.00    +0.000 A 
ATOM     17 CL   UNL     1       2.999   3.401  16.581  0.00  0.00    +0.000 Cl
ENDBRANCH   3  10
BRANCH   1  19
ATOM     18  N   UNL     1       0.861   9.119  19.366  0.00  0.00    +0.000 N 
ATOM     19  C   UNL     1       1.539   8.272  20.220  0.00  0.00    +0.000 C 
ATOM     20  O   UNL     1       1.573   8.437  21.436  0.00  0.00    +0.000 OA
ATOM     21  H   UNL     1       0.908   8.897  18.375  0.00  0.00    +0.000 HD
BRANCH  18  23
ATOM     22  C   UNL     1      -0.415  10.105  21.259  0.00  0.00    +0.000 C 
ATOM     23  C   UNL     1       0.118  10.313  19.816  0.00  0.00    +0.000 C 
ATOM     24  C   UNL     1       1.058  11.547  19.876  0.00  0.00    +0.000 C 
BRANCH  23  25
ATOM     25  C   UNL     1      -1.052  10.572  18.835  0.00  0.00    +0.000 A 
ATOM     26  C   UNL     1      -2.070  11.500  19.130  0.00  0.00    +0.000 A 
ATOM     27  C   UNL     1      -3.152  11.701  18.265  0.00  0.00    +0.000 A 
ATOM     28  C   UNL     1      -3.235  10.995  17.071  0.00  0.00    +0.000 A 
ATOM     29  C   UNL     1      -2.230  10.095  16.738  0.00  0.00    +0.000 A 
ATOM     30  C   UNL     1      -1.149   9.893  17.604  0.00  0.00    +0.000 A 
ENDBRANCH  23  25
ENDBRANCH  18  23
ENDBRANCH   1  19
TORSDOF 4
ENDMDL
MODEL 5
REMARK VINA RESULT:      -7.7      1.403      1.569
REMARK  Name = 
REMARK  6 active torsions:
REMARK  status: ('A' for Active; 'I' for Inactive)
REMARK    1  A    between atoms: C_1  and  C_2
REMARK    2  A    between atoms: C_2  and  C_3
REMARK    3  A    between atoms: C_2  and  N_4
REMARK    4  A    between atoms: C_2  and  C_24
REMARK    5  A    between atoms: C_5  and  C_7
REMARK    6  A    between atoms: N_9  and  C_10
REMARK                            x       y       z     vdW  Elec       q    Type
REMARK                         _______ _______ _______ _____ _____    ______ ____
ROOT
ATOM      1  C   UNL     1       2.216   8.295  18.639  0.00  0.00    +0.000 A 
ATOM      2  N   UNL     1       2.019   9.499  18.036  0.00  0.00    +0.000 NA
ATOM      3  N   UNL     1       1.283  10.242  18.937  0.00  0.00    +0.000 N 
ATOM      4  C   UNL     1       1.059   9.513  20.066  0.00  0.00    +0.000 A 
ATOM      5  C   UNL     1       1.619   8.283  19.910  0.00  0.00    +0.000 A 
ATOM      6  C   UNL     1       1.247   7.304  20.961  0.00  0.00    +0.000 C 
ATOM      7  C   UNL     1       0.210   8.094  21.786  0.00  0.00    +0.000 C 
ATOM      8  C   UNL     1       0.643   9.227  22.658  0.00  0.00    +0.000 C 
ATOM      9  C   UNL     1       0.144   9.551  21.271  0.00  0.00    +0.000 C 
ENDROOT
BRANCH   3  10
ATOM     10  C   UNL     1       0.859  11.586  18.737  0.00  0.00    +0.000 A 
ATOM     11  C   UNL     1       1.837  12.603  18.848  0.00  0.00    +0.000 A 
ATOM     12  C   UNL     1       1.494  13.953  18.762  0.00  0.00    +0.000 A 
ATOM     13  C   UNL     1       0.167  14.305  18.557  0.00  0.00    +0.000 A 
ATOM     14 CL   UNL     1      -0.271  15.967  18.507  0.00  0.00    +0.000 Cl
ATOM     15  C   UNL     1      -0.805  13.319  18.412  0.00  0.00    +0.000 A 
ATOM     16  C   UNL     1      -0.470  11.955  18.491  0.00  0.00    +0.000 A 
ATOM     17 CL   UNL     1      -1.792  10.846  18.402  0.00  0.00    +0.000 Cl
ENDBRANCH   3  10
BRANCH   1  19
ATOM     18  N   UNL     1       4.271   7.161  17.992  0.00  0.00    +0.000 N 
ATOM     19  C   UNL     1       2.891   7.130  18.033  0.00  0.00    +0.000 C 
ATOM     20  O   UNL     1       2.232   6.197  17.583  0.00  0.00    +0.000 OA
ATOM     21  H   UNL     1       4.718   7.986  18.382  0.00  0.00    +0.000 HD
BRANCH  18  23
ATOM     22  C   UNL     1       4.993   6.129  15.848  0.00  0.00    +0.000 C 
ATOM     23  C   UNL     1       5.097   6.092  17.396  0.00  0.00    +0.000 C 
ATOM     24  C   UNL     1       6.597   6.311  17.733  0.00  0.00    +0.000 C 
BRANCH  23  25
ATOM     25  C   UNL     1       4.614   4.726  17.942  0.00  0.00    +0.000 A 
ATOM     26  C   UNL     1       4.088   3.735  17.088  0.00  0.00    +0.000 A 
ATOM     27  C   UNL     1       3.608   2.517  17.587  0.00  0.00    +0.000 A 
ATOM     28  C   UNL     1       3.660   2.249  18.949  0.00  0.00    +0.000 A 
ATOM     29  C   UNL     1       4.201   3.194  19.812  0.00  0.00    +0.000 A 
ATOM     30  C   UNL     1       4.680   4.412  19.314  0.00  0.00    +0.000 A 
ENDBRANCH  23  25
ENDBRANCH  18  23
ENDBRANCH   1  19
TORSDOF 4
ENDMDL
MODEL 6
REMARK VINA RESULT:      -7.7      0.886      2.551
REMARK  Name = 
REMARK  6 active torsions:
REMARK  status: ('A' for Active; 'I' for Inactive)
REMARK    1  A    between atoms: C_1  and  C_2
REMARK    2  A    between atoms: C_2  and  C_3
REMARK    3  A    between atoms: C_2  and  N_4
REMARK    4  A    between atoms: C_2  and  C_24
REMARK    5  A    between atoms: C_5  and  C_7
REMARK    6  A    between atoms: N_9  and  C_10
REMARK                            x       y       z     vdW  Elec       q    Type
REMARK                         _______ _______ _______ _____ _____    ______ ____
ROOT
ATOM      1  C   UNL     1       1.869   8.588  19.003  0.00  0.00    +0.000 A 
ATOM      2  N   UNL     1       1.906   9.808  18.401  0.00  0.00    +0.000 NA
ATOM      3  N   UNL     1       1.236  10.658  19.257  0.00  0.00    +0.000 N 
ATOM      4  C   UNL     1       0.824   9.974  20.362  0.00  0.00    +0.000 A 
ATOM      5  C   UNL     1       1.192   8.671  20.231  0.00  0.00    +0.000 A 
ATOM      6  C   UNL     1       0.600   7.764  21.245  0.00  0.00    +0.000 C 
ATOM      7  C   UNL     1      -0.353   8.708  22.006  0.00  0.00    +0.000 C 
ATOM      8  C   UNL     1       0.192   9.759  22.916  0.00  0.00    +0.000 C 
ATOM      9  C   UNL     1      -0.154  10.157  21.502  0.00  0.00    +0.000 C 
ENDROOT
BRANCH   3  10
ATOM     10  C   UNL     1       1.044  12.052  19.043  0.00  0.00    +0.000 A 
ATOM     11  C   UNL     1       2.135  12.911  19.313  0.00  0.00    +0.000 A 
ATOM     12  C   UNL     1       2.008  14.298  19.223  0.00  0.00    +0.000 A 
ATOM     13  C   UNL     1       0.787  14.845  18.853  0.00  0.00    +0.000 A 
ATOM     14 CL   UNL     1       0.606  16.554  18.795  0.00  0.00    +0.000 Cl
ATOM     15  C   UNL     1      -0.290  14.015  18.551  0.00  0.00    +0.000 A 
ATOM     16  C   UNL     1      -0.171  12.616  18.633  0.00  0.00    +0.000 A 
ATOM     17 CL   UNL     1      -1.616  11.716  18.335  0.00  0.00    +0.000 Cl
ENDBRANCH   3  10
BRANCH   1  19
ATOM     18  N   UNL     1       2.345   6.212  19.241  0.00  0.00    +0.000 N 
ATOM     19  C   UNL     1       2.393   7.331  18.433  0.00  0.00    +0.000 C 
ATOM     20  O   UNL     1       2.856   7.312  17.296  0.00  0.00    +0.000 OA
ATOM     21  H   UNL     1       1.953   6.339  20.170  0.00  0.00    +0.000 HD
BRANCH  18  23
ATOM     22  C   UNL     1       2.702   3.870  19.999  0.00  0.00    +0.000 C 
ATOM     23  C   UNL     1       2.853   4.886  18.835  0.00  0.00    +0.000 C 
ATOM     24  C   UNL     1       2.015   4.320  17.657  0.00  0.00    +0.000 C 
BRANCH  23  25
ATOM     25  C   UNL     1       4.339   5.026  18.424  0.00  0.00    +0.000 A 
ATOM     26  C   UNL     1       5.329   5.403  19.354  0.00  0.00    +0.000 A 
ATOM     27  C   UNL     1       6.665   5.575  18.972  0.00  0.00    +0.000 A 
ATOM     28  C   UNL     1       7.052   5.355  17.656  0.00  0.00    +0.000 A 
ATOM     29  C   UNL     1       6.104   4.953  16.723  0.00  0.00    +0.000 A 
ATOM     30  C   UNL     1       4.768   4.782  17.104  0.00  0.00    +0.000 A 
ENDBRANCH  23  25
ENDBRANCH  18  23
ENDBRANCH   1  19
TORSDOF 4
ENDMDL
MODEL 7
REMARK VINA RESULT:      -7.6      1.052      1.590
REMARK  Name = 
REMARK  6 active torsions:
REMARK  status: ('A' for Active; 'I' for Inactive)
REMARK    1  A    between atoms: C_1  and  C_2
REMARK    2  A    between atoms: C_2  and  C_3
REMARK    3  A    between atoms: C_2  and  N_4
REMARK    4  A    between atoms: C_2  and  C_24
REMARK    5  A    between atoms: C_5  and  C_7
REMARK    6  A    between atoms: N_9  and  C_10
REMARK                            x       y       z     vdW  Elec       q    Type
REMARK                         _______ _______ _______ _____ _____    ______ ____
ROOT
ATOM      1  C   UNL     1       1.610   8.953  19.158  0.00  0.00    +0.000 A 
ATOM      2  N   UNL     1       1.526  10.212  18.647  0.00  0.00    +0.000 NA
ATOM      3  N   UNL     1       0.851  10.948  19.599  0.00  0.00    +0.000 N 
ATOM      4  C   UNL     1       0.554  10.159  20.671  0.00  0.00    +0.000 A 
ATOM      5  C   UNL     1       1.004   8.900  20.423  0.00  0.00    +0.000 A 
ATOM      6  C   UNL     1       0.538   7.882  21.398  0.00  0.00    +0.000 C 
ATOM      7  C   UNL     1      -0.431   8.698  22.278  0.00  0.00    +0.000 C 
ATOM      8  C   UNL     1       0.093   9.720  23.233  0.00  0.00    +0.000 C 
ATOM      9  C   UNL     1      -0.364  10.189  21.873  0.00  0.00    +0.000 C 
ENDROOT
BRANCH   3  10
ATOM     10  C   UNL     1       0.549  12.336  19.500  0.00  0.00    +0.000 A 
ATOM     11  C   UNL     1      -0.721  12.763  19.955  0.00  0.00    +0.000 A 
ATOM     12  C   UNL     1      -1.137  14.087  19.808  0.00  0.00    +0.000 A 
ATOM     13  C   UNL     1      -0.284  15.005  19.212  0.00  0.00    +0.000 A 
ATOM     14 CL   UNL     1      -0.813  16.625  18.977  0.00  0.00    +0.000 Cl
ATOM     15  C   UNL     1       0.983  14.612  18.788  0.00  0.00    +0.000 A 
ATOM     16  C   UNL     1       1.415  13.282  18.936  0.00  0.00    +0.000 A 
ATOM     17 CL   UNL     1       2.966  12.913  18.268  0.00  0.00    +0.000 Cl
ENDBRANCH   3  10
BRANCH   1  19
ATOM     18  N   UNL     1       3.068   7.003  19.190  0.00  0.00    +0.000 N 
ATOM     19  C   UNL     1       2.185   7.781  18.468  0.00  0.00    +0.000 C 
ATOM     20  O   UNL     1       1.885   7.542  17.301  0.00  0.00    +0.000 OA
ATOM     21  H   UNL     1       3.256   7.297  20.144  0.00  0.00    +0.000 HD
BRANCH  18  23
ATOM     22  C   UNL     1       4.197   6.078  17.177  0.00  0.00    +0.000 C 
ATOM     23  C   UNL     1       3.752   5.815  18.640  0.00  0.00    +0.000 C 
ATOM     24  C   UNL     1       5.048   5.516  19.439  0.00  0.00    +0.000 C 
BRANCH  23  25
ATOM     25  C   UNL     1       2.784   4.608  18.708  0.00  0.00    +0.000 A 
ATOM     26  C   UNL     1       1.789   4.514  19.701  0.00  0.00    +0.000 A 
ATOM     27  C   UNL     1       0.945   3.401  19.791  0.00  0.00    +0.000 A 
ATOM     28  C   UNL     1       1.059   2.361  18.877  0.00  0.00    +0.000 A 
ATOM     29  C   UNL     1       2.010   2.438  17.868  0.00  0.00    +0.000 A 
ATOM     30  C   UNL     1       2.855   3.551  17.779  0.00  0.00    +0.000 A 
ENDBRANCH  23  25
ENDBRANCH  18  23
ENDBRANCH   1  19
TORSDOF 4
ENDMDL
MODEL 8
REMARK VINA RESULT:      -7.5      1.014      1.461
REMARK  Name = 
REMARK  6 active torsions:
REMARK  status: ('A' for Active; 'I' for Inactive)
REMARK    1  A    between atoms: C_1  and  C_2
REMARK    2  A    between atoms: C_2  and  C_3
REMARK    3  A    between atoms: C_2  and  N_4
REMARK    4  A    between atoms: C_2  and  C_24
REMARK    5  A    between atoms: C_5  and  C_7
REMARK    6  A    between atoms: N_9  and  C_10
REMARK                            x       y       z     vdW  Elec       q    Type
REMARK                         _______ _______ _______ _____ _____    ______ ____
ROOT
ATOM      1  C   UNL     1       1.826   8.868  18.967  0.00  0.00    +0.000 A 
ATOM      2  N   UNL     1       1.851  10.118  18.429  0.00  0.00    +0.000 NA
ATOM      3  N   UNL     1       1.163  10.915  19.321  0.00  0.00    +0.000 N 
ATOM      4  C   UNL     1       0.752  10.169  20.386  0.00  0.00    +0.000 A 
ATOM      5  C   UNL     1       1.138   8.880  20.191  0.00  0.00    +0.000 A 
ATOM      6  C   UNL     1       0.550   7.914  21.152  0.00  0.00    +0.000 C 
ATOM      7  C   UNL     1      -0.422   8.805  21.952  0.00  0.00    +0.000 C 
ATOM      8  C   UNL     1       0.102   9.815  22.920  0.00  0.00    +0.000 C 
ATOM      9  C   UNL     1      -0.238  10.281  21.526  0.00  0.00    +0.000 C 
ENDROOT
BRANCH   3  10
ATOM     10  C   UNL     1       0.954  12.315  19.178  0.00  0.00    +0.000 A 
ATOM     11  C   UNL     1       1.942  13.181  19.704  0.00  0.00    +0.000 A 
ATOM     12  C   UNL     1       1.774  14.566  19.693  0.00  0.00    +0.000 A 
ATOM     13  C   UNL     1       0.618  15.105  19.147  0.00  0.00    +0.000 A 
ATOM     14 CL   UNL     1       0.379  16.809  19.181  0.00  0.00    +0.000 Cl
ATOM     15  C   UNL     1      -0.351  14.273  18.594  0.00  0.00    +0.000 A 
ATOM     16  C   UNL     1      -0.190  12.875  18.594  0.00  0.00    +0.000 A 
ATOM     17 CL   UNL     1      -1.518  11.961  17.974  0.00  0.00    +0.000 Cl
ENDBRANCH   3  10
BRANCH   1  19
ATOM     18  N   UNL     1       2.038   6.443  18.922  0.00  0.00    +0.000 N 
ATOM     19  C   UNL     1       2.371   7.649  18.337  0.00  0.00    +0.000 C 
ATOM     20  O   UNL     1       3.095   7.733  17.349  0.00  0.00    +0.000 OA
ATOM     21  H   UNL     1       1.443   6.487  19.745  0.00  0.00    +0.000 HD
BRANCH  18  23
ATOM     22  C   UNL     1       1.652   4.646  17.247  0.00  0.00    +0.000 C 
ATOM     23  C   UNL     1       2.522   5.136  18.436  0.00  0.00    +0.000 C 
ATOM     24  C   UNL     1       3.970   5.261  17.889  0.00  0.00    +0.000 C 
BRANCH  23  25
ATOM     25  C   UNL     1       2.471   4.119  19.603  0.00  0.00    +0.000 A 
ATOM     26  C   UNL     1       1.328   3.988  20.417  0.00  0.00    +0.000 A 
ATOM     27  C   UNL     1       1.298   3.102  21.501  0.00  0.00    +0.000 A 
ATOM     28  C   UNL     1       2.402   2.310  21.789  0.00  0.00    +0.000 A 
ATOM     29  C   UNL     1       3.533   2.395  20.986  0.00  0.00    +0.000 A 
ATOM     30  C   UNL     1       3.563   3.281  19.903  0.00  0.00    +0.000 A 
ENDBRANCH  23  25
ENDBRANCH  18  23
ENDBRANCH   1  19
TORSDOF 4
ENDMDL
MODEL 9
REMARK VINA RESULT:      -7.4      4.585      8.358
REMARK  Name = 
REMARK  6 active torsions:
REMARK  status: ('A' for Active; 'I' for Inactive)
REMARK    1  A    between atoms: C_1  and  C_2
REMARK    2  A    between atoms: C_2  and  C_3
REMARK    3  A    between atoms: C_2  and  N_4
REMARK    4  A    between atoms: C_2  and  C_24
REMARK    5  A    between atoms: C_5  and  C_7
REMARK    6  A    between atoms: N_9  and  C_10
REMARK                            x       y       z     vdW  Elec       q    Type
REMARK                         _______ _______ _______ _____ _____    ______ ____
ROOT
ATOM      1  C   UNL     1      -1.931  11.140  18.463  0.00  0.00    +0.000 A 
ATOM      2  N   UNL     1      -1.344   9.913  18.514  0.00  0.00    +0.000 NA
ATOM      3  N   UNL     1      -0.019  10.154  18.817  0.00  0.00    +0.000 N 
ATOM      4  C   UNL     1       0.186  11.494  18.967  0.00  0.00    +0.000 A 
ATOM      5  C   UNL     1      -0.987  12.143  18.740  0.00  0.00    +0.000 A 
ATOM      6  C   UNL     1      -0.858  13.617  18.633  0.00  0.00    +0.000 C 
ATOM      7  C   UNL     1       0.670  13.814  18.701  0.00  0.00    +0.000 C 
ATOM      8  C   UNL     1       1.402  13.604  19.986  0.00  0.00    +0.000 C 
ATOM      9  C   UNL     1       1.351  12.459  19.004  0.00  0.00    +0.000 C 
ENDROOT
BRANCH   3  10
ATOM     10  C   UNL     1       0.976   9.153  18.992  0.00  0.00    +0.000 A 
ATOM     11  C   UNL     1       1.782   8.828  17.875  0.00  0.00    +0.000 A 
ATOM     12  C   UNL     1       2.717   7.793  17.929  0.00  0.00    +0.000 A 
ATOM     13  C   UNL     1       2.864   7.073  19.106  0.00  0.00    +0.000 A 
ATOM     14 CL   UNL     1       3.974   5.759  19.162  0.00  0.00    +0.000 Cl
ATOM     15  C   UNL     1       2.105   7.398  20.227  0.00  0.00    +0.000 A 
ATOM     16  C   UNL     1       1.164   8.443  20.186  0.00  0.00    +0.000 A 
ATOM     17 CL   UNL     1       0.218   8.664  21.614  0.00  0.00    +0.000 Cl
ENDBRANCH   3  10
BRANCH   1  19
ATOM     18  N   UNL     1      -4.062  12.209  18.956  0.00  0.00    +0.000 N 
ATOM     19  C   UNL     1      -3.336  11.408  18.097  0.00  0.00    +0.000 C 
ATOM     20  O   UNL     1      -3.814  10.916  17.078  0.00  0.00    +0.000 OA
ATOM     21  H   UNL     1      -3.573  12.554  19.777  0.00  0.00    +0.000 HD
BRANCH  18  23
ATOM     22  C   UNL     1      -5.779  13.979  19.280  0.00  0.00    +0.000 C 
ATOM     23  C   UNL     1      -5.485  12.549  18.752  0.00  0.00    +0.000 C 
ATOM     24  C   UNL     1      -5.828  12.569  17.238  0.00  0.00    +0.000 C 
BRANCH  23  25
ATOM     25  C   UNL     1      -6.357  11.505  19.491  0.00  0.00    +0.000 A 
ATOM     26  C   UNL     1      -7.011  11.813  20.701  0.00  0.00    +0.000 A 
ATOM     27  C   UNL     1      -7.763  10.856  21.393  0.00  0.00    +0.000 A 
ATOM     28  C   UNL     1      -7.898   9.570  20.884  0.00  0.00    +0.000 A 
ATOM     29  C   UNL     1      -7.290   9.245  19.677  0.00  0.00    +0.000 A 
ATOM     30  C   UNL     1      -6.538  10.202  18.986  0.00  0.00    +0.000 A 
ENDBRANCH  23  25
ENDBRANCH  18  23
ENDBRANCH   1  19
TORSDOF 4
ENDMDL
