MODEL 1
REMARK VINA RESULT:      -7.6      0.000      0.000
REMARK  Name = 
REMARK  6 active torsions:
REMARK  status: ('A' for Active; 'I' for Inactive)
REMARK    1  A    between atoms: C_1  and  O_2
REMARK    2  A    between atoms: O_2  and  C_3
REMARK    3  A    between atoms: C_3  and  C_4
REMARK    4  A    between atoms: C_5  and  C_6
REMARK    5  A    between atoms: N_8  and  N_9
REMARK    6  A    between atoms: C_10  and  C_11
REMARK                            x       y       z     vdW  Elec       q    Type
REMARK                         _______ _______ _______ _____ _____    ______ ____
ROOT
ATOM      1  C   UNL     1       5.104   4.810  18.033  0.00  0.00    +0.000 A 
ATOM      2  C   UNL     1       5.519   4.327  16.795  0.00  0.00    +0.000 A 
ATOM      3  N   UNL     1       4.582   3.424  16.352  0.00  0.00    +0.000 NA
ATOM      4  N   UNL     1       3.633   3.314  17.266  0.00  0.00    +0.000 NA
ATOM      5  N   UNL     1       3.811   4.299  18.180  0.00  0.00    +0.000 N 
ATOM      6  C   UNL     1       2.851   4.588  19.181  0.00  0.00    +0.000 A 
ATOM      7  N   UNL     1       2.714   5.826  19.658  0.00  0.00    +0.000 NA
ATOM      8  O   UNL     1       1.754   5.690  20.661  0.00  0.00    +0.000 OA
ATOM      9  N   UNL     1       1.321   4.371  20.776  0.00  0.00    +0.000 NA
ATOM     10  C   UNL     1       2.004   3.691  19.855  0.00  0.00    +0.000 A 
ATOM     11  N   UNL     1       1.960   2.353  19.712  0.00  0.00    +0.000 N 
ATOM     12  H   UNL     1       1.300   1.810  20.257  0.00  0.00    +0.000 HD
ATOM     13  H   UNL     1       2.396   1.863  18.935  0.00  0.00    +0.000 HD
ENDROOT
BRANCH   2  14
ATOM     14  C   UNL     1       6.711   4.611  15.990  0.00  0.00    +0.000 C 
ATOM     15  O   UNL     1       7.838   4.438  16.454  0.00  0.00    +0.000 OA
ATOM     16  N   UNL     1       6.477   5.142  14.727  0.00  0.00    +0.000 N 
ATOM     17  H   UNL     1       5.572   5.545  14.489  0.00  0.00    +0.000 HD
BRANCH  16  18
ATOM     18  N   UNL     1       7.536   5.494  13.930  0.00  0.00    +0.000 NA
ATOM     19  C   UNL     1       7.723   4.816  12.839  0.00  0.00    +0.000 C 
BRANCH  19  20
ATOM     20  C   UNL     1       6.907   3.714  12.271  0.00  0.00    +0.000 A 
ATOM     21  C   UNL     1       7.558   2.653  11.659  0.00  0.00    +0.000 A 
ATOM     22  C   UNL     1       6.777   1.663  11.065  0.00  0.00    +0.000 A 
ATOM     23  C   UNL     1       5.394   1.755  11.134  0.00  0.00    +0.000 A 
ATOM     24  C   UNL     1       4.837   2.840  11.792  0.00  0.00    +0.000 A 
ATOM     25  N   UNL     1       5.553   3.841  12.348  0.00  0.00    +0.000 NA
ENDBRANCH  19  20
ENDBRANCH  16  18
ENDBRANCH   2  14
BRANCH   1  26
ATOM     26  C   UNL     1       5.784   5.616  19.076  0.00  0.00    +0.000 C 
BRANCH  26  28
ATOM     27  C   UNL     1       8.134   5.699  19.681  0.00  0.00    +0.000 C 
ATOM     28  O   UNL     1       6.945   4.933  19.553  0.00  0.00    +0.000 OA
ENDBRANCH  26  28
ENDBRANCH   1  26
TORSDOF 5
ENDMDL
MODEL 2
REMARK VINA RESULT:      -7.6      1.144      1.159
REMARK  Name = 
REMARK  6 active torsions:
REMARK  status: ('A' for Active; 'I' for Inactive)
REMARK    1  A    between atoms: C_1  and  O_2
REMARK    2  A    between atoms: O_2  and  C_3
REMARK    3  A    between atoms: C_3  and  C_4
REMARK    4  A    between atoms: C_5  and  C_6
REMARK    5  A    between atoms: N_8  and  N_9
REMARK    6  A    between atoms: C_10  and  C_11
REMARK                            x       y       z     vdW  Elec       q    Type
REMARK                         _______ _______ _______ _____ _____    ______ ____
ROOT
ATOM      1  C   UNL     1       4.613   4.692  18.144  0.00  0.00    +0.000 A 
ATOM      2  C   UNL     1       4.693   4.833  16.761  0.00  0.00    +0.000 A 
ATOM      3  N   UNL     1       3.666   4.112  16.197  0.00  0.00    +0.000 NA
ATOM      4  N   UNL     1       2.982   3.522  17.163  0.00  0.00    +0.000 NA
ATOM      5  N   UNL     1       3.395   4.033  18.347  0.00  0.00    +0.000 N 
ATOM      6  C   UNL     1       2.726   3.764  19.566  0.00  0.00    +0.000 A 
ATOM      7  N   UNL     1       2.726   4.656  20.557  0.00  0.00    +0.000 NA
ATOM      8  O   UNL     1       2.053   4.003  21.591  0.00  0.00    +0.000 OA
ATOM      9  N   UNL     1       1.654   2.724  21.209  0.00  0.00    +0.000 NA
ATOM     10  C   UNL     1       2.073   2.579  19.952  0.00  0.00    +0.000 A 
ATOM     11  N   UNL     1       1.983   1.436  19.249  0.00  0.00    +0.000 N 
ATOM     12  H   UNL     1       1.480   0.645  19.636  0.00  0.00    +0.000 HD
ATOM     13  H   UNL     1       2.202   1.374  18.258  0.00  0.00    +0.000 HD
ENDROOT
BRANCH   2  14
ATOM     14  C   UNL     1       5.641   5.558  15.911  0.00  0.00    +0.000 C 
ATOM     15  O   UNL     1       5.451   6.740  15.625  0.00  0.00    +0.000 OA
ATOM     16  N   UNL     1       6.701   4.811  15.408  0.00  0.00    +0.000 N 
ATOM     17  H   UNL     1       6.670   3.792  15.415  0.00  0.00    +0.000 HD
BRANCH  16  18
ATOM     18  N   UNL     1       7.601   5.394  14.555  0.00  0.00    +0.000 NA
ATOM     19  C   UNL     1       7.627   4.975  13.326  0.00  0.00    +0.000 C 
BRANCH  19  20
ATOM     20  C   UNL     1       6.768   3.963  12.665  0.00  0.00    +0.000 A 
ATOM     21  C   UNL     1       7.372   2.985  11.887  0.00  0.00    +0.000 A 
ATOM     22  C   UNL     1       6.548   2.087  11.212  0.00  0.00    +0.000 A 
ATOM     23  C   UNL     1       5.171   2.179  11.366  0.00  0.00    +0.000 A 
ATOM     24  C   UNL     1       4.665   3.173  12.187  0.00  0.00    +0.000 A 
ATOM     25  N   UNL     1       5.422   4.088  12.829  0.00  0.00    +0.000 NA
ENDBRANCH  19  20
ENDBRANCH  16  18
ENDBRANCH   2  14
BRANCH   1  26
ATOM     26  C   UNL     1       5.542   5.041  19.245  0.00  0.00    +0.000 C 
BRANCH  26  28
ATOM     27  C   UNL     1       7.833   5.795  18.961  0.00  0.00    +0.000 C 
ATOM     28  O   UNL     1       6.889   4.738  18.872  0.00  0.00    +0.000 OA
ENDBRANCH  26  28
ENDBRANCH   1  26
TORSDOF 5
ENDMDL
MODEL 3
REMARK VINA RESULT:      -7.4      3.411      5.828
REMARK  Name = 
REMARK  6 active torsions:
REMARK  status: ('A' for Active; 'I' for Inactive)
REMARK    1  A    between atoms: C_1  and  O_2
REMARK    2  A    between atoms: O_2  and  C_3
REMARK    3  A    between atoms: C_3  and  C_4
REMARK    4  A    between atoms: C_5  and  C_6
REMARK    5  A    between atoms: N_8  and  N_9
REMARK    6  A    between atoms: C_10  and  C_11
REMARK                            x       y       z     vdW  Elec       q    Type
REMARK                         _______ _______ _______ _____ _____    ______ ____
ROOT
ATOM      1  C   UNL     1       2.145   6.653  19.831  0.00  0.00    +0.000 A 
ATOM      2  C   UNL     1       2.928   6.455  18.697  0.00  0.00    +0.000 A 
ATOM      3  N   UNL     1       2.848   7.586  17.919  0.00  0.00    +0.000 NA
ATOM      4  N   UNL     1       2.038   8.450  18.508  0.00  0.00    +0.000 NA
ATOM      5  N   UNL     1       1.781   8.002  19.760  0.00  0.00    +0.000 N 
ATOM      6  C   UNL     1       1.110   8.791  20.726  0.00  0.00    +0.000 A 
ATOM      7  N   UNL     1       1.365   8.642  22.027  0.00  0.00    +0.000 NA
ATOM      8  O   UNL     1       0.466   9.513  22.643  0.00  0.00    +0.000 OA
ATOM      9  N   UNL     1      -0.319  10.180  21.706  0.00  0.00    +0.000 NA
ATOM     10  C   UNL     1       0.083   9.729  20.518  0.00  0.00    +0.000 A 
ATOM     11  N   UNL     1      -0.504  10.043  19.348  0.00  0.00    +0.000 N 
ATOM     12  H   UNL     1      -1.238  10.743  19.325  0.00  0.00    +0.000 HD
ATOM     13  H   UNL     1      -0.116   9.784  18.445  0.00  0.00    +0.000 HD
ENDROOT
BRANCH   2  14
ATOM     14  C   UNL     1       3.732   5.311  18.257  0.00  0.00    +0.000 C 
ATOM     15  O   UNL     1       4.105   4.459  19.064  0.00  0.00    +0.000 OA
ATOM     16  N   UNL     1       4.089   5.301  16.914  0.00  0.00    +0.000 N 
ATOM     17  H   UNL     1       4.024   6.148  16.350  0.00  0.00    +0.000 HD
BRANCH  16  18
ATOM     18  N   UNL     1       4.892   4.300  16.431  0.00  0.00    +0.000 NA
ATOM     19  C   UNL     1       6.176   4.438  16.565  0.00  0.00    +0.000 C 
BRANCH  19  20
ATOM     20  C   UNL     1       6.935   5.524  17.231  0.00  0.00    +0.000 A 
ATOM     21  C   UNL     1       7.548   5.256  18.447  0.00  0.00    +0.000 A 
ATOM     22  C   UNL     1       8.194   6.306  19.097  0.00  0.00    +0.000 A 
ATOM     23  C   UNL     1       8.231   7.557  18.497  0.00  0.00    +0.000 A 
ATOM     24  C   UNL     1       7.613   7.718  17.267  0.00  0.00    +0.000 A 
ATOM     25  N   UNL     1       6.943   6.741  16.621  0.00  0.00    +0.000 NA
ENDBRANCH  19  20
ENDBRANCH  16  18
ENDBRANCH   2  14
BRANCH   1  26
ATOM     26  C   UNL     1       1.672   5.738  20.897  0.00  0.00    +0.000 C 
BRANCH  26  28
ATOM     27  C   UNL     1       1.214   3.355  20.790  0.00  0.00    +0.000 C 
ATOM     28  O   UNL     1       0.915   4.666  20.331  0.00  0.00    +0.000 OA
ENDBRANCH  26  28
ENDBRANCH   1  26
TORSDOF 5
ENDMDL
MODEL 4
REMARK VINA RESULT:      -7.2      1.973      7.107
REMARK  Name = 
REMARK  6 active torsions:
REMARK  status: ('A' for Active; 'I' for Inactive)
REMARK    1  A    between atoms: C_1  and  O_2
REMARK    2  A    between atoms: O_2  and  C_3
REMARK    3  A    between atoms: C_3  and  C_4
REMARK    4  A    between atoms: C_5  and  C_6
REMARK    5  A    between atoms: N_8  and  N_9
REMARK    6  A    between atoms: C_10  and  C_11
REMARK                            x       y       z     vdW  Elec       q    Type
REMARK                         _______ _______ _______ _____ _____    ______ ____
ROOT
ATOM      1  C   UNL     1       5.514   5.716  16.351  0.00  0.00    +0.000 A 
ATOM      2  C   UNL     1       4.911   5.082  17.434  0.00  0.00    +0.000 A 
ATOM      3  N   UNL     1       4.814   3.741  17.145  0.00  0.00    +0.000 NA
ATOM      4  N   UNL     1       5.303   3.532  15.934  0.00  0.00    +0.000 NA
ATOM      5  N   UNL     1       5.930   4.663  15.530  0.00  0.00    +0.000 N 
ATOM      6  C   UNL     1       6.733   4.711  14.365  0.00  0.00    +0.000 A 
ATOM      7  N   UNL     1       7.767   5.550  14.282  0.00  0.00    +0.000 NA
ATOM      8  O   UNL     1       8.240   5.364  12.982  0.00  0.00    +0.000 OA
ATOM      9  N   UNL     1       7.488   4.413  12.298  0.00  0.00    +0.000 NA
ATOM     10  C   UNL     1       6.554   4.010  13.158  0.00  0.00    +0.000 A 
ATOM     11  N   UNL     1       5.549   3.170  12.850  0.00  0.00    +0.000 N 
ATOM     12  H   UNL     1       5.529   2.720  11.941  0.00  0.00    +0.000 HD
ATOM     13  H   UNL     1       4.914   2.784  13.544  0.00  0.00    +0.000 HD
ENDROOT
BRANCH   2  14
ATOM     14  C   UNL     1       4.400   5.603  18.705  0.00  0.00    +0.000 C 
ATOM     15  O   UNL     1       4.968   5.338  19.765  0.00  0.00    +0.000 OA
ATOM     16  N   UNL     1       3.222   6.337  18.631  0.00  0.00    +0.000 N 
ATOM     17  H   UNL     1       2.629   6.289  17.804  0.00  0.00    +0.000 HD
BRANCH  16  18
ATOM     18  N   UNL     1       2.642   6.810  19.780  0.00  0.00    +0.000 NA
ATOM     19  C   UNL     1       1.907   5.989  20.467  0.00  0.00    +0.000 C 
BRANCH  19  20
ATOM     20  C   UNL     1       1.631   4.552  20.222  0.00  0.00    +0.000 A 
ATOM     21  C   UNL     1       1.792   3.657  21.271  0.00  0.00    +0.000 A 
ATOM     22  C   UNL     1       1.602   2.302  21.007  0.00  0.00    +0.000 A 
ATOM     23  C   UNL     1       1.231   1.903  19.731  0.00  0.00    +0.000 A 
ATOM     24  C   UNL     1       1.068   2.875  18.757  0.00  0.00    +0.000 A 
ATOM     25  N   UNL     1       1.279   4.193  18.957  0.00  0.00    +0.000 NA
ENDBRANCH  19  20
ENDBRANCH  16  18
ENDBRANCH   2  14
BRANCH   1  26
ATOM     26  C   UNL     1       5.683   7.144  15.990  0.00  0.00    +0.000 C 
BRANCH  26  28
ATOM     27  C   UNL     1       7.631   7.440  17.410  0.00  0.00    +0.000 C 
ATOM     28  O   UNL     1       6.319   7.853  17.056  0.00  0.00    +0.000 OA
ENDBRANCH  26  28
ENDBRANCH   1  26
TORSDOF 5
ENDMDL
MODEL 5
REMARK VINA RESULT:      -7.2      3.968      8.556
REMARK  Name = 
REMARK  6 active torsions:
REMARK  status: ('A' for Active; 'I' for Inactive)
REMARK    1  A    between atoms: C_1  and  O_2
REMARK    2  A    between atoms: O_2  and  C_3
REMARK    3  A    between atoms: C_3  and  C_4
REMARK    4  A    between atoms: C_5  and  C_6
REMARK    5  A    between atoms: N_8  and  N_9
REMARK    6  A    between atoms: C_10  and  C_11
REMARK                            x       y       z     vdW  Elec       q    Type
REMARK                         _______ _______ _______ _____ _____    ______ ____
ROOT
ATOM      1  C   UNL     1       4.000   5.152  18.618  0.00  0.00    +0.000 A 
ATOM      2  C   UNL     1       3.171   6.189  19.037  0.00  0.00    +0.000 A 
ATOM      3  N   UNL     1       3.520   7.323  18.343  0.00  0.00    +0.000 NA
ATOM      4  N   UNL     1       4.534   7.036  17.543  0.00  0.00    +0.000 NA
ATOM      5  N   UNL     1       4.692   5.690  17.528  0.00  0.00    +0.000 N 
ATOM      6  C   UNL     1       5.558   5.037  16.618  0.00  0.00    +0.000 A 
ATOM      7  N   UNL     1       5.298   3.799  16.196  0.00  0.00    +0.000 NA
ATOM      8  O   UNL     1       6.399   3.483  15.399  0.00  0.00    +0.000 OA
ATOM      9  N   UNL     1       7.310   4.535  15.350  0.00  0.00    +0.000 NA
ATOM     10  C   UNL     1       6.785   5.497  16.107  0.00  0.00    +0.000 A 
ATOM     11  N   UNL     1       7.410   6.649  16.412  0.00  0.00    +0.000 N 
ATOM     12  H   UNL     1       8.297   6.873  15.974  0.00  0.00    +0.000 HD
ATOM     13  H   UNL     1       6.953   7.419  16.894  0.00  0.00    +0.000 HD
ENDROOT
BRANCH   2  14
ATOM     14  C   UNL     1       2.096   6.234  20.033  0.00  0.00    +0.000 C 
ATOM     15  O   UNL     1       1.430   5.229  20.283  0.00  0.00    +0.000 OA
ATOM     16  N   UNL     1       1.847   7.478  20.602  0.00  0.00    +0.000 N 
ATOM     17  H   UNL     1       2.202   8.330  20.169  0.00  0.00    +0.000 HD
BRANCH  16  18
ATOM     18  N   UNL     1       0.819   7.623  21.497  0.00  0.00    +0.000 NA
ATOM     19  C   UNL     1       0.212   8.770  21.539  0.00  0.00    +0.000 C 
BRANCH  19  20
ATOM     20  C   UNL     1       0.430   9.974  20.700  0.00  0.00    +0.000 A 
ATOM     21  C   UNL     1       0.412  11.220  21.311  0.00  0.00    +0.000 A 
ATOM     22  C   UNL     1       0.544  12.346  20.501  0.00  0.00    +0.000 A 
ATOM     23  C   UNL     1       0.720  12.183  19.133  0.00  0.00    +0.000 A 
ATOM     24  C   UNL     1       0.752  10.896  18.621  0.00  0.00    +0.000 A 
ATOM     25  N   UNL     1       0.590   9.780  19.362  0.00  0.00    +0.000 NA
ENDBRANCH  19  20
ENDBRANCH  16  18
ENDBRANCH   2  14
BRANCH   1  26
ATOM     26  C   UNL     1       4.245   3.788  19.144  0.00  0.00    +0.000 C 
BRANCH  26  28
ATOM     27  C   UNL     1       3.517   1.576  18.455  0.00  0.00    +0.000 C 
ATOM     28  O   UNL     1       3.173   2.915  18.778  0.00  0.00    +0.000 OA
ENDBRANCH  26  28
ENDBRANCH   1  26
TORSDOF 5
ENDMDL
MODEL 6
REMARK VINA RESULT:      -7.1      4.516      7.292
REMARK  Name = 
REMARK  6 active torsions:
REMARK  status: ('A' for Active; 'I' for Inactive)
REMARK    1  A    between atoms: C_1  and  O_2
REMARK    2  A    between atoms: O_2  and  C_3
REMARK    3  A    between atoms: C_3  and  C_4
REMARK    4  A    between atoms: C_5  and  C_6
REMARK    5  A    between atoms: N_8  and  N_9
REMARK    6  A    between atoms: C_10  and  C_11
REMARK                            x       y       z     vdW  Elec       q    Type
REMARK                         _______ _______ _______ _____ _____    ______ ____
ROOT
ATOM      1  C   UNL     1       1.483   8.642  19.846  0.00  0.00    +0.000 A 
ATOM      2  C   UNL     1       1.959   7.842  18.811  0.00  0.00    +0.000 A 
ATOM      3  N   UNL     1       1.902   8.571  17.647  0.00  0.00    +0.000 NA
ATOM      4  N   UNL     1       1.393   9.762  17.916  0.00  0.00    +0.000 NA
ATOM      5  N   UNL     1       1.341   9.905  19.262  0.00  0.00    +0.000 N 
ATOM      6  C   UNL     1       1.036  11.140  19.884  0.00  0.00    +0.000 A 
ATOM      7  N   UNL     1       1.537  11.445  21.081  0.00  0.00    +0.000 NA
ATOM      8  O   UNL     1       0.950  12.675  21.383  0.00  0.00    +0.000 OA
ATOM      9  N   UNL     1       0.102  13.098  20.362  0.00  0.00    +0.000 NA
ATOM     10  C   UNL     1       0.158  12.143  19.433  0.00  0.00    +0.000 A 
ATOM     11  N   UNL     1      -0.606  12.115  18.326  0.00  0.00    +0.000 N 
ATOM     12  H   UNL     1      -1.202  12.906  18.105  0.00  0.00    +0.000 HD
ATOM     13  H   UNL     1      -0.472  11.444  17.575  0.00  0.00    +0.000 HD
ENDROOT
BRANCH   2  14
ATOM     14  C   UNL     1       2.447   6.461  18.795  0.00  0.00    +0.000 C 
ATOM     15  O   UNL     1       1.999   5.646  17.988  0.00  0.00    +0.000 OA
ATOM     16  N   UNL     1       3.374   6.132  19.777  0.00  0.00    +0.000 N 
ATOM     17  H   UNL     1       3.499   6.726  20.596  0.00  0.00    +0.000 HD
BRANCH  16  18
ATOM     18  N   UNL     1       3.838   4.846  19.873  0.00  0.00    +0.000 NA
ATOM     19  C   UNL     1       5.000   4.582  19.358  0.00  0.00    +0.000 C 
BRANCH  19  20
ATOM     20  C   UNL     1       5.964   5.502  18.705  0.00  0.00    +0.000 A 
ATOM     21  C   UNL     1       7.208   5.686  19.292  0.00  0.00    +0.000 A 
ATOM     22  C   UNL     1       8.074   6.610  18.709  0.00  0.00    +0.000 A 
ATOM     23  C   UNL     1       7.680   7.279  17.558  0.00  0.00    +0.000 A 
ATOM     24  C   UNL     1       6.428   7.005  17.032  0.00  0.00    +0.000 A 
ATOM     25  N   UNL     1       5.543   6.149  17.583  0.00  0.00    +0.000 NA
ENDBRANCH  19  20
ENDBRANCH  16  18
ENDBRANCH   2  14
BRANCH   1  26
ATOM     26  C   UNL     1       1.106   8.349  21.251  0.00  0.00    +0.000 C 
BRANCH  26  28
ATOM     27  C   UNL     1      -0.640   9.242  22.683  0.00  0.00    +0.000 C 
ATOM     28  O   UNL     1      -0.282   8.618  21.458  0.00  0.00    +0.000 OA
ENDBRANCH  26  28
ENDBRANCH   1  26
TORSDOF 5
ENDMDL
MODEL 7
REMARK VINA RESULT:      -7.1      2.658      7.400
REMARK  Name = 
REMARK  6 active torsions:
REMARK  status: ('A' for Active; 'I' for Inactive)
REMARK    1  A    between atoms: C_1  and  O_2
REMARK    2  A    between atoms: O_2  and  C_3
REMARK    3  A    between atoms: C_3  and  C_4
REMARK    4  A    between atoms: C_5  and  C_6
REMARK    5  A    between atoms: N_8  and  N_9
REMARK    6  A    between atoms: C_10  and  C_11
REMARK                            x       y       z     vdW  Elec       q    Type
REMARK                         _______ _______ _______ _____ _____    ______ ____
ROOT
ATOM      1  C   UNL     1       5.465   5.361  16.783  0.00  0.00    +0.000 A 
ATOM      2  C   UNL     1       4.807   4.546  17.701  0.00  0.00    +0.000 A 
ATOM      3  N   UNL     1       4.651   3.303  17.134  0.00  0.00    +0.000 NA
ATOM      4  N   UNL     1       5.157   3.327  15.912  0.00  0.00    +0.000 NA
ATOM      5  N   UNL     1       5.848   4.483  15.764  0.00  0.00    +0.000 N 
ATOM      6  C   UNL     1       6.679   4.733  14.645  0.00  0.00    +0.000 A 
ATOM      7  N   UNL     1       7.754   5.516  14.753  0.00  0.00    +0.000 NA
ATOM      8  O   UNL     1       8.247   5.583  13.450  0.00  0.00    +0.000 OA
ATOM      9  N   UNL     1       7.465   4.838  12.571  0.00  0.00    +0.000 NA
ATOM     10  C   UNL     1       6.493   4.313  13.316  0.00  0.00    +0.000 A 
ATOM     11  N   UNL     1       5.456   3.610  12.824  0.00  0.00    +0.000 N 
ATOM     12  H   UNL     1       5.435   3.363  11.841  0.00  0.00    +0.000 HD
ATOM     13  H   UNL     1       4.787   3.121  13.414  0.00  0.00    +0.000 HD
ENDROOT
BRANCH   2  14
ATOM     14  C   UNL     1       4.294   4.814  19.047  0.00  0.00    +0.000 C 
ATOM     15  O   UNL     1       5.039   4.761  20.025  0.00  0.00    +0.000 OA
ATOM     16  N   UNL     1       2.927   5.054  19.139  0.00  0.00    +0.000 N 
ATOM     17  H   UNL     1       2.301   4.801  18.376  0.00  0.00    +0.000 HD
BRANCH  16  18
ATOM     18  N   UNL     1       2.353   5.252  20.368  0.00  0.00    +0.000 NA
ATOM     19  C   UNL     1       1.892   6.437  20.635  0.00  0.00    +0.000 C 
BRANCH  19  20
ATOM     20  C   UNL     1       1.841   7.638  19.765  0.00  0.00    +0.000 A 
ATOM     21  C   UNL     1       1.154   8.756  20.218  0.00  0.00    +0.000 A 
ATOM     22  C   UNL     1       1.050   9.849  19.360  0.00  0.00    +0.000 A 
ATOM     23  C   UNL     1       1.658   9.795  18.113  0.00  0.00    +0.000 A 
ATOM     24  C   UNL     1       2.346   8.644  17.764  0.00  0.00    +0.000 A 
ATOM     25  N   UNL     1       2.439   7.548  18.545  0.00  0.00    +0.000 NA
ENDBRANCH  19  20
ENDBRANCH  16  18
ENDBRANCH   2  14
BRANCH   1  26
ATOM     26  C   UNL     1       5.712   6.822  16.734  0.00  0.00    +0.000 C 
BRANCH  26  28
ATOM     27  C   UNL     1       7.662   8.082  17.447  0.00  0.00    +0.000 C 
ATOM     28  O   UNL     1       6.593   7.212  17.790  0.00  0.00    +0.000 OA
ENDBRANCH  26  28
ENDBRANCH   1  26
TORSDOF 5
ENDMDL
MODEL 8
REMARK VINA RESULT:      -7.0      1.735      1.983
REMARK  Name = 
REMARK  6 active torsions:
REMARK  status: ('A' for Active; 'I' for Inactive)
REMARK    1  A    between atoms: C_1  and  O_2
REMARK    2  A    between atoms: O_2  and  C_3
REMARK    3  A    between atoms: C_3  and  C_4
REMARK    4  A    between atoms: C_5  and  C_6
REMARK    5  A    between atoms: N_8  and  N_9
REMARK    6  A    between atoms: C_10  and  C_11
REMARK                            x       y       z     vdW  Elec       q    Type
REMARK                         _______ _______ _______ _____ _____    ______ ____
ROOT
ATOM      1  C   UNL     1       4.290   5.269  17.527  0.00  0.00    +0.000 A 
ATOM      2  C   UNL     1       5.063   4.842  16.451  0.00  0.00    +0.000 A 
ATOM      3  N   UNL     1       5.040   3.467  16.426  0.00  0.00    +0.000 NA
ATOM      4  N   UNL     1       4.314   3.037  17.445  0.00  0.00    +0.000 NA
ATOM      5  N   UNL     1       3.674   4.101  17.986  0.00  0.00    +0.000 N 
ATOM      6  C   UNL     1       2.661   3.960  18.966  0.00  0.00    +0.000 A 
ATOM      7  N   UNL     1       1.671   4.849  19.059  0.00  0.00    +0.000 NA
ATOM      8  O   UNL     1       0.944   4.421  20.171  0.00  0.00    +0.000 OA
ATOM      9  N   UNL     1       1.504   3.277  20.734  0.00  0.00    +0.000 NA
ATOM     10  C   UNL     1       2.569   2.994  19.984  0.00  0.00    +0.000 A 
ATOM     11  N   UNL     1       3.454   2.019  20.260  0.00  0.00    +0.000 N 
ATOM     12  H   UNL     1       3.274   1.377  21.025  0.00  0.00    +0.000 HD
ATOM     13  H   UNL     1       4.194   1.742  19.620  0.00  0.00    +0.000 HD
ENDROOT
BRANCH   2  14
ATOM     14  C   UNL     1       5.836   5.586  15.452  0.00  0.00    +0.000 C 
ATOM     15  O   UNL     1       5.499   6.721  15.115  0.00  0.00    +0.000 OA
ATOM     16  N   UNL     1       6.904   4.904  14.879  0.00  0.00    +0.000 N 
ATOM     17  H   UNL     1       6.975   3.890  14.954  0.00  0.00    +0.000 HD
BRANCH  16  18
ATOM     18  N   UNL     1       7.642   5.502  13.891  0.00  0.00    +0.000 NA
ATOM     19  C   UNL     1       7.614   4.968  12.708  0.00  0.00    +0.000 C 
BRANCH  19  20
ATOM     20  C   UNL     1       6.835   3.800  12.228  0.00  0.00    +0.000 A 
ATOM     21  C   UNL     1       7.519   2.738  11.654  0.00  0.00    +0.000 A 
ATOM     22  C   UNL     1       6.770   1.681  11.140  0.00  0.00    +0.000 A 
ATOM     23  C   UNL     1       5.386   1.713  11.249  0.00  0.00    +0.000 A 
ATOM     24  C   UNL     1       4.798   2.806  11.864  0.00  0.00    +0.000 A 
ATOM     25  N   UNL     1       5.480   3.867  12.341  0.00  0.00    +0.000 NA
ENDBRANCH  19  20
ENDBRANCH  16  18
ENDBRANCH   2  14
BRANCH   1  26
ATOM     26  C   UNL     1       4.120   6.590  18.179  0.00  0.00    +0.000 C 
BRANCH  26  28
ATOM     27  C   UNL     1       2.445   8.349  18.168  0.00  0.00    +0.000 C 
ATOM     28  O   UNL     1       3.203   7.396  17.436  0.00  0.00    +0.000 OA
ENDBRANCH  26  28
ENDBRANCH   1  26
TORSDOF 5
ENDMDL
MODEL 9
REMARK VINA RESULT:      -6.9      3.690      8.212
REMARK  Name = 
REMARK  6 active torsions:
REMARK  status: ('A' for Active; 'I' for Inactive)
REMARK    1  A    between atoms: C_1  and  O_2
REMARK    2  A    between atoms: O_2  and  C_3
REMARK    3  A    between atoms: C_3  and  C_4
REMARK    4  A    between atoms: C_5  and  C_6
REMARK    5  A    between atoms: N_8  and  N_9
REMARK    6  A    between atoms: C_10  and  C_11
REMARK                            x       y       z     vdW  Elec       q    Type
REMARK                         _______ _______ _______ _____ _____    ______ ____
ROOT
ATOM      1  C   UNL     1       3.646   4.765  17.952  0.00  0.00    +0.000 A 
ATOM      2  C   UNL     1       3.466   5.508  19.115  0.00  0.00    +0.000 A 
ATOM      3  N   UNL     1       4.653   6.137  19.409  0.00  0.00    +0.000 NA
ATOM      4  N   UNL     1       5.551   5.795  18.500  0.00  0.00    +0.000 NA
ATOM      5  N   UNL     1       4.910   5.151  17.494  0.00  0.00    +0.000 N 
ATOM      6  C   UNL     1       5.546   4.830  16.270  0.00  0.00    +0.000 A 
ATOM      7  N   UNL     1       4.850   4.764  15.135  0.00  0.00    +0.000 NA
ATOM      8  O   UNL     1       5.791   4.347  14.193  0.00  0.00    +0.000 OA
ATOM      9  N   UNL     1       7.045   4.167  14.772  0.00  0.00    +0.000 NA
ATOM     10  C   UNL     1       6.889   4.468  16.061  0.00  0.00    +0.000 A 
ATOM     11  N   UNL     1       7.844   4.316  16.997  0.00  0.00    +0.000 N 
ATOM     12  H   UNL     1       8.784   4.052  16.720  0.00  0.00    +0.000 HD
ATOM     13  H   UNL     1       7.747   4.656  17.950  0.00  0.00    +0.000 HD
ENDROOT
BRANCH   2  14
ATOM     14  C   UNL     1       2.303   5.679  19.991  0.00  0.00    +0.000 C 
ATOM     15  O   UNL     1       1.514   4.752  20.174  0.00  0.00    +0.000 OA
ATOM     16  N   UNL     1       2.127   6.950  20.525  0.00  0.00    +0.000 N 
ATOM     17  H   UNL     1       2.612   7.754  20.129  0.00  0.00    +0.000 HD
BRANCH  16  18
ATOM     18  N   UNL     1       1.032   7.214  21.306  0.00  0.00    +0.000 NA
ATOM     19  C   UNL     1       0.511   8.401  21.234  0.00  0.00    +0.000 C 
BRANCH  19  20
ATOM     20  C   UNL     1       0.898   9.541  20.368  0.00  0.00    +0.000 A 
ATOM     21  C   UNL     1       0.873  10.821  20.904  0.00  0.00    +0.000 A 
ATOM     22  C   UNL     1       1.167  11.889  20.058  0.00  0.00    +0.000 A 
ATOM     23  C   UNL     1       1.503  11.636  18.735  0.00  0.00    +0.000 A 
ATOM     24  C   UNL     1       1.528  10.320  18.301  0.00  0.00    +0.000 A 
ATOM     25  N   UNL     1       1.213   9.259  19.073  0.00  0.00    +0.000 NA
ENDBRANCH  19  20
ENDBRANCH  16  18
ENDBRANCH   2  14
BRANCH   1  26
ATOM     26  C   UNL     1       2.819   3.731  17.282  0.00  0.00    +0.000 C 
BRANCH  26  28
ATOM     27  C   UNL     1       2.843   1.813  18.772  0.00  0.00    +0.000 C 
ATOM     28  O   UNL     1       3.319   2.426  17.582  0.00  0.00    +0.000 OA
ENDBRANCH  26  28
ENDBRANCH   1  26
TORSDOF 5
ENDMDL
