MODEL 1
REMARK VINA RESULT:      -4.6      0.000      0.000
REMARK  Name = 
REMARK  7 active torsions:
REMARK  status: ('A' for Active; 'I' for Inactive)
REMARK    1  A    between atoms: C_1  and  C_2
REMARK    2  A    between atoms: C_2  and  C_3
REMARK    3  A    between atoms: C_2  and  C_4
REMARK    4  A    between atoms: C_4  and  C_5
REMARK    5  A    between atoms: C_5  and  O_6
REMARK    6  A    between atoms: C_5  and  C_7
REMARK    7  A    between atoms: C_7  and  O_9
REMARK                            x       y       z     vdW  Elec       q    Type
REMARK                         _______ _______ _______ _____ _____    ______ ____
ROOT
ATOM      1  C   UNL     1       7.242   5.070  17.911  0.00  0.00    +0.000 C 
ENDROOT
BRANCH   1   2
ATOM      2  O   UNL     1       8.230   4.107  17.507  0.00  0.00    +0.000 OA
ATOM      3  H   UNL     1       8.207   3.381  18.160  0.00  0.00    +0.000 HD
ENDBRANCH   1   2
BRANCH   1   4
ATOM      4  C   UNL     1       7.752   5.756  19.178  0.00  0.00    +0.000 C 
ATOM      5  O   UNL     1       7.689   5.306  20.313  0.00  0.00    +0.000 OA
BRANCH   4   6
ATOM      6  O   UNL     1       8.325   6.955  18.888  0.00  0.00    +0.000 OA
ATOM      7  H   UNL     1       8.980   6.819  18.165  0.00  0.00    +0.000 HD
ENDBRANCH   4   6
ENDBRANCH   1   4
BRANCH   1   8
ATOM      8  C   UNL     1       6.944   6.068  16.786  0.00  0.00    +0.000 C 
BRANCH   8  10
ATOM      9  C   UNL     1       5.010   4.536  16.167  0.00  0.00    +0.000 C 
ATOM     10  C   UNL     1       5.503   5.982  16.237  0.00  0.00    +0.000 C 
ATOM     11  C   UNL     1       4.541   6.800  17.105  0.00  0.00    +0.000 C 
ENDBRANCH   8  10
ENDBRANCH   1   8
TORSDOF 5
ENDMDL
MODEL 2
REMARK VINA RESULT:      -4.6      0.907      1.143
REMARK  Name = 
REMARK  7 active torsions:
REMARK  status: ('A' for Active; 'I' for Inactive)
REMARK    1  A    between atoms: C_1  and  C_2
REMARK    2  A    between atoms: C_2  and  C_3
REMARK    3  A    between atoms: C_2  and  C_4
REMARK    4  A    between atoms: C_4  and  C_5
REMARK    5  A    between atoms: C_5  and  O_6
REMARK    6  A    between atoms: C_5  and  C_7
REMARK    7  A    between atoms: C_7  and  O_9
REMARK                            x       y       z     vdW  Elec       q    Type
REMARK                         _______ _______ _______ _____ _____    ______ ____
ROOT
ATOM      1  C   UNL     1       7.138   4.923  17.739  0.00  0.00    +0.000 C 
ENDROOT
BRANCH   1   2
ATOM      2  O   UNL     1       8.231   4.060  17.383  0.00  0.00    +0.000 OA
ATOM      3  H   UNL     1       7.875   3.381  16.777  0.00  0.00    +0.000 HD
ENDBRANCH   1   2
BRANCH   1   4
ATOM      4  C   UNL     1       7.575   5.753  18.946  0.00  0.00    +0.000 C 
ATOM      5  O   UNL     1       7.482   5.420  20.118  0.00  0.00    +0.000 OA
BRANCH   4   6
ATOM      6  O   UNL     1       8.118   6.937  18.554  0.00  0.00    +0.000 OA
ATOM      7  H   UNL     1       7.414   7.625  18.582  0.00  0.00    +0.000 HD
ENDBRANCH   4   6
ENDBRANCH   1   4
BRANCH   1   8
ATOM      8  C   UNL     1       6.709   5.795  16.553  0.00  0.00    +0.000 C 
BRANCH   8  10
ATOM      9  C   UNL     1       6.089   4.360  14.547  0.00  0.00    +0.000 C 
ATOM     10  C   UNL     1       5.560   5.193  15.716  0.00  0.00    +0.000 C 
ATOM     11  C   UNL     1       4.651   4.319  16.587  0.00  0.00    +0.000 C 
ENDBRANCH   8  10
ENDBRANCH   1   8
TORSDOF 5
ENDMDL
MODEL 3
REMARK VINA RESULT:      -4.6      3.855      4.470
REMARK  Name = 
REMARK  7 active torsions:
REMARK  status: ('A' for Active; 'I' for Inactive)
REMARK    1  A    between atoms: C_1  and  C_2
REMARK    2  A    between atoms: C_2  and  C_3
REMARK    3  A    between atoms: C_2  and  C_4
REMARK    4  A    between atoms: C_4  and  C_5
REMARK    5  A    between atoms: C_5  and  O_6
REMARK    6  A    between atoms: C_5  and  C_7
REMARK    7  A    between atoms: C_7  and  O_9
REMARK                            x       y       z     vdW  Elec       q    Type
REMARK                         _______ _______ _______ _____ _____    ______ ____
ROOT
ATOM      1  C   UNL     1       4.058   2.806  19.447  0.00  0.00    +0.000 C 
ENDROOT
BRANCH   1   2
ATOM      2  O   UNL     1       4.966   1.769  19.855  0.00  0.00    +0.000 OA
ATOM      3  H   UNL     1       5.675   2.197  20.374  0.00  0.00    +0.000 HD
ENDBRANCH   1   2
BRANCH   1   4
ATOM      4  C   UNL     1       4.879   4.069  19.187  0.00  0.00    +0.000 C 
ATOM      5  O   UNL     1       4.582   5.202  19.535  0.00  0.00    +0.000 OA
BRANCH   4   6
ATOM      6  O   UNL     1       6.029   3.776  18.522  0.00  0.00    +0.000 OA
ATOM      7  H   UNL     1       6.230   4.521  17.910  0.00  0.00    +0.000 HD
ENDBRANCH   4   6
ENDBRANCH   1   4
BRANCH   1   8
ATOM      8  C   UNL     1       3.238   2.379  18.223  0.00  0.00    +0.000 C 
BRANCH   8  10
ATOM      9  C   UNL     1       1.211   2.767  19.709  0.00  0.00    +0.000 C 
ATOM     10  C   UNL     1       1.756   2.807  18.280  0.00  0.00    +0.000 C 
ATOM     11  C   UNL     1       1.575   4.218  17.712  0.00  0.00    +0.000 C 
ENDBRANCH   8  10
ENDBRANCH   1   8
TORSDOF 5
ENDMDL
MODEL 4
REMARK VINA RESULT:      -4.5      4.832      5.360
REMARK  Name = 
REMARK  7 active torsions:
REMARK  status: ('A' for Active; 'I' for Inactive)
REMARK    1  A    between atoms: C_1  and  C_2
REMARK    2  A    between atoms: C_2  and  C_3
REMARK    3  A    between atoms: C_2  and  C_4
REMARK    4  A    between atoms: C_4  and  C_5
REMARK    5  A    between atoms: C_5  and  O_6
REMARK    6  A    between atoms: C_5  and  C_7
REMARK    7  A    between atoms: C_7  and  O_9
REMARK                            x       y       z     vdW  Elec       q    Type
REMARK                         _______ _______ _______ _____ _____    ______ ____
ROOT
ATOM      1  C   UNL     1       3.132   2.146  19.393  0.00  0.00    +0.000 C 
ENDROOT
BRANCH   1   2
ATOM      2  O   UNL     1       3.163   1.245  18.274  0.00  0.00    +0.000 OA
ATOM      3  H   UNL     1       2.364   0.686  18.333  0.00  0.00    +0.000 HD
ENDBRANCH   1   2
BRANCH   1   4
ATOM      4  C   UNL     1       4.569   2.344  19.872  0.00  0.00    +0.000 C 
ATOM      5  O   UNL     1       5.137   1.684  20.730  0.00  0.00    +0.000 OA
BRANCH   4   6
ATOM      6  O   UNL     1       5.175   3.358  19.197  0.00  0.00    +0.000 OA
ATOM      7  H   UNL     1       4.554   4.123  19.166  0.00  0.00    +0.000 HD
ENDBRANCH   4   6
ENDBRANCH   1   4
BRANCH   1   8
ATOM      8  C   UNL     1       2.451   3.469  19.023  0.00  0.00    +0.000 C 
BRANCH   8  10
ATOM      9  C   UNL     1       1.236   2.946  21.195  0.00  0.00    +0.000 C 
ATOM     10  C   UNL     1       1.433   3.966  20.072  0.00  0.00    +0.000 C 
ATOM     11  C   UNL     1       1.883   5.300  20.677  0.00  0.00    +0.000 C 
ENDBRANCH   8  10
ENDBRANCH   1   8
TORSDOF 5
ENDMDL
MODEL 5
REMARK VINA RESULT:      -4.5      3.768      4.391
REMARK  Name = 
REMARK  7 active torsions:
REMARK  status: ('A' for Active; 'I' for Inactive)
REMARK    1  A    between atoms: C_1  and  C_2
REMARK    2  A    between atoms: C_2  and  C_3
REMARK    3  A    between atoms: C_2  and  C_4
REMARK    4  A    between atoms: C_4  and  C_5
REMARK    5  A    between atoms: C_5  and  O_6
REMARK    6  A    between atoms: C_5  and  C_7
REMARK    7  A    between atoms: C_7  and  O_9
REMARK                            x       y       z     vdW  Elec       q    Type
REMARK                         _______ _______ _______ _____ _____    ______ ____
ROOT
ATOM      1  C   UNL     1       4.279   3.028  19.591  0.00  0.00    +0.000 C 
ENDROOT
BRANCH   1   2
ATOM      2  O   UNL     1       5.185   1.935  19.810  0.00  0.00    +0.000 OA
ATOM      3  H   UNL     1       5.662   2.120  20.643  0.00  0.00    +0.000 HD
ENDBRANCH   1   2
BRANCH   1   4
ATOM      4  C   UNL     1       5.107   4.243  19.174  0.00  0.00    +0.000 C 
ATOM      5  O   UNL     1       4.839   5.411  19.414  0.00  0.00    +0.000 OA
BRANCH   4   6
ATOM      6  O   UNL     1       6.228   3.864  18.503  0.00  0.00    +0.000 OA
ATOM      7  H   UNL     1       6.090   4.042  17.544  0.00  0.00    +0.000 HD
ENDBRANCH   4   6
ENDBRANCH   1   4
BRANCH   1   8
ATOM      8  C   UNL     1       3.209   2.666  18.553  0.00  0.00    +0.000 C 
BRANCH   8  10
ATOM      9  C   UNL     1       1.587   4.406  17.655  0.00  0.00    +0.000 C 
ATOM     10  C   UNL     1       1.861   3.388  18.763  0.00  0.00    +0.000 C 
ATOM     11  C   UNL     1       0.707   2.380  18.819  0.00  0.00    +0.000 C 
ENDBRANCH   8  10
ENDBRANCH   1   8
TORSDOF 5
ENDMDL
MODEL 6
REMARK VINA RESULT:      -4.5      1.324      2.153
REMARK  Name = 
REMARK  7 active torsions:
REMARK  status: ('A' for Active; 'I' for Inactive)
REMARK    1  A    between atoms: C_1  and  C_2
REMARK    2  A    between atoms: C_2  and  C_3
REMARK    3  A    between atoms: C_2  and  C_4
REMARK    4  A    between atoms: C_4  and  C_5
REMARK    5  A    between atoms: C_5  and  O_6
REMARK    6  A    between atoms: C_5  and  C_7
REMARK    7  A    between atoms: C_7  and  O_9
REMARK                            x       y       z     vdW  Elec       q    Type
REMARK                         _______ _______ _______ _____ _____    ______ ____
ROOT
ATOM      1  C   UNL     1       6.564   5.116  18.217  0.00  0.00    +0.000 C 
ENDROOT
BRANCH   1   2
ATOM      2  O   UNL     1       6.164   3.999  19.028  0.00  0.00    +0.000 OA
ATOM      3  H   UNL     1       5.944   3.267  18.419  0.00  0.00    +0.000 HD
ENDBRANCH   1   2
BRANCH   1   4
ATOM      4  C   UNL     1       7.586   5.927  19.013  0.00  0.00    +0.000 C 
ATOM      5  O   UNL     1       8.167   6.930  18.625  0.00  0.00    +0.000 OA
BRANCH   4   6
ATOM      6  O   UNL     1       7.767   5.401  20.255  0.00  0.00    +0.000 OA
ATOM      7  H   UNL     1       7.519   6.084  20.920  0.00  0.00    +0.000 HD
ENDBRANCH   4   6
ENDBRANCH   1   4
BRANCH   1   8
ATOM      8  C   UNL     1       7.111   4.654  16.861  0.00  0.00    +0.000 C 
BRANCH   8  10
ATOM      9  C   UNL     1       5.274   6.013  15.744  0.00  0.00    +0.000 C 
ATOM     10  C   UNL     1       6.078   4.711  15.716  0.00  0.00    +0.000 C 
ATOM     11  C   UNL     1       6.768   4.575  14.354  0.00  0.00    +0.000 C 
ENDBRANCH   8  10
ENDBRANCH   1   8
TORSDOF 5
ENDMDL
MODEL 7
REMARK VINA RESULT:      -4.5      1.925      3.098
REMARK  Name = 
REMARK  7 active torsions:
REMARK  status: ('A' for Active; 'I' for Inactive)
REMARK    1  A    between atoms: C_1  and  C_2
REMARK    2  A    between atoms: C_2  and  C_3
REMARK    3  A    between atoms: C_2  and  C_4
REMARK    4  A    between atoms: C_4  and  C_5
REMARK    5  A    between atoms: C_5  and  O_6
REMARK    6  A    between atoms: C_5  and  C_7
REMARK    7  A    between atoms: C_7  and  O_9
REMARK                            x       y       z     vdW  Elec       q    Type
REMARK                         _______ _______ _______ _____ _____    ______ ____
ROOT
ATOM      1  C   UNL     1       6.106   4.874  17.924  0.00  0.00    +0.000 C 
ENDROOT
BRANCH   1   2
ATOM      2  O   UNL     1       6.034   3.851  18.932  0.00  0.00    +0.000 OA
ATOM      3  H   UNL     1       5.788   3.020  18.480  0.00  0.00    +0.000 HD
ENDBRANCH   1   2
BRANCH   1   4
ATOM      4  C   UNL     1       7.294   4.553  17.019  0.00  0.00    +0.000 C 
ATOM      5  O   UNL     1       7.361   4.768  15.817  0.00  0.00    +0.000 OA
BRANCH   4   6
ATOM      6  O   UNL     1       8.315   4.001  17.729  0.00  0.00    +0.000 OA
ATOM      7  H   UNL     1       9.108   4.577  17.630  0.00  0.00    +0.000 HD
ENDBRANCH   4   6
ENDBRANCH   1   4
BRANCH   1   8
ATOM      8  C   UNL     1       4.789   4.983  17.146  0.00  0.00    +0.000 C 
BRANCH   8  10
ATOM      9  C   UNL     1       2.507   5.509  18.137  0.00  0.00    +0.000 C 
ATOM     10  C   UNL     1       3.564   4.429  17.904  0.00  0.00    +0.000 C 
ATOM     11  C   UNL     1       2.932   3.261  17.138  0.00  0.00    +0.000 C 
ENDBRANCH   8  10
ENDBRANCH   1   8
TORSDOF 5
ENDMDL
MODEL 8
REMARK VINA RESULT:      -4.5      3.964      4.690
REMARK  Name = 
REMARK  7 active torsions:
REMARK  status: ('A' for Active; 'I' for Inactive)
REMARK    1  A    between atoms: C_1  and  C_2
REMARK    2  A    between atoms: C_2  and  C_3
REMARK    3  A    between atoms: C_2  and  C_4
REMARK    4  A    between atoms: C_4  and  C_5
REMARK    5  A    between atoms: C_5  and  O_6
REMARK    6  A    between atoms: C_5  and  C_7
REMARK    7  A    between atoms: C_7  and  O_9
REMARK                            x       y       z     vdW  Elec       q    Type
REMARK                         _______ _______ _______ _____ _____    ______ ____
ROOT
ATOM      1  C   UNL     1       3.579   2.075  18.768  0.00  0.00    +0.000 C 
ENDROOT
BRANCH   1   2
ATOM      2  O   UNL     1       3.968   0.737  18.415  0.00  0.00    +0.000 OA
ATOM      3  H   UNL     1       3.958   0.209  19.237  0.00  0.00    +0.000 HD
ENDBRANCH   1   2
BRANCH   1   4
ATOM      4  C   UNL     1       4.708   2.685  19.597  0.00  0.00    +0.000 C 
ATOM      5  O   UNL     1       5.073   3.851  19.565  0.00  0.00    +0.000 OA
BRANCH   4   6
ATOM      6  O   UNL     1       5.267   1.757  20.420  0.00  0.00    +0.000 OA
ATOM      7  H   UNL     1       5.010   1.971  21.347  0.00  0.00    +0.000 HD
ENDBRANCH   4   6
ENDBRANCH   1   4
BRANCH   1   8
ATOM      8  C   UNL     1       3.251   2.907  17.522  0.00  0.00    +0.000 C 
BRANCH   8  10
ATOM      9  C   UNL     1       0.996   3.106  18.682  0.00  0.00    +0.000 C 
ATOM     10  C   UNL     1       1.931   3.700  17.626  0.00  0.00    +0.000 C 
ATOM     11  C   UNL     1       2.204   5.170  17.965  0.00  0.00    +0.000 C 
ENDBRANCH   8  10
ENDBRANCH   1   8
TORSDOF 5
ENDMDL
MODEL 9
REMARK VINA RESULT:      -4.4      4.463      5.065
REMARK  Name = 
REMARK  7 active torsions:
REMARK  status: ('A' for Active; 'I' for Inactive)
REMARK    1  A    between atoms: C_1  and  C_2
REMARK    2  A    between atoms: C_2  and  C_3
REMARK    3  A    between atoms: C_2  and  C_4
REMARK    4  A    between atoms: C_4  and  C_5
REMARK    5  A    between atoms: C_5  and  O_6
REMARK    6  A    between atoms: C_5  and  C_7
REMARK    7  A    between atoms: C_7  and  O_9
REMARK                            x       y       z     vdW  Elec       q    Type
REMARK                         _______ _______ _______ _____ _____    ______ ____
ROOT
ATOM      1  C   UNL     1       4.050   3.194  19.639  0.00  0.00    +0.000 C 
ENDROOT
BRANCH   1   2
ATOM      2  O   UNL     1       4.918   2.108  20.006  0.00  0.00    +0.000 OA
ATOM      3  H   UNL     1       5.220   2.279  20.919  0.00  0.00    +0.000 HD
ENDBRANCH   1   2
BRANCH   1   4
ATOM      4  C   UNL     1       4.700   3.936  18.472  0.00  0.00    +0.000 C 
ATOM      5  O   UNL     1       4.113   4.570  17.608  0.00  0.00    +0.000 OA
BRANCH   4   6
ATOM      6  O   UNL     1       6.055   3.825  18.516  0.00  0.00    +0.000 OA
ATOM      7  H   UNL     1       6.440   4.478  17.886  0.00  0.00    +0.000 HD
ENDBRANCH   4   6
ENDBRANCH   1   4
BRANCH   1   8
ATOM      8  C   UNL     1       2.641   2.691  19.302  0.00  0.00    +0.000 C 
BRANCH   8  10
ATOM      9  C   UNL     1       1.675   2.608  21.653  0.00  0.00    +0.000 C 
ATOM     10  C   UNL     1       1.544   3.213  20.254  0.00  0.00    +0.000 C 
ATOM     11  C   UNL     1       1.597   4.741  20.360  0.00  0.00    +0.000 C 
ENDBRANCH   8  10
ENDBRANCH   1   8
TORSDOF 5
ENDMDL
