MODEL 1
REMARK VINA RESULT:      -7.4      0.000      0.000
REMARK  Name = 
REMARK  9 active torsions:
REMARK  status: ('A' for Active; 'I' for Inactive)
REMARK    1  A    between atoms: C_1  and  O_2
REMARK    2  A    between atoms: O_2  and  C_3
REMARK    3  A    between atoms: C_3  and  C_4
REMARK    4  A    between atoms: C_4  and  N_5
REMARK    5  A    between atoms: N_5  and  C_6
REMARK    6  A    between atoms: C_8  and  N_9
REMARK    7  A    between atoms: C_18  and  N_19
REMARK    8  A    between atoms: CA_26  and  C_27
REMARK    9  A    between atoms: C_33  and  C_34
REMARK                            x       y       z     vdW  Elec       q    Type
REMARK                         _______ _______ _______ _____ _____    ______ ____
ROOT
ATOM      1  N   UNL     1       2.535   8.030  18.314  0.00  0.00    +0.000 N 
ATOM      2  C   UNL     1       1.857   8.676  19.340  0.00  0.00    +0.000 C 
ATOM      3  O   UNL     1       1.572   8.078  20.376  0.00  0.00    +0.000 OA
ATOM      4  N   UNL     1       1.568  10.035  19.078  0.00  0.00    +0.000 N 
ATOM      5  C   UNL     1       1.766  10.648  17.758  0.00  0.00    +0.000 C 
ATOM      6  C   UNL     1       2.177  12.105  17.859  0.00  0.00    +0.000 C 
ATOM      7  C   UNL     1       1.069  12.886  18.533  0.00  0.00    +0.000 C 
ATOM      8  C   UNL     1       0.573  12.189  19.769  0.00  0.00    +0.000 A 
ATOM      9  C   UNL     1      -0.202  12.934  20.676  0.00  0.00    +0.000 A 
ATOM     10  C   UNL     1      -0.655  12.358  21.855  0.00  0.00    +0.000 A 
ATOM     11  CA  UNL     1      -0.320  11.026  22.060  0.00  0.00    +0.000 A 
ATOM     12  N   UNL     1       0.407  10.277  21.183  0.00  0.00    +0.000 NA
ATOM     13  C   UNL     1       0.846  10.838  20.038  0.00  0.00    +0.000 A 
ATOM     14  H   UNL     1       3.275   8.552  17.876  0.00  0.00    +0.000 HD
ENDROOT
BRANCH  10  15
ATOM     15  N   UNL     1      -1.356  13.192  22.781  0.00  0.00    +0.000 N 
ATOM     16  C   UNL     1      -0.600  14.328  23.323  0.00  0.00    +0.000 C 
ATOM     17  C   UNL     1      -1.376  15.099  24.387  0.00  0.00    +0.000 C 
ATOM     18  O   UNL     1      -2.636  15.506  23.865  0.00  0.00    +0.000 OA
ATOM     19  C   UNL     1      -3.418  14.372  23.520  0.00  0.00    +0.000 C 
ATOM     20  C   UNL     1      -2.751  13.254  22.702  0.00  0.00    +0.000 C 
ATOM     21  O   UNL     1      -3.427  12.398  22.125  0.00  0.00    +0.000 OA
ENDBRANCH  10  15
BRANCH   1  24
ATOM     22  C   UNL     1       4.401   4.833  18.744  0.00  0.00    +0.000 A 
ATOM     23  C   UNL     1       4.144   6.213  18.645  0.00  0.00    +0.000 A 
ATOM     24  C   UNL     1       2.870   6.669  18.337  0.00  0.00    +0.000 A 
ATOM     25  N   UNL     1       1.836   5.840  18.106  0.00  0.00    +0.000 NA
ATOM     26  C   UNL     1       2.119   4.514  18.081  0.00  0.00    +0.000 A 
ATOM     27  C   UNL     1       3.358   3.966  18.384  0.00  0.00    +0.000 A 
BRANCH  22  28
ATOM     28  N   UNL     1       5.671   4.348  19.076  0.00  0.00    +0.000 N 
ATOM     29  H   UNL     1       5.692   3.487  19.624  0.00  0.00    +0.000 HD
BRANCH  28  30
ATOM     30  C   UNL     1       6.774   5.273  19.344  0.00  0.00    +0.000 C 
BRANCH  30  31
ATOM     31  C   UNL     1       7.583   5.596  18.084  0.00  0.00    +0.000 C 
BRANCH  31  33
ATOM     32  C   UNL     1       7.092   4.647  15.984  0.00  0.00    +0.000 C 
ATOM     33  O   UNL     1       7.686   4.439  17.255  0.00  0.00    +0.000 OA
ENDBRANCH  31  33
ENDBRANCH  30  31
ENDBRANCH  28  30
ENDBRANCH  22  28
BRANCH  27  34
ATOM     34  C   UNL     1       3.514   2.544  18.316  0.00  0.00    +0.000 C 
ATOM     35  N   UNL     1       3.685   1.399  18.271  0.00  0.00    +0.000 NA
ENDBRANCH  27  34
ENDBRANCH   1  24
BRANCH  11  36
ATOM     36  C   UNL     1      -0.868  10.221  23.184  0.00  0.00    +0.000 C 
ATOM     37  O   UNL     1      -0.171   9.547  23.936  0.00  0.00    +0.000 OA
ENDBRANCH  11  36
TORSDOF 8
ENDMDL
MODEL 2
REMARK VINA RESULT:      -7.2      2.615      3.857
REMARK  Name = 
REMARK  9 active torsions:
REMARK  status: ('A' for Active; 'I' for Inactive)
REMARK    1  A    between atoms: C_1  and  O_2
REMARK    2  A    between atoms: O_2  and  C_3
REMARK    3  A    between atoms: C_3  and  C_4
REMARK    4  A    between atoms: C_4  and  N_5
REMARK    5  A    between atoms: N_5  and  C_6
REMARK    6  A    between atoms: C_8  and  N_9
REMARK    7  A    between atoms: C_18  and  N_19
REMARK    8  A    between atoms: CA_26  and  C_27
REMARK    9  A    between atoms: C_33  and  C_34
REMARK                            x       y       z     vdW  Elec       q    Type
REMARK                         _______ _______ _______ _____ _____    ______ ____
ROOT
ATOM      1  N   UNL     1       1.323   7.013  21.008  0.00  0.00    +0.000 N 
ATOM      2  C   UNL     1       1.376   8.273  20.427  0.00  0.00    +0.000 C 
ATOM      3  O   UNL     1       1.897   8.433  19.325  0.00  0.00    +0.000 OA
ATOM      4  N   UNL     1       0.772   9.293  21.198  0.00  0.00    +0.000 N 
ATOM      5  C   UNL     1       0.329   9.083  22.583  0.00  0.00    +0.000 C 
ATOM      6  C   UNL     1      -0.907   9.897  22.918  0.00  0.00    +0.000 C 
ATOM      7  C   UNL     1      -0.578  11.370  22.790  0.00  0.00    +0.000 C 
ATOM      8  C   UNL     1       0.155  11.665  21.512  0.00  0.00    +0.000 A 
ATOM      9  C   UNL     1       0.230  13.006  21.094  0.00  0.00    +0.000 A 
ATOM     10  C   UNL     1       0.859  13.337  19.901  0.00  0.00    +0.000 A 
ATOM     11  CA  UNL     1       1.414  12.287  19.183  0.00  0.00    +0.000 A 
ATOM     12  N   UNL     1       1.377  10.984  19.581  0.00  0.00    +0.000 NA
ATOM     13  C   UNL     1       0.766  10.663  20.740  0.00  0.00    +0.000 A 
ATOM     14  H   UNL     1       0.452   6.764  21.447  0.00  0.00    +0.000 HD
ENDROOT
BRANCH  10  15
ATOM     15  N   UNL     1       0.819  14.704  19.481  0.00  0.00    +0.000 N 
ATOM     16  C   UNL     1      -0.487  15.200  19.031  0.00  0.00    +0.000 C 
ATOM     17  C   UNL     1      -0.422  16.626  18.493  0.00  0.00    +0.000 C 
ATOM     18  O   UNL     1       0.161  17.485  19.468  0.00  0.00    +0.000 OA
ATOM     19  C   UNL     1       1.494  17.083  19.746  0.00  0.00    +0.000 C 
ATOM     20  C   UNL     1       1.763  15.592  20.006  0.00  0.00    +0.000 C 
ATOM     21  O   UNL     1       2.814  15.218  20.533  0.00  0.00    +0.000 OA
ENDBRANCH  10  15
BRANCH   1  24
ATOM     22  C   UNL     1       3.784   4.649  19.512  0.00  0.00    +0.000 A 
ATOM     23  C   UNL     1       3.216   5.848  19.980  0.00  0.00    +0.000 A 
ATOM     24  C   UNL     1       1.909   5.870  20.447  0.00  0.00    +0.000 A 
ATOM     25  N   UNL     1       1.125   4.777  20.467  0.00  0.00    +0.000 NA
ATOM     26  C   UNL     1       1.637   3.656  19.900  0.00  0.00    +0.000 A 
ATOM     27  C   UNL     1       2.932   3.538  19.416  0.00  0.00    +0.000 A 
BRANCH  22  28
ATOM     28  N   UNL     1       5.106   4.595  19.057  0.00  0.00    +0.000 N 
ATOM     29  H   UNL     1       5.823   4.481  19.775  0.00  0.00    +0.000 HD
BRANCH  28  30
ATOM     30  C   UNL     1       5.525   5.377  17.892  0.00  0.00    +0.000 C 
BRANCH  30  31
ATOM     31  C   UNL     1       4.706   5.045  16.641  0.00  0.00    +0.000 C 
BRANCH  31  33
ATOM     32  C   UNL     1       6.827   4.827  15.636  0.00  0.00    +0.000 C 
ATOM     33  O   UNL     1       5.489   5.267  15.468  0.00  0.00    +0.000 OA
ENDBRANCH  31  33
ENDBRANCH  30  31
ENDBRANCH  28  30
ENDBRANCH  22  28
BRANCH  27  34
ATOM     34  C   UNL     1       3.338   2.290  18.842  0.00  0.00    +0.000 C 
ATOM     35  N   UNL     1       3.710   1.296  18.379  0.00  0.00    +0.000 NA
ENDBRANCH  27  34
ENDBRANCH   1  24
BRANCH  11  36
ATOM     36  C   UNL     1       2.263  12.493  17.979  0.00  0.00    +0.000 C 
ATOM     37  O   UNL     1       3.357  13.048  18.010  0.00  0.00    +0.000 OA
ENDBRANCH  11  36
TORSDOF 8
ENDMDL
MODEL 3
REMARK VINA RESULT:      -7.2      2.264      3.100
REMARK  Name = 
REMARK  9 active torsions:
REMARK  status: ('A' for Active; 'I' for Inactive)
REMARK    1  A    between atoms: C_1  and  O_2
REMARK    2  A    between atoms: O_2  and  C_3
REMARK    3  A    between atoms: C_3  and  C_4
REMARK    4  A    between atoms: C_4  and  N_5
REMARK    5  A    between atoms: N_5  and  C_6
REMARK    6  A    between atoms: C_8  and  N_9
REMARK    7  A    between atoms: C_18  and  N_19
REMARK    8  A    between atoms: CA_26  and  C_27
REMARK    9  A    between atoms: C_33  and  C_34
REMARK                            x       y       z     vdW  Elec       q    Type
REMARK                         _______ _______ _______ _____ _____    ______ ____
ROOT
ATOM      1  N   UNL     1       1.007   8.574  18.030  0.00  0.00    +0.000 N 
ATOM      2  C   UNL     1       0.487   9.438  18.985  0.00  0.00    +0.000 C 
ATOM      3  O   UNL     1       1.028   9.558  20.082  0.00  0.00    +0.000 OA
ATOM      4  N   UNL     1      -0.662  10.145  18.562  0.00  0.00    +0.000 N 
ATOM      5  C   UNL     1      -1.373   9.831  17.315  0.00  0.00    +0.000 C 
ATOM      6  C   UNL     1      -1.972  11.068  16.672  0.00  0.00    +0.000 C 
ATOM      7  C   UNL     1      -2.998  11.666  17.611  0.00  0.00    +0.000 C 
ATOM      8  C   UNL     1      -2.471  11.767  19.015  0.00  0.00    +0.000 A 
ATOM      9  C   UNL     1      -3.162  12.596  19.917  0.00  0.00    +0.000 A 
ATOM     10  C   UNL     1      -2.701  12.762  21.216  0.00  0.00    +0.000 A 
ATOM     11  CA  UNL     1      -1.557  12.055  21.560  0.00  0.00    +0.000 A 
ATOM     12  N   UNL     1      -0.886  11.226  20.711  0.00  0.00    +0.000 NA
ATOM     13  C   UNL     1      -1.335  11.065  19.450  0.00  0.00    +0.000 A 
ATOM     14  H   UNL     1       1.038   8.923  17.087  0.00  0.00    +0.000 HD
ENDROOT
BRANCH  10  15
ATOM     15  N   UNL     1      -3.391  13.691  22.057  0.00  0.00    +0.000 N 
ATOM     16  C   UNL     1      -3.035  15.104  21.881  0.00  0.00    +0.000 C 
ATOM     17  C   UNL     1      -3.726  16.016  22.889  0.00  0.00    +0.000 C 
ATOM     18  O   UNL     1      -5.135  15.817  22.835  0.00  0.00    +0.000 OA
ATOM     19  C   UNL     1      -5.459  14.481  23.191  0.00  0.00    +0.000 C 
ATOM     20  C   UNL     1      -4.656  13.343  22.541  0.00  0.00    +0.000 C 
ATOM     21  O   UNL     1      -5.063  12.179  22.572  0.00  0.00    +0.000 OA
ENDBRANCH  10  15
BRANCH   1  24
ATOM     22  C   UNL     1       3.246   5.947  19.433  0.00  0.00    +0.000 A 
ATOM     23  C   UNL     1       2.159   6.832  19.309  0.00  0.00    +0.000 A 
ATOM     24  C   UNL     1       2.106   7.734  18.255  0.00  0.00    +0.000 A 
ATOM     25  N   UNL     1       3.072   7.821  17.322  0.00  0.00    +0.000 NA
ATOM     26  C   UNL     1       4.172   7.053  17.519  0.00  0.00    +0.000 A 
ATOM     27  C   UNL     1       4.311   6.120  18.536  0.00  0.00    +0.000 A 
BRANCH  22  28
ATOM     28  N   UNL     1       3.312   5.013  20.473  0.00  0.00    +0.000 N 
ATOM     29  H   UNL     1       4.207   4.536  20.590  0.00  0.00    +0.000 HD
BRANCH  28  30
ATOM     30  C   UNL     1       2.140   4.211  20.829  0.00  0.00    +0.000 C 
BRANCH  30  31
ATOM     31  C   UNL     1       2.057   2.910  20.026  0.00  0.00    +0.000 C 
BRANCH  31  33
ATOM     32  C   UNL     1       3.425   2.020  18.326  0.00  0.00    +0.000 C 
ATOM     33  O   UNL     1       3.366   2.466  19.672  0.00  0.00    +0.000 OA
ENDBRANCH  31  33
ENDBRANCH  30  31
ENDBRANCH  28  30
ENDBRANCH  22  28
BRANCH  27  34
ATOM     34  C   UNL     1       5.532   5.376  18.623  0.00  0.00    +0.000 C 
ATOM     35  N   UNL     1       6.533   4.803  18.727  0.00  0.00    +0.000 NA
ENDBRANCH  27  34
ENDBRANCH   1  24
BRANCH  11  36
ATOM     36  C   UNL     1      -1.037  11.993  22.952  0.00  0.00    +0.000 C 
ATOM     37  O   UNL     1      -0.481  11.005  23.423  0.00  0.00    +0.000 OA
ENDBRANCH  11  36
TORSDOF 8
ENDMDL
MODEL 4
REMARK VINA RESULT:      -7.1      0.785      1.008
REMARK  Name = 
REMARK  9 active torsions:
REMARK  status: ('A' for Active; 'I' for Inactive)
REMARK    1  A    between atoms: C_1  and  O_2
REMARK    2  A    between atoms: O_2  and  C_3
REMARK    3  A    between atoms: C_3  and  C_4
REMARK    4  A    between atoms: C_4  and  N_5
REMARK    5  A    between atoms: N_5  and  C_6
REMARK    6  A    between atoms: C_8  and  N_9
REMARK    7  A    between atoms: C_18  and  N_19
REMARK    8  A    between atoms: CA_26  and  C_27
REMARK    9  A    between atoms: C_33  and  C_34
REMARK                            x       y       z     vdW  Elec       q    Type
REMARK                         _______ _______ _______ _____ _____    ______ ____
ROOT
ATOM      1  N   UNL     1       2.637   8.018  18.185  0.00  0.00    +0.000 N 
ATOM      2  C   UNL     1       1.958   8.652  19.218  0.00  0.00    +0.000 C 
ATOM      3  O   UNL     1       1.654   8.037  20.238  0.00  0.00    +0.000 OA
ATOM      4  N   UNL     1       1.693  10.021  18.983  0.00  0.00    +0.000 N 
ATOM      5  C   UNL     1       1.914  10.659  17.678  0.00  0.00    +0.000 C 
ATOM      6  C   UNL     1       2.347  12.107  17.815  0.00  0.00    +0.000 C 
ATOM      7  C   UNL     1       1.244  12.890  18.496  0.00  0.00    +0.000 C 
ATOM      8  C   UNL     1       0.725  12.175  19.711  0.00  0.00    +0.000 A 
ATOM      9  C   UNL     1      -0.047  12.912  20.627  0.00  0.00    +0.000 A 
ATOM     10  C   UNL     1      -0.521  12.318  21.789  0.00  0.00    +0.000 A 
ATOM     11  CA  UNL     1      -0.208  10.977  21.968  0.00  0.00    +0.000 A 
ATOM     12  N   UNL     1       0.516  10.235  21.082  0.00  0.00    +0.000 NA
ATOM     13  C   UNL     1       0.974  10.814  19.954  0.00  0.00    +0.000 A 
ATOM     14  H   UNL     1       3.389   8.537  17.765  0.00  0.00    +0.000 HD
ENDROOT
BRANCH  10  15
ATOM     15  N   UNL     1      -1.218  13.143  22.726  0.00  0.00    +0.000 N 
ATOM     16  C   UNL     1      -0.487  14.317  23.217  0.00  0.00    +0.000 C 
ATOM     17  C   UNL     1      -1.250  15.079  24.296  0.00  0.00    +0.000 C 
ATOM     18  O   UNL     1      -2.546  15.426  23.817  0.00  0.00    +0.000 OA
ATOM     19  C   UNL     1      -3.294  14.256  23.524  0.00  0.00    +0.000 C 
ATOM     20  C   UNL     1      -2.616  13.148  22.702  0.00  0.00    +0.000 C 
ATOM     21  O   UNL     1      -3.279  12.255  22.168  0.00  0.00    +0.000 OA
ENDBRANCH  10  15
BRANCH   1  24
ATOM     22  C   UNL     1       4.516   4.800  18.208  0.00  0.00    +0.000 A 
ATOM     23  C   UNL     1       4.254   6.180  18.116  0.00  0.00    +0.000 A 
ATOM     24  C   UNL     1       2.950   6.652  18.180  0.00  0.00    +0.000 A 
ATOM     25  N   UNL     1       1.887   5.839  18.318  0.00  0.00    +0.000 NA
ATOM     26  C   UNL     1       2.138   4.507  18.282  0.00  0.00    +0.000 A 
ATOM     27  C   UNL     1       3.405   3.943  18.227  0.00  0.00    +0.000 A 
BRANCH  22  28
ATOM     28  N   UNL     1       5.822   4.300  18.169  0.00  0.00    +0.000 N 
ATOM     29  H   UNL     1       6.331   4.306  19.053  0.00  0.00    +0.000 HD
BRANCH  28  30
ATOM     30  C   UNL     1       6.656   4.492  16.981  0.00  0.00    +0.000 C 
BRANCH  30  31
ATOM     31  C   UNL     1       5.956   4.038  15.696  0.00  0.00    +0.000 C 
BRANCH  31  33
ATOM     32  C   UNL     1       6.397   3.911  13.385  0.00  0.00    +0.000 C 
ATOM     33  O   UNL     1       6.534   4.688  14.565  0.00  0.00    +0.000 OA
ENDBRANCH  31  33
ENDBRANCH  30  31
ENDBRANCH  28  30
ENDBRANCH  22  28
BRANCH  27  34
ATOM     34  C   UNL     1       3.520   2.516  18.195  0.00  0.00    +0.000 C 
ATOM     35  N   UNL     1       3.654   1.367  18.148  0.00  0.00    +0.000 NA
ENDBRANCH  27  34
ENDBRANCH   1  24
BRANCH  11  36
ATOM     36  C   UNL     1      -0.780  10.156  23.069  0.00  0.00    +0.000 C 
ATOM     37  O   UNL     1      -0.095   9.503  23.851  0.00  0.00    +0.000 OA
ENDBRANCH  11  36
TORSDOF 8
ENDMDL
MODEL 5
REMARK VINA RESULT:      -7.0      2.575      3.981
REMARK  Name = 
REMARK  9 active torsions:
REMARK  status: ('A' for Active; 'I' for Inactive)
REMARK    1  A    between atoms: C_1  and  O_2
REMARK    2  A    between atoms: O_2  and  C_3
REMARK    3  A    between atoms: C_3  and  C_4
REMARK    4  A    between atoms: C_4  and  N_5
REMARK    5  A    between atoms: N_5  and  C_6
REMARK    6  A    between atoms: C_8  and  N_9
REMARK    7  A    between atoms: C_18  and  N_19
REMARK    8  A    between atoms: CA_26  and  C_27
REMARK    9  A    between atoms: C_33  and  C_34
REMARK                            x       y       z     vdW  Elec       q    Type
REMARK                         _______ _______ _______ _____ _____    ______ ____
ROOT
ATOM      1  N   UNL     1       2.059   7.305  19.596  0.00  0.00    +0.000 N 
ATOM      2  C   UNL     1       1.773   8.652  19.418  0.00  0.00    +0.000 C 
ATOM      3  O   UNL     1       2.097   9.230  18.382  0.00  0.00    +0.000 OA
ATOM      4  N   UNL     1       1.082   9.246  20.500  0.00  0.00    +0.000 N 
ATOM      5  C   UNL     1       0.882   8.562  21.785  0.00  0.00    +0.000 C 
ATOM      6  C   UNL     1      -0.438   8.936  22.433  0.00  0.00    +0.000 C 
ATOM      7  C   UNL     1      -0.439  10.420  22.731  0.00  0.00    +0.000 C 
ATOM      8  C   UNL     1       0.039  11.222  21.554  0.00  0.00    +0.000 A 
ATOM      9  C   UNL     1      -0.221  12.605  21.553  0.00  0.00    +0.000 A 
ATOM     10  C   UNL     1       0.160  13.393  20.475  0.00  0.00    +0.000 A 
ATOM     11  CA  UNL     1       0.817  12.744  19.438  0.00  0.00    +0.000 A 
ATOM     12  N   UNL     1       1.102  11.411  19.429  0.00  0.00    +0.000 NA
ATOM     13  C   UNL     1       0.733  10.648  20.476  0.00  0.00    +0.000 A 
ATOM     14  H   UNL     1       1.326   6.746  19.998  0.00  0.00    +0.000 HD
ENDROOT
BRANCH  10  15
ATOM     15  N   UNL     1      -0.216  14.772  20.489  0.00  0.00    +0.000 N 
ATOM     16  C   UNL     1      -1.657  15.047  20.419  0.00  0.00    +0.000 C 
ATOM     17  C   UNL     1      -1.969  16.537  20.323  0.00  0.00    +0.000 C 
ATOM     18  O   UNL     1      -1.352  17.231  21.402  0.00  0.00    +0.000 OA
ATOM     19  C   UNL     1       0.059  17.096  21.334  0.00  0.00    +0.000 C 
ATOM     20  C   UNL     1       0.643  15.693  21.097  0.00  0.00    +0.000 C 
ATOM     21  O   UNL     1       1.833  15.454  21.315  0.00  0.00    +0.000 OA
ENDBRANCH  10  15
BRANCH   1  24
ATOM     22  C   UNL     1       3.169   4.523  17.378  0.00  0.00    +0.000 A 
ATOM     23  C   UNL     1       2.460   5.219  18.375  0.00  0.00    +0.000 A 
ATOM     24  C   UNL     1       2.787   6.534  18.679  0.00  0.00    +0.000 A 
ATOM     25  N   UNL     1       3.782   7.198  18.063  0.00  0.00    +0.000 NA
ATOM     26  C   UNL     1       4.538   6.483  17.194  0.00  0.00    +0.000 A 
ATOM     27  C   UNL     1       4.284   5.170  16.823  0.00  0.00    +0.000 A 
BRANCH  22  28
ATOM     28  N   UNL     1       2.845   3.206  17.037  0.00  0.00    +0.000 N 
ATOM     29  H   UNL     1       2.417   3.072  16.120  0.00  0.00    +0.000 HD
BRANCH  28  30
ATOM     30  C   UNL     1       2.402   2.259  18.063  0.00  0.00    +0.000 C 
BRANCH  30  31
ATOM     31  C   UNL     1       3.573   1.527  18.726  0.00  0.00    +0.000 C 
BRANCH  31  33
ATOM     32  C   UNL     1       3.107   2.649  20.745  0.00  0.00    +0.000 C 
ATOM     33  O   UNL     1       4.103   2.312  19.793  0.00  0.00    +0.000 OA
ENDBRANCH  31  33
ENDBRANCH  30  31
ENDBRANCH  28  30
ENDBRANCH  22  28
BRANCH  27  34
ATOM     34  C   UNL     1       5.169   4.536  15.892  0.00  0.00    +0.000 C 
ATOM     35  N   UNL     1       5.920   4.035  15.166  0.00  0.00    +0.000 NA
ENDBRANCH  27  34
ENDBRANCH   1  24
BRANCH  11  36
ATOM     36  C   UNL     1       1.435  13.471  18.297  0.00  0.00    +0.000 C 
ATOM     37  O   UNL     1       2.611  13.340  17.969  0.00  0.00    +0.000 OA
ENDBRANCH  11  36
TORSDOF 8
ENDMDL
MODEL 6
REMARK VINA RESULT:      -6.9      2.620      3.979
REMARK  Name = 
REMARK  9 active torsions:
REMARK  status: ('A' for Active; 'I' for Inactive)
REMARK    1  A    between atoms: C_1  and  O_2
REMARK    2  A    between atoms: O_2  and  C_3
REMARK    3  A    between atoms: C_3  and  C_4
REMARK    4  A    between atoms: C_4  and  N_5
REMARK    5  A    between atoms: N_5  and  C_6
REMARK    6  A    between atoms: C_8  and  N_9
REMARK    7  A    between atoms: C_18  and  N_19
REMARK    8  A    between atoms: CA_26  and  C_27
REMARK    9  A    between atoms: C_33  and  C_34
REMARK                            x       y       z     vdW  Elec       q    Type
REMARK                         _______ _______ _______ _____ _____    ______ ____
ROOT
ATOM      1  N   UNL     1       2.289   7.545  19.790  0.00  0.00    +0.000 N 
ATOM      2  C   UNL     1       1.355   8.539  19.527  0.00  0.00    +0.000 C 
ATOM      3  O   UNL     1       1.047   8.820  18.371  0.00  0.00    +0.000 OA
ATOM      4  N   UNL     1       0.809   9.141  20.684  0.00  0.00    +0.000 N 
ATOM      5  C   UNL     1       1.342   8.898  22.032  0.00  0.00    +0.000 C 
ATOM      6  C   UNL     1       0.255   8.927  23.091  0.00  0.00    +0.000 C 
ATOM      7  C   UNL     1      -0.372  10.305  23.119  0.00  0.00    +0.000 C 
ATOM      8  C   UNL     1      -0.700  10.792  21.736  0.00  0.00    +0.000 A 
ATOM      9  C   UNL     1      -1.578  11.885  21.617  0.00  0.00    +0.000 A 
ATOM     10  C   UNL     1      -1.950  12.356  20.365  0.00  0.00    +0.000 A 
ATOM     11  CA  UNL     1      -1.394  11.708  19.270  0.00  0.00    +0.000 A 
ATOM     12  N   UNL     1      -0.521  10.664  19.362  0.00  0.00    +0.000 NA
ATOM     13  C   UNL     1      -0.159  10.209  20.578  0.00  0.00    +0.000 A 
ATOM     14  H   UNL     1       2.065   6.914  20.540  0.00  0.00    +0.000 HD
ENDROOT
BRANCH  10  15
ATOM     15  N   UNL     1      -2.919  13.406  20.307  0.00  0.00    +0.000 N 
ATOM     16  C   UNL     1      -4.324  12.990  20.399  0.00  0.00    +0.000 C 
ATOM     17  C   UNL     1      -5.296  14.151  20.213  0.00  0.00    +0.000 C 
ATOM     18  O   UNL     1      -4.992  15.189  21.139  0.00  0.00    +0.000 OA
ATOM     19  C   UNL     1      -3.687  15.696  20.902  0.00  0.00    +0.000 C 
ATOM     20  C   UNL     1      -2.541  14.688  20.715  0.00  0.00    +0.000 C 
ATOM     21  O   UNL     1      -1.362  15.043  20.799  0.00  0.00    +0.000 OA
ENDBRANCH  10  15
BRANCH   1  24
ATOM     22  C   UNL     1       3.461   4.898  17.443  0.00  0.00    +0.000 A 
ATOM     23  C   UNL     1       2.789   5.514  18.516  0.00  0.00    +0.000 A 
ATOM     24  C   UNL     1       2.997   6.858  18.794  0.00  0.00    +0.000 A 
ATOM     25  N   UNL     1       3.840   7.627  18.083  0.00  0.00    +0.000 NA
ATOM     26  C   UNL     1       4.575   6.998  17.132  0.00  0.00    +0.000 A 
ATOM     27  C   UNL     1       4.431   5.663  16.779  0.00  0.00    +0.000 A 
BRANCH  22  28
ATOM     28  N   UNL     1       3.252   3.551  17.127  0.00  0.00    +0.000 N 
ATOM     29  H   UNL     1       3.244   3.320  16.133  0.00  0.00    +0.000 HD
BRANCH  28  30
ATOM     30  C   UNL     1       2.378   2.719  17.956  0.00  0.00    +0.000 C 
BRANCH  30  31
ATOM     31  C   UNL     1       3.166   1.789  18.884  0.00  0.00    +0.000 C 
BRANCH  31  33
ATOM     32  C   UNL     1       2.827   2.604  21.069  0.00  0.00    +0.000 C 
ATOM     33  O   UNL     1       3.721   2.531  19.969  0.00  0.00    +0.000 OA
ENDBRANCH  31  33
ENDBRANCH  30  31
ENDBRANCH  28  30
ENDBRANCH  22  28
BRANCH  27  34
ATOM     34  C   UNL     1       5.278   5.130  15.754  0.00  0.00    +0.000 C 
ATOM     35  N   UNL     1       5.930   4.710  14.894  0.00  0.00    +0.000 NA
ENDBRANCH  27  34
ENDBRANCH   1  24
BRANCH  11  36
ATOM     36  C   UNL     1      -1.559  12.196  17.875  0.00  0.00    +0.000 C 
ATOM     37  O   UNL     1      -2.197  11.592  17.018  0.00  0.00    +0.000 OA
ENDBRANCH  11  36
TORSDOF 8
ENDMDL
MODEL 7
REMARK VINA RESULT:      -6.9      2.568      3.918
REMARK  Name = 
REMARK  9 active torsions:
REMARK  status: ('A' for Active; 'I' for Inactive)
REMARK    1  A    between atoms: C_1  and  O_2
REMARK    2  A    between atoms: O_2  and  C_3
REMARK    3  A    between atoms: C_3  and  C_4
REMARK    4  A    between atoms: C_4  and  N_5
REMARK    5  A    between atoms: N_5  and  C_6
REMARK    6  A    between atoms: C_8  and  N_9
REMARK    7  A    between atoms: C_18  and  N_19
REMARK    8  A    between atoms: CA_26  and  C_27
REMARK    9  A    between atoms: C_33  and  C_34
REMARK                            x       y       z     vdW  Elec       q    Type
REMARK                         _______ _______ _______ _____ _____    ______ ____
ROOT
ATOM      1  N   UNL     1       2.141   7.208  20.094  0.00  0.00    +0.000 N 
ATOM      2  C   UNL     1       1.870   8.545  19.838  0.00  0.00    +0.000 C 
ATOM      3  O   UNL     1       2.279   9.082  18.811  0.00  0.00    +0.000 OA
ATOM      4  N   UNL     1       1.088   9.179  20.831  0.00  0.00    +0.000 N 
ATOM      5  C   UNL     1       0.780   8.546  22.122  0.00  0.00    +0.000 C 
ATOM      6  C   UNL     1      -0.591   8.939  22.639  0.00  0.00    +0.000 C 
ATOM      7  C   UNL     1      -0.620  10.435  22.876  0.00  0.00    +0.000 C 
ATOM      8  C   UNL     1      -0.045  11.191  21.711  0.00  0.00    +0.000 A 
ATOM      9  C   UNL     1      -0.306  12.571  21.633  0.00  0.00    +0.000 A 
ATOM     10  C   UNL     1       0.165  13.317  20.560  0.00  0.00    +0.000 A 
ATOM     11  CA  UNL     1       0.909  12.630  19.610  0.00  0.00    +0.000 A 
ATOM     12  N   UNL     1       1.196  11.299  19.679  0.00  0.00    +0.000 NA
ATOM     13  C   UNL     1       0.740  10.577  20.722  0.00  0.00    +0.000 A 
ATOM     14  H   UNL     1       1.377   6.662  20.455  0.00  0.00    +0.000 HD
ENDROOT
BRANCH  10  15
ATOM     15  N   UNL     1      -0.213  14.694  20.486  0.00  0.00    +0.000 N 
ATOM     16  C   UNL     1      -1.651  14.960  20.357  0.00  0.00    +0.000 C 
ATOM     17  C   UNL     1      -1.962  16.441  20.169  0.00  0.00    +0.000 C 
ATOM     18  O   UNL     1      -1.379  17.196  21.226  0.00  0.00    +0.000 OA
ATOM     19  C   UNL     1       0.034  17.062  21.207  0.00  0.00    +0.000 C 
ATOM     20  C   UNL     1       0.626  15.650  21.066  0.00  0.00    +0.000 C 
ATOM     21  O   UNL     1       1.810  15.426  21.334  0.00  0.00    +0.000 OA
ENDBRANCH  10  15
BRANCH   1  24
ATOM     22  C   UNL     1       4.362   4.479  18.868  0.00  0.00    +0.000 A 
ATOM     23  C   UNL     1       3.645   5.304  19.753  0.00  0.00    +0.000 A 
ATOM     24  C   UNL     1       2.946   6.404  19.274  0.00  0.00    +0.000 A 
ATOM     25  N   UNL     1       2.925   6.744  17.973  0.00  0.00    +0.000 NA
ATOM     26  C   UNL     1       3.718   6.018  17.147  0.00  0.00    +0.000 A 
ATOM     27  C   UNL     1       4.445   4.900  17.532  0.00  0.00    +0.000 A 
BRANCH  22  28
ATOM     28  N   UNL     1       5.056   3.351  19.321  0.00  0.00    +0.000 N 
ATOM     29  H   UNL     1       5.930   3.138  18.837  0.00  0.00    +0.000 HD
BRANCH  28  30
ATOM     30  C   UNL     1       4.330   2.180  19.818  0.00  0.00    +0.000 C 
BRANCH  30  31
ATOM     31  C   UNL     1       3.177   1.774  18.895  0.00  0.00    +0.000 C 
BRANCH  31  33
ATOM     32  C   UNL     1       0.984   2.607  18.671  0.00  0.00    +0.000 C 
ATOM     33  O   UNL     1       1.926   2.002  19.542  0.00  0.00    +0.000 OA
ENDBRANCH  31  33
ENDBRANCH  30  31
ENDBRANCH  28  30
ENDBRANCH  22  28
BRANCH  27  34
ATOM     34  C   UNL     1       5.243   4.228  16.550  0.00  0.00    +0.000 C 
ATOM     35  N   UNL     1       5.915   3.722  15.755  0.00  0.00    +0.000 NA
ENDBRANCH  27  34
ENDBRANCH   1  24
BRANCH  11  36
ATOM     36  C   UNL     1       1.621  13.313  18.497  0.00  0.00    +0.000 C 
ATOM     37  O   UNL     1       2.837  13.261  18.340  0.00  0.00    +0.000 OA
ENDBRANCH  11  36
TORSDOF 8
ENDMDL
MODEL 8
REMARK VINA RESULT:      -6.9      2.470      3.494
REMARK  Name = 
REMARK  9 active torsions:
REMARK  status: ('A' for Active; 'I' for Inactive)
REMARK    1  A    between atoms: C_1  and  O_2
REMARK    2  A    between atoms: O_2  and  C_3
REMARK    3  A    between atoms: C_3  and  C_4
REMARK    4  A    between atoms: C_4  and  N_5
REMARK    5  A    between atoms: N_5  and  C_6
REMARK    6  A    between atoms: C_8  and  N_9
REMARK    7  A    between atoms: C_18  and  N_19
REMARK    8  A    between atoms: CA_26  and  C_27
REMARK    9  A    between atoms: C_33  and  C_34
REMARK                            x       y       z     vdW  Elec       q    Type
REMARK                         _______ _______ _______ _____ _____    ______ ____
ROOT
ATOM      1  N   UNL     1       0.981   8.721  17.797  0.00  0.00    +0.000 N 
ATOM      2  C   UNL     1       0.471   9.580  18.763  0.00  0.00    +0.000 C 
ATOM      3  O   UNL     1       1.071   9.762  19.820  0.00  0.00    +0.000 OA
ATOM      4  N   UNL     1      -0.743  10.207  18.397  0.00  0.00    +0.000 N 
ATOM      5  C   UNL     1      -1.510   9.818  17.205  0.00  0.00    +0.000 C 
ATOM      6  C   UNL     1      -2.220  10.999  16.572  0.00  0.00    +0.000 C 
ATOM      7  C   UNL     1      -3.220  11.563  17.560  0.00  0.00    +0.000 C 
ATOM      8  C   UNL     1      -2.613  11.734  18.924  0.00  0.00    +0.000 A 
ATOM      9  C   UNL     1      -3.295  12.547  19.848  0.00  0.00    +0.000 A 
ATOM     10  C   UNL     1      -2.765  12.776  21.110  0.00  0.00    +0.000 A 
ATOM     11  CA  UNL     1      -1.561  12.146  21.398  0.00  0.00    +0.000 A 
ATOM     12  N   UNL     1      -0.896  11.334  20.529  0.00  0.00    +0.000 NA
ATOM     13  C   UNL     1      -1.412  11.112  19.303  0.00  0.00    +0.000 A 
ATOM     14  H   UNL     1       0.932   9.045  16.846  0.00  0.00    +0.000 HD
ENDROOT
BRANCH  10  15
ATOM     15  N   UNL     1      -3.455  13.686  21.970  0.00  0.00    +0.000 N 
ATOM     16  C   UNL     1      -4.314  13.079  22.993  0.00  0.00    +0.000 C 
ATOM     17  C   UNL     1      -5.101  14.113  23.793  0.00  0.00    +0.000 C 
ATOM     18  O   UNL     1      -4.210  15.070  24.354  0.00  0.00    +0.000 OA
ATOM     19  C   UNL     1      -3.526  15.771  23.326  0.00  0.00    +0.000 C 
ATOM     20  C   UNL     1      -2.903  14.954  22.183  0.00  0.00    +0.000 C 
ATOM     21  O   UNL     1      -2.061  15.451  21.431  0.00  0.00    +0.000 OA
ENDBRANCH  10  15
BRANCH   1  24
ATOM     22  C   UNL     1       3.436   6.234  19.089  0.00  0.00    +0.000 A 
ATOM     23  C   UNL     1       2.290   7.047  19.015  0.00  0.00    +0.000 A 
ATOM     24  C   UNL     1       2.139   7.952  17.972  0.00  0.00    +0.000 A 
ATOM     25  N   UNL     1       3.061   8.110  17.005  0.00  0.00    +0.000 NA
ATOM     26  C   UNL     1       4.215   7.414  17.153  0.00  0.00    +0.000 A 
ATOM     27  C   UNL     1       4.453   6.483  18.155  0.00  0.00    +0.000 A 
BRANCH  22  28
ATOM     28  N   UNL     1       3.603   5.298  20.116  0.00  0.00    +0.000 N 
ATOM     29  H   UNL     1       4.491   5.336  20.617  0.00  0.00    +0.000 HD
BRANCH  28  30
ATOM     30  C   UNL     1       3.020   3.959  20.004  0.00  0.00    +0.000 C 
BRANCH  30  31
ATOM     31  C   UNL     1       1.714   3.824  20.792  0.00  0.00    +0.000 C 
BRANCH  31  33
ATOM     32  C   UNL     1       0.910   2.568  18.968  0.00  0.00    +0.000 C 
ATOM     33  O   UNL     1       1.010   2.653  20.380  0.00  0.00    +0.000 OA
ENDBRANCH  31  33
ENDBRANCH  30  31
ENDBRANCH  28  30
ENDBRANCH  22  28
BRANCH  27  34
ATOM     34  C   UNL     1       5.723   5.820  18.188  0.00  0.00    +0.000 C 
ATOM     35  N   UNL     1       6.740   5.271  18.258  0.00  0.00    +0.000 NA
ENDBRANCH  27  34
ENDBRANCH   1  24
BRANCH  11  36
ATOM     36  C   UNL     1      -0.952  12.153  22.755  0.00  0.00    +0.000 C 
ATOM     37  O   UNL     1      -0.529  11.145  23.312  0.00  0.00    +0.000 OA
ENDBRANCH  11  36
TORSDOF 8
ENDMDL
MODEL 9
REMARK VINA RESULT:      -6.9      2.270      2.804
REMARK  Name = 
REMARK  9 active torsions:
REMARK  status: ('A' for Active; 'I' for Inactive)
REMARK    1  A    between atoms: C_1  and  O_2
REMARK    2  A    between atoms: O_2  and  C_3
REMARK    3  A    between atoms: C_3  and  C_4
REMARK    4  A    between atoms: C_4  and  N_5
REMARK    5  A    between atoms: N_5  and  C_6
REMARK    6  A    between atoms: C_8  and  N_9
REMARK    7  A    between atoms: C_18  and  N_19
REMARK    8  A    between atoms: CA_26  and  C_27
REMARK    9  A    between atoms: C_33  and  C_34
REMARK                            x       y       z     vdW  Elec       q    Type
REMARK                         _______ _______ _______ _____ _____    ______ ____
ROOT
ATOM      1  N   UNL     1       0.944   8.563  17.923  0.00  0.00    +0.000 N 
ATOM      2  C   UNL     1       0.460   9.475  18.852  0.00  0.00    +0.000 C 
ATOM      3  O   UNL     1       1.060   9.675  19.906  0.00  0.00    +0.000 OA
ATOM      4  N   UNL     1      -0.728  10.131  18.455  0.00  0.00    +0.000 N 
ATOM      5  C   UNL     1      -1.501   9.725  17.273  0.00  0.00    +0.000 C 
ATOM      6  C   UNL     1      -2.165  10.906  16.591  0.00  0.00    +0.000 C 
ATOM      7  C   UNL     1      -3.149  11.542  17.550  0.00  0.00    +0.000 C 
ATOM      8  C   UNL     1      -2.544  11.742  18.912  0.00  0.00    +0.000 A 
ATOM      9  C   UNL     1      -3.202  12.613  19.799  0.00  0.00    +0.000 A 
ATOM     10  C   UNL     1      -2.671  12.870  21.057  0.00  0.00    +0.000 A 
ATOM     11  CA  UNL     1      -1.493  12.209  21.376  0.00  0.00    +0.000 A 
ATOM     12  N   UNL     1      -0.852  11.341  20.542  0.00  0.00    +0.000 NA
ATOM     13  C   UNL     1      -1.370  11.092  19.322  0.00  0.00    +0.000 A 
ATOM     14  H   UNL     1       0.912   8.852  16.961  0.00  0.00    +0.000 HD
ENDROOT
BRANCH  10  15
ATOM     15  N   UNL     1      -3.333  13.836  21.877  0.00  0.00    +0.000 N 
ATOM     16  C   UNL     1      -3.215  15.234  21.446  0.00  0.00    +0.000 C 
ATOM     17  C   UNL     1      -3.847  16.211  22.432  0.00  0.00    +0.000 C 
ATOM     18  O   UNL     1      -5.202  15.846  22.673  0.00  0.00    +0.000 OA
ATOM     19  C   UNL     1      -5.269  14.557  23.262  0.00  0.00    +0.000 C 
ATOM     20  C   UNL     1      -4.435  13.428  22.635  0.00  0.00    +0.000 C 
ATOM     21  O   UNL     1      -4.663  12.245  22.900  0.00  0.00    +0.000 OA
ENDBRANCH  10  15
BRANCH   1  24
ATOM     22  C   UNL     1       4.300   6.981  17.571  0.00  0.00    +0.000 A 
ATOM     23  C   UNL     1       3.153   7.735  17.262  0.00  0.00    +0.000 A 
ATOM     24  C   UNL     1       2.074   7.760  18.135  0.00  0.00    +0.000 A 
ATOM     25  N   UNL     1       2.056   7.071  19.291  0.00  0.00    +0.000 NA
ATOM     26  C   UNL     1       3.111   6.252  19.521  0.00  0.00    +0.000 A 
ATOM     27  C   UNL     1       4.236   6.166  18.712  0.00  0.00    +0.000 A 
BRANCH  22  28
ATOM     28  N   UNL     1       5.410   6.957  16.720  0.00  0.00    +0.000 N 
ATOM     29  H   UNL     1       5.895   7.845  16.591  0.00  0.00    +0.000 HD
BRANCH  28  30
ATOM     30  C   UNL     1       5.434   6.071  15.553  0.00  0.00    +0.000 C 
BRANCH  30  31
ATOM     31  C   UNL     1       6.615   5.097  15.585  0.00  0.00    +0.000 C 
BRANCH  31  33
ATOM     32  C   UNL     1       6.098   3.834  13.664  0.00  0.00    +0.000 C 
ATOM     33  O   UNL     1       6.216   3.824  15.078  0.00  0.00    +0.000 OA
ENDBRANCH  31  33
ENDBRANCH  30  31
ENDBRANCH  28  30
ENDBRANCH  22  28
BRANCH  27  34
ATOM     34  C   UNL     1       5.277   5.254  19.079  0.00  0.00    +0.000 C 
ATOM     35  N   UNL     1       6.102   4.515  19.418  0.00  0.00    +0.000 NA
ENDBRANCH  27  34
ENDBRANCH   1  24
BRANCH  11  36
ATOM     36  C   UNL     1      -0.892  12.245  22.736  0.00  0.00    +0.000 C 
ATOM     37  O   UNL     1      -0.237  13.192  23.161  0.00  0.00    +0.000 OA
ENDBRANCH  11  36
TORSDOF 8
ENDMDL
