MODEL 1
REMARK VINA RESULT:      -6.6      0.000      0.000
REMARK  Name = 
REMARK  7 active torsions:
REMARK  status: ('A' for Active; 'I' for Inactive)
REMARK    1  A    between atoms: C_1  and  N_2
REMARK    2  A    between atoms: N_2  and  C_3
REMARK    3  A    between atoms: N_2  and  C_4
REMARK    4  A    between atoms: C_13  and  N_14
REMARK    5  A    between atoms: N_14  and  C_15
REMARK    6  A    between atoms: N_14  and  C_16
REMARK    7  A    between atoms: C_21  and  C_23
REMARK                            x       y       z     vdW  Elec       q    Type
REMARK                         _______ _______ _______ _____ _____    ______ ____
ROOT
ATOM      1  C   UNL     1      -2.407  12.271  21.832  0.00  0.00    +0.000 A 
ATOM      2  C   UNL     1      -2.100  12.898  20.615  0.00  0.00    +0.000 A 
ATOM      3  C   UNL     1      -0.941  12.594  19.888  0.00  0.00    +0.000 A 
ATOM      4  C   UNL     1      -0.036  11.633  20.348  0.00  0.00    +0.000 A 
ATOM      5  C   UNL     1      -0.351  10.951  21.529  0.00  0.00    +0.000 A 
ATOM      6  C   UNL     1      -1.503  11.286  22.259  0.00  0.00    +0.000 A 
ATOM      7  S   UNL     1       0.716   9.673  22.159  0.00  0.00    +0.000 S 
ATOM      8  C   UNL     1       1.308   9.075  20.586  0.00  0.00    +0.000 A 
ATOM      9  C   UNL     1       1.617   7.705  20.473  0.00  0.00    +0.000 A 
ATOM     10  C   UNL     1       2.071   7.131  19.275  0.00  0.00    +0.000 A 
ATOM     11  C   UNL     1       2.225   8.014  18.202  0.00  0.00    +0.000 A 
ATOM     12  C   UNL     1       1.949   9.387  18.307  0.00  0.00    +0.000 A 
ATOM     13  C   UNL     1       1.479   9.944  19.496  0.00  0.00    +0.000 A 
ATOM     14  N   UNL     1       1.153  11.343  19.597  0.00  0.00    +0.000 N 
ATOM     15  C   UNL     1       1.881  12.323  18.891  0.00  0.00    +0.000 C 
ATOM     16  O   UNL     1       2.600  12.123  17.910  0.00  0.00    +0.000 OA
ENDROOT
BRANCH  15  17
ATOM     17  C   UNL     1       1.923  13.722  19.437  0.00  0.00    +0.000 A 
ATOM     18  C   UNL     1       2.464  14.007  20.695  0.00  0.00    +0.000 A 
ATOM     19  C   UNL     1       2.505  15.319  21.172  0.00  0.00    +0.000 A 
ATOM     20  C   UNL     1       2.045  16.364  20.367  0.00  0.00    +0.000 A 
ATOM     21  C   UNL     1       1.552  16.096  19.094  0.00  0.00    +0.000 A 
ATOM     22  C   UNL     1       1.487  14.782  18.623  0.00  0.00    +0.000 A 
ENDBRANCH  15  17
BRANCH   1  24
ATOM     23  C   UNL     1      -4.817  12.849  21.881  0.00  0.00    +0.000 C 
ATOM     24  N   UNL     1      -3.550  12.592  22.556  0.00  0.00    +0.000 N 
ATOM     25  C   UNL     1      -3.572  12.473  24.010  0.00  0.00    +0.000 C 
ENDBRANCH   1  24
BRANCH  10  26
ATOM     26  N   UNL     1       2.304   5.772  19.162  0.00  0.00    +0.000 N 
ATOM     27  C   UNL     1       2.319   4.891  20.328  0.00  0.00    +0.000 C 
ATOM     28  C   UNL     1       2.787   5.162  17.927  0.00  0.00    +0.000 C 
ENDBRANCH  10  26
TORSDOF 3
ENDMDL
MODEL 2
REMARK VINA RESULT:      -6.5      0.234      1.148
REMARK  Name = 
REMARK  7 active torsions:
REMARK  status: ('A' for Active; 'I' for Inactive)
REMARK    1  A    between atoms: C_1  and  N_2
REMARK    2  A    between atoms: N_2  and  C_3
REMARK    3  A    between atoms: N_2  and  C_4
REMARK    4  A    between atoms: C_13  and  N_14
REMARK    5  A    between atoms: N_14  and  C_15
REMARK    6  A    between atoms: N_14  and  C_16
REMARK    7  A    between atoms: C_21  and  C_23
REMARK                            x       y       z     vdW  Elec       q    Type
REMARK                         _______ _______ _______ _____ _____    ______ ____
ROOT
ATOM      1  C   UNL     1      -2.399  12.256  21.779  0.00  0.00    +0.000 A 
ATOM      2  C   UNL     1      -2.090  12.819  20.531  0.00  0.00    +0.000 A 
ATOM      3  C   UNL     1      -0.939  12.465  19.814  0.00  0.00    +0.000 A 
ATOM      4  C   UNL     1      -0.045  11.514  20.316  0.00  0.00    +0.000 A 
ATOM      5  C   UNL     1      -0.363  10.895  21.530  0.00  0.00    +0.000 A 
ATOM      6  C   UNL     1      -1.506  11.281  22.249  0.00  0.00    +0.000 A 
ATOM      7  S   UNL     1       0.690   9.634  22.217  0.00  0.00    +0.000 S 
ATOM      8  C   UNL     1       1.265   8.953  20.671  0.00  0.00    +0.000 A 
ATOM      9  C   UNL     1       1.555   7.574  20.623  0.00  0.00    +0.000 A 
ATOM     10  C   UNL     1       1.994   6.936  19.453  0.00  0.00    +0.000 A 
ATOM     11  C   UNL     1       2.154   7.764  18.337  0.00  0.00    +0.000 A 
ATOM     12  C   UNL     1       1.898   9.144  18.377  0.00  0.00    +0.000 A 
ATOM     13  C   UNL     1       1.441   9.765  19.540  0.00  0.00    +0.000 A 
ATOM     14  N   UNL     1       1.136  11.171  19.574  0.00  0.00    +0.000 N 
ATOM     15  C   UNL     1       1.873  12.106  18.818  0.00  0.00    +0.000 C 
ATOM     16  O   UNL     1       2.583  11.848  17.844  0.00  0.00    +0.000 OA
ENDROOT
BRANCH  15  17
ATOM     17  C   UNL     1       1.937  13.529  19.295  0.00  0.00    +0.000 A 
ATOM     18  C   UNL     1       1.357  14.577  18.572  0.00  0.00    +0.000 A 
ATOM     19  C   UNL     1       1.418  15.889  19.046  0.00  0.00    +0.000 A 
ATOM     20  C   UNL     1       2.023  16.154  20.277  0.00  0.00    +0.000 A 
ATOM     21  C   UNL     1       2.559  15.111  21.027  0.00  0.00    +0.000 A 
ATOM     22  C   UNL     1       2.521  13.800  20.545  0.00  0.00    +0.000 A 
ENDBRANCH  15  17
BRANCH   1  24
ATOM     23  C   UNL     1      -4.813  12.818  21.819  0.00  0.00    +0.000 C 
ATOM     24  N   UNL     1      -3.534  12.628  22.492  0.00  0.00    +0.000 N 
ATOM     25  C   UNL     1      -3.531  12.631  23.951  0.00  0.00    +0.000 C 
ENDBRANCH   1  24
BRANCH  10  26
ATOM     26  N   UNL     1       2.208   5.571  19.405  0.00  0.00    +0.000 N 
ATOM     27  C   UNL     1       2.415   4.865  18.142  0.00  0.00    +0.000 C 
ATOM     28  C   UNL     1       2.006   4.706  20.564  0.00  0.00    +0.000 C 
ENDBRANCH  10  26
TORSDOF 3
ENDMDL
MODEL 3
REMARK VINA RESULT:      -6.4      2.027      4.784
REMARK  Name = 
REMARK  7 active torsions:
REMARK  status: ('A' for Active; 'I' for Inactive)
REMARK    1  A    between atoms: C_1  and  N_2
REMARK    2  A    between atoms: N_2  and  C_3
REMARK    3  A    between atoms: N_2  and  C_4
REMARK    4  A    between atoms: C_13  and  N_14
REMARK    5  A    between atoms: N_14  and  C_15
REMARK    6  A    between atoms: N_14  and  C_16
REMARK    7  A    between atoms: C_21  and  C_23
REMARK                            x       y       z     vdW  Elec       q    Type
REMARK                         _______ _______ _______ _____ _____    ______ ____
ROOT
ATOM      1  C   UNL     1       2.472  14.158  19.315  0.00  0.00    +0.000 A 
ATOM      2  C   UNL     1       2.081  14.024  20.655  0.00  0.00    +0.000 A 
ATOM      3  C   UNL     1       1.451  12.869  21.140  0.00  0.00    +0.000 A 
ATOM      4  C   UNL     1       1.193  11.785  20.296  0.00  0.00    +0.000 A 
ATOM      5  C   UNL     1       1.627  11.872  18.969  0.00  0.00    +0.000 A 
ATOM      6  C   UNL     1       2.233  13.046  18.492  0.00  0.00    +0.000 A 
ATOM      7  S   UNL     1       1.390  10.517  17.838  0.00  0.00    +0.000 S 
ATOM      8  C   UNL     1       1.530   9.198  19.032  0.00  0.00    +0.000 A 
ATOM      9  C   UNL     1       2.084   7.974  18.603  0.00  0.00    +0.000 A 
ATOM     10  C   UNL     1       2.256   6.882  19.467  0.00  0.00    +0.000 A 
ATOM     11  C   UNL     1       1.817   7.074  20.781  0.00  0.00    +0.000 A 
ATOM     12  C   UNL     1       1.237   8.277  21.215  0.00  0.00    +0.000 A 
ATOM     13  C   UNL     1       1.089   9.365  20.354  0.00  0.00    +0.000 A 
ATOM     14  N   UNL     1       0.535  10.614  20.805  0.00  0.00    +0.000 N 
ATOM     15  C   UNL     1      -0.484  10.661  21.779  0.00  0.00    +0.000 C 
ATOM     16  O   UNL     1      -0.775   9.758  22.565  0.00  0.00    +0.000 OA
ENDROOT
BRANCH  15  17
ATOM     17  C   UNL     1      -1.412  11.843  21.795  0.00  0.00    +0.000 A 
ATOM     18  C   UNL     1      -2.137  12.228  20.663  0.00  0.00    +0.000 A 
ATOM     19  C   UNL     1      -3.004  13.321  20.710  0.00  0.00    +0.000 A 
ATOM     20  C   UNL     1      -3.186  14.011  21.911  0.00  0.00    +0.000 A 
ATOM     21  C   UNL     1      -2.507  13.605  23.056  0.00  0.00    +0.000 A 
ATOM     22  C   UNL     1      -1.620  12.526  23.007  0.00  0.00    +0.000 A 
ENDBRANCH  15  17
BRANCH   1  24
ATOM     23  C   UNL     1       3.579  15.390  17.471  0.00  0.00    +0.000 C 
ATOM     24  N   UNL     1       3.080  15.315  18.839  0.00  0.00    +0.000 N 
ATOM     25  C   UNL     1       3.046  16.550  19.614  0.00  0.00    +0.000 C 
ENDBRANCH   1  24
BRANCH  10  26
ATOM     26  N   UNL     1       2.864   5.712  19.047  0.00  0.00    +0.000 N 
ATOM     27  C   UNL     1       4.253   5.401  19.377  0.00  0.00    +0.000 C 
ATOM     28  C   UNL     1       2.256   4.827  18.058  0.00  0.00    +0.000 C 
ENDBRANCH  10  26
TORSDOF 3
ENDMDL
MODEL 4
REMARK VINA RESULT:      -6.4      2.236      4.879
REMARK  Name = 
REMARK  7 active torsions:
REMARK  status: ('A' for Active; 'I' for Inactive)
REMARK    1  A    between atoms: C_1  and  N_2
REMARK    2  A    between atoms: N_2  and  C_3
REMARK    3  A    between atoms: N_2  and  C_4
REMARK    4  A    between atoms: C_13  and  N_14
REMARK    5  A    between atoms: N_14  and  C_15
REMARK    6  A    between atoms: N_14  and  C_16
REMARK    7  A    between atoms: C_21  and  C_23
REMARK                            x       y       z     vdW  Elec       q    Type
REMARK                         _______ _______ _______ _____ _____    ______ ____
ROOT
ATOM      1  C   UNL     1       0.995  15.096  19.340  0.00  0.00    +0.000 A 
ATOM      2  C   UNL     1       0.908  15.052  20.740  0.00  0.00    +0.000 A 
ATOM      3  C   UNL     1       0.544  13.888  21.431  0.00  0.00    +0.000 A 
ATOM      4  C   UNL     1       0.260  12.704  20.744  0.00  0.00    +0.000 A 
ATOM      5  C   UNL     1       0.398  12.707  19.351  0.00  0.00    +0.000 A 
ATOM      6  C   UNL     1       0.737  13.889  18.671  0.00  0.00    +0.000 A 
ATOM      7  S   UNL     1       0.109  11.230  18.400  0.00  0.00    +0.000 S 
ATOM      8  C   UNL     1       0.660  10.058  19.628  0.00  0.00    +0.000 A 
ATOM      9  C   UNL     1       1.266   8.867  19.180  0.00  0.00    +0.000 A 
ATOM     10  C   UNL     1       1.752   7.891  20.062  0.00  0.00    +0.000 A 
ATOM     11  C   UNL     1       1.571   8.161  21.423  0.00  0.00    +0.000 A 
ATOM     12  C   UNL     1       0.943   9.330  21.884  0.00  0.00    +0.000 A 
ATOM     13  C   UNL     1       0.482  10.305  20.998  0.00  0.00    +0.000 A 
ATOM     14  N   UNL     1      -0.123  11.524  21.467  0.00  0.00    +0.000 N 
ATOM     15  C   UNL     1      -0.918  11.553  22.631  0.00  0.00    +0.000 C 
ATOM     16  O   UNL     1      -0.923  10.705  23.525  0.00  0.00    +0.000 OA
ENDROOT
BRANCH  15  17
ATOM     17  C   UNL     1      -1.966  12.622  22.762  0.00  0.00    +0.000 A 
ATOM     18  C   UNL     1      -3.095  12.652  21.936  0.00  0.00    +0.000 A 
ATOM     19  C   UNL     1      -4.062  13.648  22.089  0.00  0.00    +0.000 A 
ATOM     20  C   UNL     1      -3.927  14.596  23.106  0.00  0.00    +0.000 A 
ATOM     21  C   UNL     1      -2.833  14.543  23.964  0.00  0.00    +0.000 A 
ATOM     22  C   UNL     1      -1.851  13.563  23.799  0.00  0.00    +0.000 A 
ENDBRANCH  15  17
BRANCH   1  24
ATOM     23  C   UNL     1       2.693  16.466  18.164  0.00  0.00    +0.000 C 
ATOM     24  N   UNL     1       1.338  16.260  18.661  0.00  0.00    +0.000 N 
ATOM     25  C   UNL     1       0.313  17.210  18.241  0.00  0.00    +0.000 C 
ENDBRANCH   1  24
BRANCH  10  26
ATOM     26  N   UNL     1       2.405   6.759  19.608  0.00  0.00    +0.000 N 
ATOM     27  C   UNL     1       3.112   6.736  18.329  0.00  0.00    +0.000 C 
ATOM     28  C   UNL     1       2.238   5.453  20.239  0.00  0.00    +0.000 C 
ENDBRANCH  10  26
TORSDOF 3
ENDMDL
MODEL 5
REMARK VINA RESULT:      -6.3      2.028      4.708
REMARK  Name = 
REMARK  7 active torsions:
REMARK  status: ('A' for Active; 'I' for Inactive)
REMARK    1  A    between atoms: C_1  and  N_2
REMARK    2  A    between atoms: N_2  and  C_3
REMARK    3  A    between atoms: N_2  and  C_4
REMARK    4  A    between atoms: C_13  and  N_14
REMARK    5  A    between atoms: N_14  and  C_15
REMARK    6  A    between atoms: N_14  and  C_16
REMARK    7  A    between atoms: C_21  and  C_23
REMARK                            x       y       z     vdW  Elec       q    Type
REMARK                         _______ _______ _______ _____ _____    ______ ____
ROOT
ATOM      1  C   UNL     1       2.398  14.134  19.219  0.00  0.00    +0.000 A 
ATOM      2  C   UNL     1       2.048  14.017  20.573  0.00  0.00    +0.000 A 
ATOM      3  C   UNL     1       1.443  12.865  21.094  0.00  0.00    +0.000 A 
ATOM      4  C   UNL     1       1.170  11.765  20.276  0.00  0.00    +0.000 A 
ATOM      5  C   UNL     1       1.565  11.834  18.934  0.00  0.00    +0.000 A 
ATOM      6  C   UNL     1       2.145  13.006  18.422  0.00  0.00    +0.000 A 
ATOM      7  S   UNL     1       1.306  10.460  17.833  0.00  0.00    +0.000 S 
ATOM      8  C   UNL     1       1.495   9.161  19.042  0.00  0.00    +0.000 A 
ATOM      9  C   UNL     1       2.047   7.936  18.617  0.00  0.00    +0.000 A 
ATOM     10  C   UNL     1       2.255   6.859  19.492  0.00  0.00    +0.000 A 
ATOM     11  C   UNL     1       1.854   7.069  20.816  0.00  0.00    +0.000 A 
ATOM     12  C   UNL     1       1.275   8.273  21.248  0.00  0.00    +0.000 A 
ATOM     13  C   UNL     1       1.091   9.346  20.375  0.00  0.00    +0.000 A 
ATOM     14  N   UNL     1       0.539  10.597  20.822  0.00  0.00    +0.000 N 
ATOM     15  C   UNL     1      -0.451  10.650  21.825  0.00  0.00    +0.000 C 
ATOM     16  O   UNL     1      -0.710   9.757  22.634  0.00  0.00    +0.000 OA
ENDROOT
BRANCH  15  17
ATOM     17  C   UNL     1      -1.389  11.824  21.851  0.00  0.00    +0.000 A 
ATOM     18  C   UNL     1      -1.507  12.651  22.973  0.00  0.00    +0.000 A 
ATOM     19  C   UNL     1      -2.375  13.744  22.964  0.00  0.00    +0.000 A 
ATOM     20  C   UNL     1      -3.098  14.046  21.808  0.00  0.00    +0.000 A 
ATOM     21  C   UNL     1      -2.950  13.259  20.670  0.00  0.00    +0.000 A 
ATOM     22  C   UNL     1      -2.101  12.150  20.683  0.00  0.00    +0.000 A 
ENDBRANCH  15  17
BRANCH   1  24
ATOM     23  C   UNL     1       4.083  15.212  17.756  0.00  0.00    +0.000 C 
ATOM     24  N   UNL     1       2.980  15.288  18.707  0.00  0.00    +0.000 N 
ATOM     25  C   UNL     1       2.374  16.595  18.935  0.00  0.00    +0.000 C 
ENDBRANCH   1  24
BRANCH  10  26
ATOM     26  N   UNL     1       2.861   5.688  19.073  0.00  0.00    +0.000 N 
ATOM     27  C   UNL     1       2.097   4.591  18.483  0.00  0.00    +0.000 C 
ATOM     28  C   UNL     1       4.244   5.361  19.405  0.00  0.00    +0.000 C 
ENDBRANCH  10  26
TORSDOF 3
ENDMDL
MODEL 6
REMARK VINA RESULT:      -6.3      2.384      4.826
REMARK  Name = 
REMARK  7 active torsions:
REMARK  status: ('A' for Active; 'I' for Inactive)
REMARK    1  A    between atoms: C_1  and  N_2
REMARK    2  A    between atoms: N_2  and  C_3
REMARK    3  A    between atoms: N_2  and  C_4
REMARK    4  A    between atoms: C_13  and  N_14
REMARK    5  A    between atoms: N_14  and  C_15
REMARK    6  A    between atoms: N_14  and  C_16
REMARK    7  A    between atoms: C_21  and  C_23
REMARK                            x       y       z     vdW  Elec       q    Type
REMARK                         _______ _______ _______ _____ _____    ______ ____
ROOT
ATOM      1  C   UNL     1       0.078  15.486  19.366  0.00  0.00    +0.000 A 
ATOM      2  C   UNL     1       0.162  15.387  20.763  0.00  0.00    +0.000 A 
ATOM      3  C   UNL     1      -0.003  14.170  21.438  0.00  0.00    +0.000 A 
ATOM      4  C   UNL     1      -0.251  12.987  20.736  0.00  0.00    +0.000 A 
ATOM      5  C   UNL     1      -0.280  13.050  19.339  0.00  0.00    +0.000 A 
ATOM      6  C   UNL     1      -0.140  14.282  18.678  0.00  0.00    +0.000 A 
ATOM      7  S   UNL     1      -0.535  11.584  18.362  0.00  0.00    +0.000 S 
ATOM      8  C   UNL     1       0.268  10.434  19.464  0.00  0.00    +0.000 A 
ATOM      9  C   UNL     1       0.929   9.325  18.897  0.00  0.00    +0.000 A 
ATOM     10  C   UNL     1       1.608   8.374  19.673  0.00  0.00    +0.000 A 
ATOM     11  C   UNL     1       1.564   8.580  21.056  0.00  0.00    +0.000 A 
ATOM     12  C   UNL     1       0.885   9.663  21.638  0.00  0.00    +0.000 A 
ATOM     13  C   UNL     1       0.231  10.615  20.856  0.00  0.00    +0.000 A 
ATOM     14  N   UNL     1      -0.430  11.750  21.444  0.00  0.00    +0.000 N 
ATOM     15  C   UNL     1      -1.080  11.661  22.693  0.00  0.00    +0.000 C 
ATOM     16  O   UNL     1      -0.897  10.787  23.542  0.00  0.00    +0.000 OA
ENDROOT
BRANCH  15  17
ATOM     17  C   UNL     1      -2.204  12.613  22.990  0.00  0.00    +0.000 A 
ATOM     18  C   UNL     1      -2.086  13.614  23.960  0.00  0.00    +0.000 A 
ATOM     19  C   UNL     1      -3.141  14.495  24.205  0.00  0.00    +0.000 A 
ATOM     20  C   UNL     1      -4.309  14.408  23.444  0.00  0.00    +0.000 A 
ATOM     21  C   UNL     1      -4.416  13.448  22.442  0.00  0.00    +0.000 A 
ATOM     22  C   UNL     1      -3.372  12.549  22.210  0.00  0.00    +0.000 A 
ENDBRANCH  15  17
BRANCH   1  24
ATOM     23  C   UNL     1       1.534  17.154  18.252  0.00  0.00    +0.000 C 
ATOM     24  N   UNL     1       0.224  16.701  18.705  0.00  0.00    +0.000 N 
ATOM     25  C   UNL     1      -0.943  17.454  18.259  0.00  0.00    +0.000 C 
ENDBRANCH   1  24
BRANCH  10  26
ATOM     26  N   UNL     1       2.309   7.330  19.097  0.00  0.00    +0.000 N 
ATOM     27  C   UNL     1       2.505   6.057  19.786  0.00  0.00    +0.000 C 
ATOM     28  C   UNL     1       3.102   7.498  17.883  0.00  0.00    +0.000 C 
ENDBRANCH  10  26
TORSDOF 3
ENDMDL
MODEL 7
REMARK VINA RESULT:      -6.3      2.257      4.803
REMARK  Name = 
REMARK  7 active torsions:
REMARK  status: ('A' for Active; 'I' for Inactive)
REMARK    1  A    between atoms: C_1  and  N_2
REMARK    2  A    between atoms: N_2  and  C_3
REMARK    3  A    between atoms: N_2  and  C_4
REMARK    4  A    between atoms: C_13  and  N_14
REMARK    5  A    between atoms: N_14  and  C_15
REMARK    6  A    between atoms: N_14  and  C_16
REMARK    7  A    between atoms: C_21  and  C_23
REMARK                            x       y       z     vdW  Elec       q    Type
REMARK                         _______ _______ _______ _____ _____    ______ ____
ROOT
ATOM      1  C   UNL     1       1.614  15.120  19.446  0.00  0.00    +0.000 A 
ATOM      2  C   UNL     1       1.434  15.065  20.837  0.00  0.00    +0.000 A 
ATOM      3  C   UNL     1       0.940  13.924  21.483  0.00  0.00    +0.000 A 
ATOM      4  C   UNL     1       0.610  12.775  20.759  0.00  0.00    +0.000 A 
ATOM      5  C   UNL     1       0.836  12.785  19.378  0.00  0.00    +0.000 A 
ATOM      6  C   UNL     1       1.307  13.945  18.742  0.00  0.00    +0.000 A 
ATOM      7  S   UNL     1       0.497  11.347  18.385  0.00  0.00    +0.000 S 
ATOM      8  C   UNL     1       0.878  10.121  19.624  0.00  0.00    +0.000 A 
ATOM      9  C   UNL     1       1.418   8.892  19.194  0.00  0.00    +0.000 A 
ATOM     10  C   UNL     1       1.771   7.869  20.088  0.00  0.00    +0.000 A 
ATOM     11  C   UNL     1       1.525   8.136  21.438  0.00  0.00    +0.000 A 
ATOM     12  C   UNL     1       0.960   9.343  21.880  0.00  0.00    +0.000 A 
ATOM     13  C   UNL     1       0.632  10.362  20.985  0.00  0.00    +0.000 A 
ATOM     14  N   UNL     1       0.093  11.618  21.436  0.00  0.00    +0.000 N 
ATOM     15  C   UNL     1      -0.769  11.694  22.549  0.00  0.00    +0.000 C 
ATOM     16  O   UNL     1      -0.896  10.838  23.426  0.00  0.00    +0.000 OA
ENDROOT
BRANCH  15  17
ATOM     17  C   UNL     1      -1.739  12.839  22.632  0.00  0.00    +0.000 A 
ATOM     18  C   UNL     1      -1.633  13.826  23.618  0.00  0.00    +0.000 A 
ATOM     19  C   UNL     1      -2.539  14.888  23.663  0.00  0.00    +0.000 A 
ATOM     20  C   UNL     1      -3.533  14.993  22.688  0.00  0.00    +0.000 A 
ATOM     21  C   UNL     1      -3.616  14.043  21.674  0.00  0.00    +0.000 A 
ATOM     22  C   UNL     1      -2.726  12.966  21.639  0.00  0.00    +0.000 A 
ENDBRANCH  15  17
BRANCH   1  24
ATOM     23  C   UNL     1       1.741  17.591  19.302  0.00  0.00    +0.000 C 
ATOM     24  N   UNL     1       2.087  16.263  18.811  0.00  0.00    +0.000 N 
ATOM     25  C   UNL     1       3.108  16.172  17.773  0.00  0.00    +0.000 C 
ENDBRANCH   1  24
BRANCH  10  26
ATOM     26  N   UNL     1       2.363   6.697  19.655  0.00  0.00    +0.000 N 
ATOM     27  C   UNL     1       3.004   6.592  18.346  0.00  0.00    +0.000 C 
ATOM     28  C   UNL     1       2.186   5.427  20.354  0.00  0.00    +0.000 C 
ENDBRANCH  10  26
TORSDOF 3
ENDMDL
MODEL 8
REMARK VINA RESULT:      -6.2      2.356      5.010
REMARK  Name = 
REMARK  7 active torsions:
REMARK  status: ('A' for Active; 'I' for Inactive)
REMARK    1  A    between atoms: C_1  and  N_2
REMARK    2  A    between atoms: N_2  and  C_3
REMARK    3  A    between atoms: N_2  and  C_4
REMARK    4  A    between atoms: C_13  and  N_14
REMARK    5  A    between atoms: N_14  and  C_15
REMARK    6  A    between atoms: N_14  and  C_16
REMARK    7  A    between atoms: C_21  and  C_23
REMARK                            x       y       z     vdW  Elec       q    Type
REMARK                         _______ _______ _______ _____ _____    ______ ____
ROOT
ATOM      1  C   UNL     1       0.070  15.436  19.424  0.00  0.00    +0.000 A 
ATOM      2  C   UNL     1      -0.025  15.342  20.821  0.00  0.00    +0.000 A 
ATOM      3  C   UNL     1      -0.280  14.128  21.474  0.00  0.00    +0.000 A 
ATOM      4  C   UNL     1      -0.443  12.944  20.749  0.00  0.00    +0.000 A 
ATOM      5  C   UNL     1      -0.293  13.002  19.359  0.00  0.00    +0.000 A 
ATOM      6  C   UNL     1      -0.064  14.230  18.718  0.00  0.00    +0.000 A 
ATOM      7  S   UNL     1      -0.429  11.533  18.362  0.00  0.00    +0.000 S 
ATOM      8  C   UNL     1       0.221  10.383  19.562  0.00  0.00    +0.000 A 
ATOM      9  C   UNL     1       0.944   9.270  19.087  0.00  0.00    +0.000 A 
ATOM     10  C   UNL     1       1.513   8.319  19.947  0.00  0.00    +0.000 A 
ATOM     11  C   UNL     1       1.295   8.530  21.312  0.00  0.00    +0.000 A 
ATOM     12  C   UNL     1       0.553   9.618  21.799  0.00  0.00    +0.000 A 
ATOM     13  C   UNL     1       0.008  10.570  20.937  0.00  0.00    +0.000 A 
ATOM     14  N   UNL     1      -0.717  11.711  21.433  0.00  0.00    +0.000 N 
ATOM     15  C   UNL     1      -1.521  11.629  22.589  0.00  0.00    +0.000 C 
ATOM     16  O   UNL     1      -1.452  10.758  23.458  0.00  0.00    +0.000 OA
ENDROOT
BRANCH  15  17
ATOM     17  C   UNL     1      -2.669  12.587  22.737  0.00  0.00    +0.000 A 
ATOM     18  C   UNL     1      -3.723  12.623  21.819  0.00  0.00    +0.000 A 
ATOM     19  C   UNL     1      -4.786  13.513  21.989  0.00  0.00    +0.000 A 
ATOM     20  C   UNL     1      -4.822  14.344  23.112  0.00  0.00    +0.000 A 
ATOM     21  C   UNL     1      -3.802  14.278  24.058  0.00  0.00    +0.000 A 
ATOM     22  C   UNL     1      -2.725  13.407  23.878  0.00  0.00    +0.000 A 
ENDBRANCH  15  17
BRANCH   1  24
ATOM     23  C   UNL     1      -0.690  17.713  18.807  0.00  0.00    +0.000 C 
ATOM     24  N   UNL     1       0.305  16.647  18.783  0.00  0.00    +0.000 N 
ATOM     25  C   UNL     1       1.626  16.969  18.254  0.00  0.00    +0.000 C 
ENDBRANCH   1  24
BRANCH  10  26
ATOM     26  N   UNL     1       2.277   7.269  19.468  0.00  0.00    +0.000 N 
ATOM     27  C   UNL     1       2.975   7.344  18.186  0.00  0.00    +0.000 C 
ATOM     28  C   UNL     1       2.249   5.942  20.074  0.00  0.00    +0.000 C 
ENDBRANCH  10  26
TORSDOF 3
ENDMDL
MODEL 9
REMARK VINA RESULT:      -6.1      2.583      5.255
REMARK  Name = 
REMARK  7 active torsions:
REMARK  status: ('A' for Active; 'I' for Inactive)
REMARK    1  A    between atoms: C_1  and  N_2
REMARK    2  A    between atoms: N_2  and  C_3
REMARK    3  A    between atoms: N_2  and  C_4
REMARK    4  A    between atoms: C_13  and  N_14
REMARK    5  A    between atoms: N_14  and  C_15
REMARK    6  A    between atoms: N_14  and  C_16
REMARK    7  A    between atoms: C_21  and  C_23
REMARK                            x       y       z     vdW  Elec       q    Type
REMARK                         _______ _______ _______ _____ _____    ______ ____
ROOT
ATOM      1  C   UNL     1      -0.276  16.159  19.913  0.00  0.00    +0.000 A 
ATOM      2  C   UNL     1      -0.379  15.904  21.289  0.00  0.00    +0.000 A 
ATOM      3  C   UNL     1      -0.627  14.621  21.796  0.00  0.00    +0.000 A 
ATOM      4  C   UNL     1      -0.773  13.526  20.939  0.00  0.00    +0.000 A 
ATOM      5  C   UNL     1      -0.615  13.745  19.566  0.00  0.00    +0.000 A 
ATOM      6  C   UNL     1      -0.394  15.041  19.072  0.00  0.00    +0.000 A 
ATOM      7  S   UNL     1      -0.730  12.400  18.406  0.00  0.00    +0.000 S 
ATOM      8  C   UNL     1      -0.076  11.126  19.470  0.00  0.00    +0.000 A 
ATOM      9  C   UNL     1       0.661  10.081  18.876  0.00  0.00    +0.000 A 
ATOM     10  C   UNL     1       1.234   9.042  19.625  0.00  0.00    +0.000 A 
ATOM     11  C   UNL     1       1.005   9.093  21.004  0.00  0.00    +0.000 A 
ATOM     12  C   UNL     1       0.249  10.111  21.607  0.00  0.00    +0.000 A 
ATOM     13  C   UNL     1      -0.300  11.151  20.856  0.00  0.00    +0.000 A 
ATOM     14  N   UNL     1      -1.039  12.220  21.474  0.00  0.00    +0.000 N 
ATOM     15  C   UNL     1      -1.850  11.999  22.606  0.00  0.00    +0.000 C 
ATOM     16  O   UNL     1      -1.778  11.034  23.370  0.00  0.00    +0.000 OA
ENDROOT
BRANCH  15  17
ATOM     17  C   UNL     1      -3.008  12.923  22.855  0.00  0.00    +0.000 A 
ATOM     18  C   UNL     1      -4.081  13.019  21.962  0.00  0.00    +0.000 A 
ATOM     19  C   UNL     1      -5.152  13.875  22.226  0.00  0.00    +0.000 A 
ATOM     20  C   UNL     1      -5.178  14.608  23.415  0.00  0.00    +0.000 A 
ATOM     21  C   UNL     1      -4.140  14.480  24.333  0.00  0.00    +0.000 A 
ATOM     22  C   UNL     1      -3.054  13.644  24.062  0.00  0.00    +0.000 A 
ENDBRANCH  15  17
BRANCH   1  24
ATOM     23  C   UNL     1       1.212  18.126  19.669  0.00  0.00    +0.000 C 
ATOM     24  N   UNL     1      -0.049  17.438  19.418  0.00  0.00    +0.000 N 
ATOM     25  C   UNL     1      -0.969  18.043  18.460  0.00  0.00    +0.000 C 
ENDBRANCH   1  24
BRANCH  10  26
ATOM     26  N   UNL     1       2.011   8.062  19.034  0.00  0.00    +0.000 N 
ATOM     27  C   UNL     1       2.372   6.833  19.738  0.00  0.00    +0.000 C 
ATOM     28  C   UNL     1       2.722   8.280  17.778  0.00  0.00    +0.000 C 
ENDBRANCH  10  26
TORSDOF 3
ENDMDL
