MODEL 1
REMARK VINA RESULT:      -8.3      0.000      0.000
REMARK  Name = 
REMARK  3 active torsions:
REMARK  status: ('A' for Active; 'I' for Inactive)
REMARK    1  A    between atoms: C_4  and  C_5
REMARK    2  A    between atoms: C_12  and  C_13
REMARK    3  A    between atoms: C_13  and  C_14
REMARK                            x       y       z     vdW  Elec       q    Type
REMARK                         _______ _______ _______ _____ _____    ______ ____
ROOT
ATOM      1  O   UNL     1       7.734   5.041  19.224  0.00  0.00    +0.000 OA
ATOM      2  C   UNL     1       6.897   5.157  18.338  0.00  0.00    +0.000 A 
ATOM      3  C   UNL     1       7.215   4.855  16.938  0.00  0.00    +0.000 A 
ATOM      4  C   UNL     1       6.243   4.991  16.022  0.00  0.00    +0.000 A 
ATOM      5  N   UNL     1       4.984   5.460  16.322  0.00  0.00    +0.000 NA
ATOM      6  C   UNL     1       4.714   5.716  17.564  0.00  0.00    +0.000 A 
ATOM      7  N   UNL     1       5.621   5.562  18.572  0.00  0.00    +0.000 N 
ATOM      8  H   UNL     1       5.379   5.745  19.535  0.00  0.00    +0.000 HD
ENDROOT
BRANCH   4   9
ATOM      9  C   UNL     1       6.505   4.634  14.601  0.00  0.00    +0.000 A 
ATOM     10  C   UNL     1       5.728   3.698  13.908  0.00  0.00    +0.000 A 
ATOM     11  C   UNL     1       6.014   3.440  12.577  0.00  0.00    +0.000 A 
ATOM     12  N   UNL     1       7.002   4.046  11.890  0.00  0.00    +0.000 NA
ATOM     13  C   UNL     1       7.731   4.960  12.562  0.00  0.00    +0.000 A 
ATOM     14  C   UNL     1       7.523   5.284  13.894  0.00  0.00    +0.000 A 
ENDBRANCH   4   9
BRANCH   6  15
ATOM     15  C   UNL     1       3.343   6.217  17.967  0.00  0.00    +0.000 C 
BRANCH  15  16
ATOM     16  C   UNL     1       2.494   5.145  18.607  0.00  0.00    +0.000 A 
ATOM     17  C   UNL     1       2.140   5.223  19.961  0.00  0.00    +0.000 A 
ATOM     18  C   UNL     1       1.338   4.239  20.541  0.00  0.00    +0.000 A 
ATOM     19  C   UNL     1       0.875   3.172  19.775  0.00  0.00    +0.000 A 
ATOM     20  C   UNL     1       1.213   3.086  18.426  0.00  0.00    +0.000 A 
ATOM     21  C   UNL     1       2.018   4.067  17.845  0.00  0.00    +0.000 A 
ENDBRANCH  15  16
ENDBRANCH   6  15
TORSDOF 3
ENDMDL
MODEL 2
REMARK VINA RESULT:      -8.2      0.161      1.513
REMARK  Name = 
REMARK  3 active torsions:
REMARK  status: ('A' for Active; 'I' for Inactive)
REMARK    1  A    between atoms: C_4  and  C_5
REMARK    2  A    between atoms: C_12  and  C_13
REMARK    3  A    between atoms: C_13  and  C_14
REMARK                            x       y       z     vdW  Elec       q    Type
REMARK                         _______ _______ _______ _____ _____    ______ ____
ROOT
ATOM      1  O   UNL     1       7.545   5.109  19.342  0.00  0.00    +0.000 OA
ATOM      2  C   UNL     1       6.728   5.220  18.437  0.00  0.00    +0.000 A 
ATOM      3  C   UNL     1       7.090   4.955  17.040  0.00  0.00    +0.000 A 
ATOM      4  C   UNL     1       6.140   5.083  16.101  0.00  0.00    +0.000 A 
ATOM      5  N   UNL     1       4.861   5.512  16.377  0.00  0.00    +0.000 NA
ATOM      6  C   UNL     1       4.551   5.736  17.615  0.00  0.00    +0.000 A 
ATOM      7  N   UNL     1       5.436   5.586  18.644  0.00  0.00    +0.000 N 
ATOM      8  H   UNL     1       5.164   5.744  19.604  0.00  0.00    +0.000 HD
ENDROOT
BRANCH   4   9
ATOM      9  C   UNL     1       6.449   4.762  14.681  0.00  0.00    +0.000 A 
ATOM     10  C   UNL     1       7.513   5.357  13.994  0.00  0.00    +0.000 A 
ATOM     11  C   UNL     1       7.758   4.985  12.681  0.00  0.00    +0.000 A 
ATOM     12  N   UNL     1       7.033   4.067  12.013  0.00  0.00    +0.000 NA
ATOM     13  C   UNL     1       6.023   3.486  12.693  0.00  0.00    +0.000 A 
ATOM     14  C   UNL     1       5.699   3.793  14.005  0.00  0.00    +0.000 A 
ENDBRANCH   4   9
BRANCH   6  15
ATOM     15  C   UNL     1       3.157   6.192  17.992  0.00  0.00    +0.000 C 
BRANCH  15  16
ATOM     16  C   UNL     1       2.340   5.100  18.639  0.00  0.00    +0.000 A 
ATOM     17  C   UNL     1       1.914   3.989  17.899  0.00  0.00    +0.000 A 
ATOM     18  C   UNL     1       1.176   2.973  18.509  0.00  0.00    +0.000 A 
ATOM     19  C   UNL     1       0.862   3.051  19.864  0.00  0.00    +0.000 A 
ATOM     20  C   UNL     1       1.286   4.147  20.612  0.00  0.00    +0.000 A 
ATOM     21  C   UNL     1       2.021   5.166  20.004  0.00  0.00    +0.000 A 
ENDBRANCH  15  16
ENDBRANCH   6  15
TORSDOF 3
ENDMDL
MODEL 3
REMARK VINA RESULT:      -8.2      0.139      1.088
REMARK  Name = 
REMARK  3 active torsions:
REMARK  status: ('A' for Active; 'I' for Inactive)
REMARK    1  A    between atoms: C_4  and  C_5
REMARK    2  A    between atoms: C_12  and  C_13
REMARK    3  A    between atoms: C_13  and  C_14
REMARK                            x       y       z     vdW  Elec       q    Type
REMARK                         _______ _______ _______ _____ _____    ______ ____
ROOT
ATOM      1  O   UNL     1       7.632   5.104  19.292  0.00  0.00    +0.000 OA
ATOM      2  C   UNL     1       6.816   5.229  18.388  0.00  0.00    +0.000 A 
ATOM      3  C   UNL     1       7.158   4.913  16.997  0.00  0.00    +0.000 A 
ATOM      4  C   UNL     1       6.209   5.060  16.059  0.00  0.00    +0.000 A 
ATOM      5  N   UNL     1       4.953   5.553  16.329  0.00  0.00    +0.000 NA
ATOM      6  C   UNL     1       4.660   5.822  17.563  0.00  0.00    +0.000 A 
ATOM      7  N   UNL     1       5.543   5.658  18.592  0.00  0.00    +0.000 N 
ATOM      8  H   UNL     1       5.283   5.852  19.548  0.00  0.00    +0.000 HD
ENDROOT
BRANCH   4   9
ATOM      9  C   UNL     1       6.496   4.689  14.647  0.00  0.00    +0.000 A 
ATOM     10  C   UNL     1       5.705   3.778  13.936  0.00  0.00    +0.000 A 
ATOM     11  C   UNL     1       6.016   3.506  12.614  0.00  0.00    +0.000 A 
ATOM     12  N   UNL     1       7.042   4.075  11.951  0.00  0.00    +0.000 NA
ATOM     13  C   UNL     1       7.783   4.967  12.639  0.00  0.00    +0.000 A 
ATOM     14  C   UNL     1       7.553   5.302  13.964  0.00  0.00    +0.000 A 
ENDBRANCH   4   9
BRANCH   6  15
ATOM     15  C   UNL     1       3.290   6.350  17.934  0.00  0.00    +0.000 C 
BRANCH  15  16
ATOM     16  C   UNL     1       2.427   5.312  18.610  0.00  0.00    +0.000 A 
ATOM     17  C   UNL     1       1.927   4.218  17.891  0.00  0.00    +0.000 A 
ATOM     18  C   UNL     1       1.145   3.251  18.527  0.00  0.00    +0.000 A 
ATOM     19  C   UNL     1       0.863   3.362  19.887  0.00  0.00    +0.000 A 
ATOM     20  C   UNL     1       1.362   4.440  20.614  0.00  0.00    +0.000 A 
ATOM     21  C   UNL     1       2.139   5.410  19.980  0.00  0.00    +0.000 A 
ENDBRANCH  15  16
ENDBRANCH   6  15
TORSDOF 3
ENDMDL
MODEL 4
REMARK VINA RESULT:      -8.2      0.177      1.062
REMARK  Name = 
REMARK  3 active torsions:
REMARK  status: ('A' for Active; 'I' for Inactive)
REMARK    1  A    between atoms: C_4  and  C_5
REMARK    2  A    between atoms: C_12  and  C_13
REMARK    3  A    between atoms: C_13  and  C_14
REMARK                            x       y       z     vdW  Elec       q    Type
REMARK                         _______ _______ _______ _____ _____    ______ ____
ROOT
ATOM      1  O   UNL     1       7.778   4.888  19.094  0.00  0.00    +0.000 OA
ATOM      2  C   UNL     1       6.935   5.072  18.226  0.00  0.00    +0.000 A 
ATOM      3  C   UNL     1       7.214   4.787  16.814  0.00  0.00    +0.000 A 
ATOM      4  C   UNL     1       6.237   4.999  15.917  0.00  0.00    +0.000 A 
ATOM      5  N   UNL     1       5.012   5.531  16.250  0.00  0.00    +0.000 NA
ATOM      6  C   UNL     1       4.776   5.773  17.501  0.00  0.00    +0.000 A 
ATOM      7  N   UNL     1       5.688   5.543  18.491  0.00  0.00    +0.000 N 
ATOM      8  H   UNL     1       5.472   5.717  19.461  0.00  0.00    +0.000 HD
ENDROOT
BRANCH   4   9
ATOM      9  C   UNL     1       6.457   4.663  14.485  0.00  0.00    +0.000 A 
ATOM     10  C   UNL     1       7.516   5.200  13.744  0.00  0.00    +0.000 A 
ATOM     11  C   UNL     1       7.674   4.816  12.421  0.00  0.00    +0.000 A 
ATOM     12  N   UNL     1       6.868   3.938  11.793  0.00  0.00    +0.000 NA
ATOM     13  C   UNL     1       5.864   3.412  12.523  0.00  0.00    +0.000 A 
ATOM     14  C   UNL     1       5.623   3.736  13.849  0.00  0.00    +0.000 A 
ENDBRANCH   4   9
BRANCH   6  15
ATOM     15  C   UNL     1       3.442   6.340  17.940  0.00  0.00    +0.000 C 
BRANCH  15  16
ATOM     16  C   UNL     1       2.563   5.314  18.612  0.00  0.00    +0.000 A 
ATOM     17  C   UNL     1       2.218   5.441  19.964  0.00  0.00    +0.000 A 
ATOM     18  C   UNL     1       1.388   4.499  20.574  0.00  0.00    +0.000 A 
ATOM     19  C   UNL     1       0.887   3.426  19.839  0.00  0.00    +0.000 A 
ATOM     20  C   UNL     1       1.215   3.294  18.492  0.00  0.00    +0.000 A 
ATOM     21  C   UNL     1       2.049   4.232  17.881  0.00  0.00    +0.000 A 
ENDBRANCH  15  16
ENDBRANCH   6  15
TORSDOF 3
ENDMDL
MODEL 5
REMARK VINA RESULT:      -7.6      2.984      4.622
REMARK  Name = 
REMARK  3 active torsions:
REMARK  status: ('A' for Active; 'I' for Inactive)
REMARK    1  A    between atoms: C_4  and  C_5
REMARK    2  A    between atoms: C_12  and  C_13
REMARK    3  A    between atoms: C_13  and  C_14
REMARK                            x       y       z     vdW  Elec       q    Type
REMARK                         _______ _______ _______ _____ _____    ______ ____
ROOT
ATOM      1  O   UNL     1       0.872   2.368  18.259  0.00  0.00    +0.000 OA
ATOM      2  C   UNL     1       1.693   3.252  18.463  0.00  0.00    +0.000 A 
ATOM      3  C   UNL     1       3.008   3.242  17.812  0.00  0.00    +0.000 A 
ATOM      4  C   UNL     1       3.854   4.252  18.071  0.00  0.00    +0.000 A 
ATOM      5  N   UNL     1       3.573   5.260  18.966  0.00  0.00    +0.000 NA
ATOM      6  C   UNL     1       2.405   5.261  19.529  0.00  0.00    +0.000 A 
ATOM      7  N   UNL     1       1.461   4.305  19.290  0.00  0.00    +0.000 N 
ATOM      8  H   UNL     1       0.549   4.341  19.723  0.00  0.00    +0.000 HD
ENDROOT
BRANCH   4   9
ATOM      9  C   UNL     1       5.172   4.313  17.383  0.00  0.00    +0.000 A 
ATOM     10  C   UNL     1       5.299   4.179  15.996  0.00  0.00    +0.000 A 
ATOM     11  C   UNL     1       6.558   4.277  15.423  0.00  0.00    +0.000 A 
ATOM     12  N   UNL     1       7.686   4.507  16.123  0.00  0.00    +0.000 NA
ATOM     13  C   UNL     1       7.548   4.655  17.457  0.00  0.00    +0.000 A 
ATOM     14  C   UNL     1       6.334   4.570  18.120  0.00  0.00    +0.000 A 
ENDBRANCH   4   9
BRANCH   6  15
ATOM     15  C   UNL     1       2.022   6.351  20.508  0.00  0.00    +0.000 C 
BRANCH  15  16
ATOM     16  C   UNL     1       1.777   7.680  19.838  0.00  0.00    +0.000 A 
ATOM     17  C   UNL     1       2.172   7.898  18.511  0.00  0.00    +0.000 A 
ATOM     18  C   UNL     1       1.924   9.123  17.890  0.00  0.00    +0.000 A 
ATOM     19  C   UNL     1       1.273  10.141  18.584  0.00  0.00    +0.000 A 
ATOM     20  C   UNL     1       0.869   9.935  19.901  0.00  0.00    +0.000 A 
ATOM     21  C   UNL     1       1.119   8.712  20.525  0.00  0.00    +0.000 A 
ENDBRANCH  15  16
ENDBRANCH   6  15
TORSDOF 3
ENDMDL
MODEL 6
REMARK VINA RESULT:      -7.6      2.533      3.852
REMARK  Name = 
REMARK  3 active torsions:
REMARK  status: ('A' for Active; 'I' for Inactive)
REMARK    1  A    between atoms: C_4  and  C_5
REMARK    2  A    between atoms: C_12  and  C_13
REMARK    3  A    between atoms: C_13  and  C_14
REMARK                            x       y       z     vdW  Elec       q    Type
REMARK                         _______ _______ _______ _____ _____    ______ ____
ROOT
ATOM      1  O   UNL     1       2.156   9.697  17.442  0.00  0.00    +0.000 OA
ATOM      2  C   UNL     1       2.558   8.625  17.875  0.00  0.00    +0.000 A 
ATOM      3  C   UNL     1       3.662   7.903  17.232  0.00  0.00    +0.000 A 
ATOM      4  C   UNL     1       4.060   6.740  17.771  0.00  0.00    +0.000 A 
ATOM      5  N   UNL     1       3.441   6.161  18.856  0.00  0.00    +0.000 NA
ATOM      6  C   UNL     1       2.472   6.812  19.419  0.00  0.00    +0.000 A 
ATOM      7  N   UNL     1       2.030   8.024  18.973  0.00  0.00    +0.000 N 
ATOM      8  H   UNL     1       1.289   8.523  19.444  0.00  0.00    +0.000 HD
ENDROOT
BRANCH   4   9
ATOM      9  C   UNL     1       5.217   6.008  17.188  0.00  0.00    +0.000 A 
ATOM     10  C   UNL     1       5.327   5.752  15.816  0.00  0.00    +0.000 A 
ATOM     11  C   UNL     1       6.449   5.091  15.342  0.00  0.00    +0.000 A 
ATOM     12  N   UNL     1       7.464   4.678  16.127  0.00  0.00    +0.000 NA
ATOM     13  C   UNL     1       7.356   4.948  17.444  0.00  0.00    +0.000 A 
ATOM     14  C   UNL     1       6.273   5.600  18.011  0.00  0.00    +0.000 A 
ENDBRANCH   4   9
BRANCH   6  15
ATOM     15  C   UNL     1       1.760   6.242  20.628  0.00  0.00    +0.000 C 
BRANCH  15  16
ATOM     16  C   UNL     1       1.684   4.735  20.605  0.00  0.00    +0.000 A 
ATOM     17  C   UNL     1       1.008   4.066  19.576  0.00  0.00    +0.000 A 
ATOM     18  C   UNL     1       0.958   2.671  19.551  0.00  0.00    +0.000 A 
ATOM     19  C   UNL     1       1.589   1.930  20.547  0.00  0.00    +0.000 A 
ATOM     20  C   UNL     1       2.270   2.583  21.572  0.00  0.00    +0.000 A 
ATOM     21  C   UNL     1       2.318   3.977  21.602  0.00  0.00    +0.000 A 
ENDBRANCH  15  16
ENDBRANCH   6  15
TORSDOF 3
ENDMDL
MODEL 7
REMARK VINA RESULT:      -7.6      2.992      4.520
REMARK  Name = 
REMARK  3 active torsions:
REMARK  status: ('A' for Active; 'I' for Inactive)
REMARK    1  A    between atoms: C_4  and  C_5
REMARK    2  A    between atoms: C_12  and  C_13
REMARK    3  A    between atoms: C_13  and  C_14
REMARK                            x       y       z     vdW  Elec       q    Type
REMARK                         _______ _______ _______ _____ _____    ______ ____
ROOT
ATOM      1  O   UNL     1       0.922   2.494  18.245  0.00  0.00    +0.000 OA
ATOM      2  C   UNL     1       1.745   3.379  18.442  0.00  0.00    +0.000 A 
ATOM      3  C   UNL     1       3.063   3.358  17.799  0.00  0.00    +0.000 A 
ATOM      4  C   UNL     1       3.910   4.368  18.050  0.00  0.00    +0.000 A 
ATOM      5  N   UNL     1       3.627   5.388  18.931  0.00  0.00    +0.000 NA
ATOM      6  C   UNL     1       2.456   5.399  19.487  0.00  0.00    +0.000 A 
ATOM      7  N   UNL     1       1.510   4.442  19.256  0.00  0.00    +0.000 N 
ATOM      8  H   UNL     1       0.597   4.486  19.683  0.00  0.00    +0.000 HD
ENDROOT
BRANCH   4   9
ATOM      9  C   UNL     1       5.232   4.418  17.368  0.00  0.00    +0.000 A 
ATOM     10  C   UNL     1       5.359   4.348  15.976  0.00  0.00    +0.000 A 
ATOM     11  C   UNL     1       6.622   4.431  15.411  0.00  0.00    +0.000 A 
ATOM     12  N   UNL     1       7.755   4.586  16.124  0.00  0.00    +0.000 NA
ATOM     13  C   UNL     1       7.617   4.672  17.463  0.00  0.00    +0.000 A 
ATOM     14  C   UNL     1       6.399   4.597  18.119  0.00  0.00    +0.000 A 
ENDBRANCH   4   9
BRANCH   6  15
ATOM     15  C   UNL     1       2.071   6.501  20.451  0.00  0.00    +0.000 C 
BRANCH  15  16
ATOM     16  C   UNL     1       1.788   7.812  19.758  0.00  0.00    +0.000 A 
ATOM     17  C   UNL     1       1.184   8.872  20.447  0.00  0.00    +0.000 A 
ATOM     18  C   UNL     1       0.943  10.088  19.805  0.00  0.00    +0.000 A 
ATOM     19  C   UNL     1       1.312  10.262  18.473  0.00  0.00    +0.000 A 
ATOM     20  C   UNL     1       1.921   9.219  17.779  0.00  0.00    +0.000 A 
ATOM     21  C   UNL     1       2.158   8.001  18.417  0.00  0.00    +0.000 A 
ENDBRANCH  15  16
ENDBRANCH   6  15
TORSDOF 3
ENDMDL
MODEL 8
REMARK VINA RESULT:      -7.5      2.791      5.430
REMARK  Name = 
REMARK  3 active torsions:
REMARK  status: ('A' for Active; 'I' for Inactive)
REMARK    1  A    between atoms: C_4  and  C_5
REMARK    2  A    between atoms: C_12  and  C_13
REMARK    3  A    between atoms: C_13  and  C_14
REMARK                            x       y       z     vdW  Elec       q    Type
REMARK                         _______ _______ _______ _____ _____    ______ ____
ROOT
ATOM      1  O   UNL     1       6.028   6.129  15.359  0.00  0.00    +0.000 OA
ATOM      2  C   UNL     1       5.153   5.901  16.184  0.00  0.00    +0.000 A 
ATOM      3  C   UNL     1       4.394   6.986  16.816  0.00  0.00    +0.000 A 
ATOM      4  C   UNL     1       3.438   6.662  17.701  0.00  0.00    +0.000 A 
ATOM      5  N   UNL     1       3.180   5.367  18.091  0.00  0.00    +0.000 NA
ATOM      6  C   UNL     1       3.852   4.418  17.520  0.00  0.00    +0.000 A 
ATOM      7  N   UNL     1       4.809   4.646  16.573  0.00  0.00    +0.000 N 
ATOM      8  H   UNL     1       5.302   3.887  16.125  0.00  0.00    +0.000 HD
ENDROOT
BRANCH   4   9
ATOM      9  C   UNL     1       2.602   7.728  18.317  0.00  0.00    +0.000 A 
ATOM     10  C   UNL     1       2.096   7.624  19.618  0.00  0.00    +0.000 A 
ATOM     11  C   UNL     1       1.350   8.672  20.135  0.00  0.00    +0.000 A 
ATOM     12  N   UNL     1       1.083   9.808  19.461  0.00  0.00    +0.000 NA
ATOM     13  C   UNL     1       1.593   9.904  18.217  0.00  0.00    +0.000 A 
ATOM     14  C   UNL     1       2.347   8.910  17.613  0.00  0.00    +0.000 A 
ENDBRANCH   4   9
BRANCH   6  15
ATOM     15  C   UNL     1       3.606   2.969  17.887  0.00  0.00    +0.000 C 
BRANCH  15  16
ATOM     16  C   UNL     1       2.827   2.816  19.171  0.00  0.00    +0.000 A 
ATOM     17  C   UNL     1       3.489   2.647  20.395  0.00  0.00    +0.000 A 
ATOM     18  C   UNL     1       2.763   2.525  21.581  0.00  0.00    +0.000 A 
ATOM     19  C   UNL     1       1.371   2.579  21.559  0.00  0.00    +0.000 A 
ATOM     20  C   UNL     1       0.702   2.755  20.350  0.00  0.00    +0.000 A 
ATOM     21  C   UNL     1       1.425   2.872  19.162  0.00  0.00    +0.000 A 
ENDBRANCH  15  16
ENDBRANCH   6  15
TORSDOF 3
ENDMDL
MODEL 9
REMARK VINA RESULT:      -7.5      2.950      6.607
REMARK  Name = 
REMARK  3 active torsions:
REMARK  status: ('A' for Active; 'I' for Inactive)
REMARK    1  A    between atoms: C_4  and  C_5
REMARK    2  A    between atoms: C_12  and  C_13
REMARK    3  A    between atoms: C_13  and  C_14
REMARK                            x       y       z     vdW  Elec       q    Type
REMARK                         _______ _______ _______ _____ _____    ______ ____
ROOT
ATOM      1  O   UNL     1       2.145   3.307  22.118  0.00  0.00    +0.000 OA
ATOM      2  C   UNL     1       2.388   3.884  21.066  0.00  0.00    +0.000 A 
ATOM      3  C   UNL     1       1.982   5.276  20.843  0.00  0.00    +0.000 A 
ATOM      4  C   UNL     1       2.296   5.851  19.670  0.00  0.00    +0.000 A 
ATOM      5  N   UNL     1       2.921   5.178  18.645  0.00  0.00    +0.000 NA
ATOM      6  C   UNL     1       3.281   3.950  18.857  0.00  0.00    +0.000 A 
ATOM      7  N   UNL     1       3.050   3.298  20.034  0.00  0.00    +0.000 N 
ATOM      8  H   UNL     1       3.362   2.349  20.184  0.00  0.00    +0.000 HD
ENDROOT
BRANCH   4   9
ATOM      9  C   UNL     1       1.958   7.279  19.428  0.00  0.00    +0.000 A 
ATOM     10  C   UNL     1       1.407   8.097  20.422  0.00  0.00    +0.000 A 
ATOM     11  C   UNL     1       1.147   9.427  20.131  0.00  0.00    +0.000 A 
ATOM     12  N   UNL     1       1.403   9.998  18.938  0.00  0.00    +0.000 NA
ATOM     13  C   UNL     1       1.953   9.206  17.996  0.00  0.00    +0.000 A 
ATOM     14  C   UNL     1       2.246   7.865  18.190  0.00  0.00    +0.000 A 
ENDBRANCH   4   9
BRANCH   6  15
ATOM     15  C   UNL     1       3.991   3.157  17.780  0.00  0.00    +0.000 C 
BRANCH  15  16
ATOM     16  C   UNL     1       5.091   3.941  17.106  0.00  0.00    +0.000 A 
ATOM     17  C   UNL     1       6.199   4.394  17.835  0.00  0.00    +0.000 A 
ATOM     18  C   UNL     1       7.222   5.101  17.201  0.00  0.00    +0.000 A 
ATOM     19  C   UNL     1       7.155   5.355  15.833  0.00  0.00    +0.000 A 
ATOM     20  C   UNL     1       6.063   4.903  15.096  0.00  0.00    +0.000 A 
ATOM     21  C   UNL     1       5.036   4.200  15.728  0.00  0.00    +0.000 A 
ENDBRANCH  15  16
ENDBRANCH   6  15
TORSDOF 3
ENDMDL
