MODEL 1
REMARK VINA RESULT:      -9.5      0.000      0.000
REMARK  Name = 
REMARK  5 active torsions:
REMARK  status: ('A' for Active; 'I' for Inactive)
REMARK    1  A    between atoms: C_8  and  N_9
REMARK    2  A    between atoms: N_12  and  C_13
REMARK    3  A    between atoms: C_13  and  C_14
REMARK    4  A    between atoms: C_14  and  O_15
REMARK    5  A    between atoms: O_15  and  C_16
REMARK                            x       y       z     vdW  Elec       q    Type
REMARK                         _______ _______ _______ _____ _____    ______ ____
ROOT
ATOM      1  N   UNL     1       4.278   3.754  18.362  0.00  0.00    +0.000 N 
ATOM      2  C   UNL     1       2.962   4.383  18.095  0.00  0.00    +0.000 C 
ATOM      3  C   UNL     1       1.829   3.345  18.239  0.00  0.00    +0.000 C 
ATOM      4  N   UNL     1       1.781   2.685  19.567  0.00  0.00    +0.000 NA
ATOM      5  C   UNL     1       3.106   2.054  19.783  0.00  0.00    +0.000 C 
ATOM      6  C   UNL     1       4.311   3.023  19.664  0.00  0.00    +0.000 C 
ENDROOT
BRANCH   1  14
ATOM      7  O   UNL     1       7.529   5.178  13.120  0.00  0.00    +0.000 OA
ATOM      8  C   UNL     1       7.017   5.093  14.231  0.00  0.00    +0.000 A 
ATOM      9  N   UNL     1       7.605   5.662  15.340  0.00  0.00    +0.000 N 
ATOM     10  C   UNL     1       7.090   5.531  16.630  0.00  0.00    +0.000 A 
ATOM     11  C   UNL     1       7.743   6.144  17.693  0.00  0.00    +0.000 A 
ATOM     12  C   UNL     1       7.226   6.009  18.976  0.00  0.00    +0.000 A 
ATOM     13  C   UNL     1       6.082   5.232  19.203  0.00  0.00    +0.000 A 
ATOM     14  C   UNL     1       5.411   4.579  18.155  0.00  0.00    +0.000 A 
ATOM     15  C   UNL     1       5.921   4.788  16.851  0.00  0.00    +0.000 A 
ATOM     16  N   UNL     1       5.229   4.276  15.745  0.00  0.00    +0.000 N 
ATOM     17  C   UNL     1       5.678   4.353  14.451  0.00  0.00    +0.000 A 
ATOM     18  O   UNL     1       5.060   3.859  13.517  0.00  0.00    +0.000 OA
ATOM     19  H   UNL     1       8.463   6.169  15.173  0.00  0.00    +0.000 HD
ATOM     20  H   UNL     1       4.328   3.842  15.906  0.00  0.00    +0.000 HD
ENDBRANCH   1  14
BRANCH   4  21
ATOM     21  C   UNL     1       1.449   3.612  20.676  0.00  0.00    +0.000 C 
BRANCH  21  22
ATOM     22  C   UNL     1       1.049   5.000  20.163  0.00  0.00    +0.000 C 
BRANCH  22  23
ATOM     23  O   UNL     1       1.887   6.035  20.696  0.00  0.00    +0.000 OA
BRANCH  23  24
ATOM     24  C   UNL     1       1.841   7.192  19.956  0.00  0.00    +0.000 A 
ATOM     25  C   UNL     1       2.412   7.350  18.682  0.00  0.00    +0.000 A 
ATOM     26  C   UNL     1       2.330   8.572  17.974  0.00  0.00    +0.000 A 
ATOM     27  C   UNL     1       1.662   9.669  18.512  0.00  0.00    +0.000 A 
ATOM     28  C   UNL     1       1.097   9.497  19.751  0.00  0.00    +0.000 A 
ATOM     29  N   UNL     1       0.388  10.414  20.520  0.00  0.00    +0.000 N 
ATOM     30  C   UNL     1       0.029   9.795  21.723  0.00  0.00    +0.000 A 
ATOM     31  S   UNL     1      -0.807  10.497  22.959  0.00  0.00    +0.000 S 
ATOM     32  N   UNL     1       0.520   8.485  21.682  0.00  0.00    +0.000 N 
ATOM     33  C   UNL     1       1.180   8.293  20.463  0.00  0.00    +0.000 A 
ATOM     34  H   UNL     1       0.169  11.365  20.268  0.00  0.00    +0.000 HD
ATOM     35  H   UNL     1       0.426   7.794  22.411  0.00  0.00    +0.000 HD
ENDBRANCH  23  24
ENDBRANCH  22  23
ENDBRANCH  21  22
ENDBRANCH   4  21
TORSDOF 5
ENDMDL
MODEL 2
REMARK VINA RESULT:      -9.4      4.099      5.825
REMARK  Name = 
REMARK  5 active torsions:
REMARK  status: ('A' for Active; 'I' for Inactive)
REMARK    1  A    between atoms: C_8  and  N_9
REMARK    2  A    between atoms: N_12  and  C_13
REMARK    3  A    between atoms: C_13  and  C_14
REMARK    4  A    between atoms: C_14  and  O_15
REMARK    5  A    between atoms: O_15  and  C_16
REMARK                            x       y       z     vdW  Elec       q    Type
REMARK                         _______ _______ _______ _____ _____    ______ ____
ROOT
ATOM      1  N   UNL     1       2.720   7.228  18.710  0.00  0.00    +0.000 N 
ATOM      2  C   UNL     1       1.863   7.343  19.914  0.00  0.00    +0.000 C 
ATOM      3  C   UNL     1       1.847   8.798  20.428  0.00  0.00    +0.000 C 
ATOM      4  N   UNL     1       1.389   9.788  19.422  0.00  0.00    +0.000 NA
ATOM      5  C   UNL     1       2.283   9.653  18.246  0.00  0.00    +0.000 C 
ATOM      6  C   UNL     1       2.361   8.221  17.654  0.00  0.00    +0.000 C 
ENDROOT
BRANCH   1  14
ATOM      7  O   UNL     1       7.814   4.333  16.315  0.00  0.00    +0.000 OA
ATOM      8  C   UNL     1       6.736   4.669  16.795  0.00  0.00    +0.000 A 
ATOM      9  N   UNL     1       5.631   3.849  16.723  0.00  0.00    +0.000 N 
ATOM     10  C   UNL     1       4.373   4.221  17.197  0.00  0.00    +0.000 A 
ATOM     11  C   UNL     1       3.311   3.330  17.090  0.00  0.00    +0.000 A 
ATOM     12  C   UNL     1       2.058   3.706  17.563  0.00  0.00    +0.000 A 
ATOM     13  C   UNL     1       1.858   4.984  18.105  0.00  0.00    +0.000 A 
ATOM     14  C   UNL     1       2.904   5.917  18.205  0.00  0.00    +0.000 A 
ATOM     15  C   UNL     1       4.181   5.483  17.777  0.00  0.00    +0.000 A 
ATOM     16  N   UNL     1       5.296   6.313  17.968  0.00  0.00    +0.000 N 
ATOM     17  C   UNL     1       6.559   6.022  17.519  0.00  0.00    +0.000 A 
ATOM     18  O   UNL     1       7.497   6.792  17.673  0.00  0.00    +0.000 OA
ATOM     19  H   UNL     1       5.773   2.955  16.274  0.00  0.00    +0.000 HD
ATOM     20  H   UNL     1       5.167   7.170  18.490  0.00  0.00    +0.000 HD
ENDBRANCH   1  14
BRANCH   4  21
ATOM     21  C   UNL     1      -0.031   9.618  19.029  0.00  0.00    +0.000 C 
BRANCH  21  22
ATOM     22  C   UNL     1      -0.954  10.577  19.789  0.00  0.00    +0.000 C 
BRANCH  22  23
ATOM     23  O   UNL     1      -1.285  11.736  19.013  0.00  0.00    +0.000 OA
BRANCH  23  24
ATOM     24  C   UNL     1      -2.631  11.838  18.753  0.00  0.00    +0.000 A 
ATOM     25  C   UNL     1      -3.582  12.348  19.652  0.00  0.00    +0.000 A 
ATOM     26  C   UNL     1      -4.956  12.424  19.321  0.00  0.00    +0.000 A 
ATOM     27  C   UNL     1      -5.418  12.005  18.077  0.00  0.00    +0.000 A 
ATOM     28  C   UNL     1      -4.476  11.522  17.202  0.00  0.00    +0.000 A 
ATOM     29  N   UNL     1      -4.654  11.034  15.912  0.00  0.00    +0.000 N 
ATOM     30  C   UNL     1      -3.407  10.630  15.419  0.00  0.00    +0.000 A 
ATOM     31  S   UNL     1      -3.125   9.968  13.935  0.00  0.00    +0.000 S 
ATOM     32  N   UNL     1      -2.461  10.881  16.419  0.00  0.00    +0.000 N 
ATOM     33  C   UNL     1      -3.115  11.436  17.524  0.00  0.00    +0.000 A 
ATOM     34  H   UNL     1      -5.526  10.971  15.410  0.00  0.00    +0.000 HD
ATOM     35  H   UNL     1      -1.473  10.687  16.360  0.00  0.00    +0.000 HD
ENDBRANCH  23  24
ENDBRANCH  22  23
ENDBRANCH  21  22
ENDBRANCH   4  21
TORSDOF 5
ENDMDL
MODEL 3
REMARK VINA RESULT:      -9.3      3.969      5.526
REMARK  Name = 
REMARK  5 active torsions:
REMARK  status: ('A' for Active; 'I' for Inactive)
REMARK    1  A    between atoms: C_8  and  N_9
REMARK    2  A    between atoms: N_12  and  C_13
REMARK    3  A    between atoms: C_13  and  C_14
REMARK    4  A    between atoms: C_14  and  O_15
REMARK    5  A    between atoms: O_15  and  C_16
REMARK                            x       y       z     vdW  Elec       q    Type
REMARK                         _______ _______ _______ _____ _____    ______ ____
ROOT
ATOM      1  N   UNL     1       2.524   7.384  18.789  0.00  0.00    +0.000 N 
ATOM      2  C   UNL     1       1.830   7.413  20.098  0.00  0.00    +0.000 C 
ATOM      3  C   UNL     1       1.728   8.861  20.624  0.00  0.00    +0.000 C 
ATOM      4  N   UNL     1       1.037   9.791  19.697  0.00  0.00    +0.000 NA
ATOM      5  C   UNL     1       1.775   9.746  18.411  0.00  0.00    +0.000 C 
ATOM      6  C   UNL     1       1.923   8.329  17.800  0.00  0.00    +0.000 C 
ENDROOT
BRANCH   1  14
ATOM      7  O   UNL     1       7.467   5.079  15.576  0.00  0.00    +0.000 OA
ATOM      8  C   UNL     1       6.450   5.291  16.228  0.00  0.00    +0.000 A 
ATOM      9  N   UNL     1       5.452   4.346  16.331  0.00  0.00    +0.000 N 
ATOM     10  C   UNL     1       4.252   4.574  17.006  0.00  0.00    +0.000 A 
ATOM     11  C   UNL     1       3.299   3.563  17.067  0.00  0.00    +0.000 A 
ATOM     12  C   UNL     1       2.105   3.795  17.739  0.00  0.00    +0.000 A 
ATOM     13  C   UNL     1       1.846   5.047  18.316  0.00  0.00    +0.000 A 
ATOM     14  C   UNL     1       2.778   6.097  18.252  0.00  0.00    +0.000 A 
ATOM     15  C   UNL     1       4.010   5.812  17.619  0.00  0.00    +0.000 A 
ATOM     16  N   UNL     1       5.035   6.768  17.632  0.00  0.00    +0.000 N 
ATOM     17  C   UNL     1       6.234   6.623  16.981  0.00  0.00    +0.000 A 
ATOM     18  O   UNL     1       7.088   7.499  16.986  0.00  0.00    +0.000 OA
ATOM     19  H   UNL     1       5.623   3.470  15.859  0.00  0.00    +0.000 HD
ATOM     20  H   UNL     1       4.892   7.611  18.174  0.00  0.00    +0.000 HD
ENDBRANCH   1  14
BRANCH   4  21
ATOM     21  C   UNL     1      -0.396   9.469  19.497  0.00  0.00    +0.000 C 
BRANCH  21  22
ATOM     22  C   UNL     1      -1.297  10.686  19.737  0.00  0.00    +0.000 C 
BRANCH  22  23
ATOM     23  O   UNL     1      -1.330  11.565  18.605  0.00  0.00    +0.000 OA
BRANCH  23  24
ATOM     24  C   UNL     1      -2.204  11.147  17.630  0.00  0.00    +0.000 A 
ATOM     25  C   UNL     1      -1.861  10.309  16.555  0.00  0.00    +0.000 A 
ATOM     26  C   UNL     1      -2.811   9.916  15.583  0.00  0.00    +0.000 A 
ATOM     27  C   UNL     1      -4.136  10.338  15.664  0.00  0.00    +0.000 A 
ATOM     28  C   UNL     1      -4.460  11.145  16.726  0.00  0.00    +0.000 A 
ATOM     29  N   UNL     1      -5.689  11.713  17.046  0.00  0.00    +0.000 N 
ATOM     30  C   UNL     1      -5.530  12.480  18.206  0.00  0.00    +0.000 A 
ATOM     31  S   UNL     1      -6.712  13.356  18.952  0.00  0.00    +0.000 S 
ATOM     32  N   UNL     1      -4.192  12.372  18.599  0.00  0.00    +0.000 N 
ATOM     33  C   UNL     1      -3.524  11.545  17.689  0.00  0.00    +0.000 A 
ATOM     34  H   UNL     1      -6.551  11.603  16.535  0.00  0.00    +0.000 HD
ATOM     35  H   UNL     1      -3.772  12.822  19.398  0.00  0.00    +0.000 HD
ENDBRANCH  23  24
ENDBRANCH  22  23
ENDBRANCH  21  22
ENDBRANCH   4  21
TORSDOF 5
ENDMDL
MODEL 4
REMARK VINA RESULT:      -9.0      3.839      5.537
REMARK  Name = 
REMARK  5 active torsions:
REMARK  status: ('A' for Active; 'I' for Inactive)
REMARK    1  A    between atoms: C_8  and  N_9
REMARK    2  A    between atoms: N_12  and  C_13
REMARK    3  A    between atoms: C_13  and  C_14
REMARK    4  A    between atoms: C_14  and  O_15
REMARK    5  A    between atoms: O_15  and  C_16
REMARK                            x       y       z     vdW  Elec       q    Type
REMARK                         _______ _______ _______ _____ _____    ______ ____
ROOT
ATOM      1  N   UNL     1       2.570   7.430  18.722  0.00  0.00    +0.000 N 
ATOM      2  C   UNL     1       1.821   7.500  19.999  0.00  0.00    +0.000 C 
ATOM      3  C   UNL     1       1.735   8.959  20.495  0.00  0.00    +0.000 C 
ATOM      4  N   UNL     1       1.108   9.889  19.523  0.00  0.00    +0.000 NA
ATOM      5  C   UNL     1       1.899   9.803  18.271  0.00  0.00    +0.000 C 
ATOM      6  C   UNL     1       2.037   8.371  17.692  0.00  0.00    +0.000 C 
ENDROOT
BRANCH   1  14
ATOM      7  O   UNL     1       7.522   4.986  15.627  0.00  0.00    +0.000 OA
ATOM      8  C   UNL     1       6.499   5.226  16.260  0.00  0.00    +0.000 A 
ATOM      9  N   UNL     1       5.488   4.297  16.373  0.00  0.00    +0.000 N 
ATOM     10  C   UNL     1       4.283   4.556  17.027  0.00  0.00    +0.000 A 
ATOM     11  C   UNL     1       3.316   3.560  17.100  0.00  0.00    +0.000 A 
ATOM     12  C   UNL     1       2.117   3.823  17.752  0.00  0.00    +0.000 A 
ATOM     13  C   UNL     1       1.868   5.091  18.296  0.00  0.00    +0.000 A 
ATOM     14  C   UNL     1       2.813   6.128  18.218  0.00  0.00    +0.000 A 
ATOM     15  C   UNL     1       4.050   5.811  17.608  0.00  0.00    +0.000 A 
ATOM     16  N   UNL     1       5.087   6.755  17.611  0.00  0.00    +0.000 N 
ATOM     17  C   UNL     1       6.292   6.578  16.979  0.00  0.00    +0.000 A 
ATOM     18  O   UNL     1       7.157   7.443  16.974  0.00  0.00    +0.000 OA
ATOM     19  H   UNL     1       5.653   3.407  15.923  0.00  0.00    +0.000 HD
ATOM     20  H   UNL     1       4.949   7.612  18.132  0.00  0.00    +0.000 HD
ENDBRANCH   1  14
BRANCH   4  21
ATOM     21  C   UNL     1      -0.323   9.599  19.267  0.00  0.00    +0.000 C 
BRANCH  21  22
ATOM     22  C   UNL     1      -0.877  10.431  18.104  0.00  0.00    +0.000 C 
BRANCH  22  23
ATOM     23  O   UNL     1      -1.487  11.648  18.554  0.00  0.00    +0.000 OA
BRANCH  23  24
ATOM     24  C   UNL     1      -2.840  11.688  18.313  0.00  0.00    +0.000 A 
ATOM     25  C   UNL     1      -3.448  11.317  17.102  0.00  0.00    +0.000 A 
ATOM     26  C   UNL     1      -4.849  11.383  16.919  0.00  0.00    +0.000 A 
ATOM     27  C   UNL     1      -5.686  11.809  17.946  0.00  0.00    +0.000 A 
ATOM     28  C   UNL     1      -5.081  12.156  19.129  0.00  0.00    +0.000 A 
ATOM     29  N   UNL     1      -5.665  12.619  20.304  0.00  0.00    +0.000 N 
ATOM     30  C   UNL     1      -4.647  12.866  21.232  0.00  0.00    +0.000 A 
ATOM     31  S   UNL     1      -4.857  13.444  22.763  0.00  0.00    +0.000 S 
ATOM     32  N   UNL     1      -3.432  12.543  20.617  0.00  0.00    +0.000 N 
ATOM     33  C   UNL     1      -3.694  12.101  19.316  0.00  0.00    +0.000 A 
ATOM     34  H   UNL     1      -6.649  12.762  20.468  0.00  0.00    +0.000 HD
ATOM     35  H   UNL     1      -2.518  12.625  21.035  0.00  0.00    +0.000 HD
ENDBRANCH  23  24
ENDBRANCH  22  23
ENDBRANCH  21  22
ENDBRANCH   4  21
TORSDOF 5
ENDMDL
MODEL 5
REMARK VINA RESULT:      -8.9      3.223      5.391
REMARK  Name = 
REMARK  5 active torsions:
REMARK  status: ('A' for Active; 'I' for Inactive)
REMARK    1  A    between atoms: C_8  and  N_9
REMARK    2  A    between atoms: N_12  and  C_13
REMARK    3  A    between atoms: C_13  and  C_14
REMARK    4  A    between atoms: C_14  and  O_15
REMARK    5  A    between atoms: O_15  and  C_16
REMARK                            x       y       z     vdW  Elec       q    Type
REMARK                         _______ _______ _______ _____ _____    ______ ____
ROOT
ATOM      1  N   UNL     1       2.619   7.415  18.617  0.00  0.00    +0.000 N 
ATOM      2  C   UNL     1       1.711   7.590  19.776  0.00  0.00    +0.000 C 
ATOM      3  C   UNL     1       1.618   9.079  20.170  0.00  0.00    +0.000 C 
ATOM      4  N   UNL     1       1.162   9.965  19.070  0.00  0.00    +0.000 NA
ATOM      5  C   UNL     1       2.108   9.775  17.943  0.00  0.00    +0.000 C 
ATOM      6  C   UNL     1       2.264   8.306  17.472  0.00  0.00    +0.000 C 
ENDROOT
BRANCH   1  14
ATOM      7  O   UNL     1       7.639   4.742  15.838  0.00  0.00    +0.000 OA
ATOM      8  C   UNL     1       6.603   5.030  16.428  0.00  0.00    +0.000 A 
ATOM      9  N   UNL     1       5.590   4.110  16.595  0.00  0.00    +0.000 N 
ATOM     10  C   UNL     1       4.371   4.418  17.201  0.00  0.00    +0.000 A 
ATOM     11  C   UNL     1       3.405   3.428  17.335  0.00  0.00    +0.000 A 
ATOM     12  C   UNL     1       2.192   3.740  17.938  0.00  0.00    +0.000 A 
ATOM     13  C   UNL     1       1.929   5.047  18.370  0.00  0.00    +0.000 A 
ATOM     14  C   UNL     1       2.875   6.077  18.228  0.00  0.00    +0.000 A 
ATOM     15  C   UNL     1       4.124   5.716  17.671  0.00  0.00    +0.000 A 
ATOM     16  N   UNL     1       5.160   6.660  17.618  0.00  0.00    +0.000 N 
ATOM     17  C   UNL     1       6.378   6.436  17.028  0.00  0.00    +0.000 A 
ATOM     18  O   UNL     1       7.242   7.301  16.971  0.00  0.00    +0.000 OA
ATOM     19  H   UNL     1       5.767   3.187  16.224  0.00  0.00    +0.000 HD
ATOM     20  H   UNL     1       5.009   7.556  18.064  0.00  0.00    +0.000 HD
ENDBRANCH   1  14
BRANCH   4  21
ATOM     21  C   UNL     1      -0.233   9.705  18.641  0.00  0.00    +0.000 C 
BRANCH  21  22
ATOM     22  C   UNL     1      -1.080  10.983  18.639  0.00  0.00    +0.000 C 
BRANCH  22  23
ATOM     23  O   UNL     1      -0.570  11.970  19.545  0.00  0.00    +0.000 OA
BRANCH  23  24
ATOM     24  C   UNL     1      -1.197  11.947  20.768  0.00  0.00    +0.000 A 
ATOM     25  C   UNL     1      -0.639  11.417  21.944  0.00  0.00    +0.000 A 
ATOM     26  C   UNL     1      -1.341  11.423  23.172  0.00  0.00    +0.000 A 
ATOM     27  C   UNL     1      -2.617  11.971  23.266  0.00  0.00    +0.000 A 
ATOM     28  C   UNL     1      -3.145  12.498  22.113  0.00  0.00    +0.000 A 
ATOM     29  N   UNL     1      -4.387  13.094  21.917  0.00  0.00    +0.000 N 
ATOM     30  C   UNL     1      -4.493  13.454  20.568  0.00  0.00    +0.000 A 
ATOM     31  S   UNL     1      -5.797  14.176  19.862  0.00  0.00    +0.000 S 
ATOM     32  N   UNL     1      -3.300  13.079  19.940  0.00  0.00    +0.000 N 
ATOM     33  C   UNL     1      -2.461  12.489  20.891  0.00  0.00    +0.000 A 
ATOM     34  H   UNL     1      -5.099  13.240  22.615  0.00  0.00    +0.000 HD
ATOM     35  H   UNL     1      -3.082  13.202  18.963  0.00  0.00    +0.000 HD
ENDBRANCH  23  24
ENDBRANCH  22  23
ENDBRANCH  21  22
ENDBRANCH   4  21
TORSDOF 5
ENDMDL
MODEL 6
REMARK VINA RESULT:      -8.7      3.139      7.365
REMARK  Name = 
REMARK  5 active torsions:
REMARK  status: ('A' for Active; 'I' for Inactive)
REMARK    1  A    between atoms: C_8  and  N_9
REMARK    2  A    between atoms: N_12  and  C_13
REMARK    3  A    between atoms: C_13  and  C_14
REMARK    4  A    between atoms: C_14  and  O_15
REMARK    5  A    between atoms: O_15  and  C_16
REMARK                            x       y       z     vdW  Elec       q    Type
REMARK                         _______ _______ _______ _____ _____    ______ ____
ROOT
ATOM      1  N   UNL     1       1.786   5.429  20.015  0.00  0.00    +0.000 N 
ATOM      2  C   UNL     1       2.913   4.907  20.823  0.00  0.00    +0.000 C 
ATOM      3  C   UNL     1       2.491   3.630  21.579  0.00  0.00    +0.000 C 
ATOM      4  N   UNL     1       1.995   2.544  20.696  0.00  0.00    +0.000 NA
ATOM      5  C   UNL     1       0.858   3.102  19.924  0.00  0.00    +0.000 C 
ATOM      6  C   UNL     1       1.189   4.389  19.124  0.00  0.00    +0.000 C 
ENDROOT
BRANCH   1  14
ATOM      7  O   UNL     1      -0.323  11.275  21.218  0.00  0.00    +0.000 OA
ATOM      8  C   UNL     1       0.248  10.256  20.842  0.00  0.00    +0.000 A 
ATOM      9  N   UNL     1       1.001  10.237  19.689  0.00  0.00    +0.000 N 
ATOM     10  C   UNL     1       1.610   9.084  19.193  0.00  0.00    +0.000 A 
ATOM     11  C   UNL     1       2.359   9.154  18.024  0.00  0.00    +0.000 A 
ATOM     12  C   UNL     1       2.962   8.002  17.534  0.00  0.00    +0.000 A 
ATOM     13  C   UNL     1       2.785   6.774  18.188  0.00  0.00    +0.000 A 
ATOM     14  C   UNL     1       2.015   6.664  19.358  0.00  0.00    +0.000 A 
ATOM     15  C   UNL     1       1.468   7.864  19.870  0.00  0.00    +0.000 A 
ATOM     16  N   UNL     1       0.798   7.851  21.102  0.00  0.00    +0.000 N 
ATOM     17  C   UNL     1       0.165   8.940  21.647  0.00  0.00    +0.000 A 
ATOM     18  O   UNL     1      -0.441   8.876  22.708  0.00  0.00    +0.000 OA
ATOM     19  H   UNL     1       1.071  11.115  19.192  0.00  0.00    +0.000 HD
ATOM     20  H   UNL     1       0.801   6.991  21.636  0.00  0.00    +0.000 HD
ENDBRANCH   1  14
BRANCH   4  21
ATOM     21  C   UNL     1       3.033   1.998  19.790  0.00  0.00    +0.000 C 
BRANCH  21  22
ATOM     22  C   UNL     1       4.206   2.969  19.612  0.00  0.00    +0.000 C 
BRANCH  22  23
ATOM     23  O   UNL     1       4.442   3.283  18.233  0.00  0.00    +0.000 OA
BRANCH  23  24
ATOM     24  C   UNL     1       5.431   4.222  18.061  0.00  0.00    +0.000 A 
ATOM     25  C   UNL     1       5.958   5.025  19.086  0.00  0.00    +0.000 A 
ATOM     26  C   UNL     1       6.977   5.975  18.841  0.00  0.00    +0.000 A 
ATOM     27  C   UNL     1       7.510   6.142  17.566  0.00  0.00    +0.000 A 
ATOM     28  C   UNL     1       6.995   5.342  16.576  0.00  0.00    +0.000 A 
ATOM     29  N   UNL     1       7.330   5.303  15.226  0.00  0.00    +0.000 N 
ATOM     30  C   UNL     1       6.521   4.346  14.601  0.00  0.00    +0.000 A 
ATOM     31  S   UNL     1       6.546   3.961  12.997  0.00  0.00    +0.000 S 
ATOM     32  N   UNL     1       5.691   3.793  15.583  0.00  0.00    +0.000 N 
ATOM     33  C   UNL     1       5.981   4.404  16.808  0.00  0.00    +0.000 A 
ATOM     34  H   UNL     1       8.027   5.865  14.764  0.00  0.00    +0.000 HD
ATOM     35  H   UNL     1       4.992   3.082  15.435  0.00  0.00    +0.000 HD
ENDBRANCH  23  24
ENDBRANCH  22  23
ENDBRANCH  21  22
ENDBRANCH   4  21
TORSDOF 5
ENDMDL
MODEL 7
REMARK VINA RESULT:      -8.7      4.991     10.014
REMARK  Name = 
REMARK  5 active torsions:
REMARK  status: ('A' for Active; 'I' for Inactive)
REMARK    1  A    between atoms: C_8  and  N_9
REMARK    2  A    between atoms: N_12  and  C_13
REMARK    3  A    between atoms: C_13  and  C_14
REMARK    4  A    between atoms: C_14  and  O_15
REMARK    5  A    between atoms: O_15  and  C_16
REMARK                            x       y       z     vdW  Elec       q    Type
REMARK                         _______ _______ _______ _____ _____    ______ ____
ROOT
ATOM      1  N   UNL     1      -1.473  10.840  19.011  0.00  0.00    +0.000 N 
ATOM      2  C   UNL     1      -0.192  11.574  18.870  0.00  0.00    +0.000 C 
ATOM      3  C   UNL     1       0.570  11.594  20.211  0.00  0.00    +0.000 C 
ATOM      4  N   UNL     1       0.853  10.246  20.763  0.00  0.00    +0.000 NA
ATOM      5  C   UNL     1      -0.453   9.556  20.907  0.00  0.00    +0.000 C 
ATOM      6  C   UNL     1      -1.291   9.481  19.605  0.00  0.00    +0.000 C 
ENDROOT
BRANCH   1  14
ATOM      7  O   UNL     1      -7.395  12.919  18.194  0.00  0.00    +0.000 OA
ATOM      8  C   UNL     1      -6.240  12.515  18.108  0.00  0.00    +0.000 A 
ATOM      9  N   UNL     1      -5.772  11.913  16.961  0.00  0.00    +0.000 N 
ATOM     10  C   UNL     1      -4.488  11.380  16.848  0.00  0.00    +0.000 A 
ATOM     11  C   UNL     1      -4.093  10.794  15.650  0.00  0.00    +0.000 A 
ATOM     12  C   UNL     1      -2.813  10.263  15.543  0.00  0.00    +0.000 A 
ATOM     13  C   UNL     1      -1.942  10.283  16.641  0.00  0.00    +0.000 A 
ATOM     14  C   UNL     1      -2.317  10.845  17.873  0.00  0.00    +0.000 A 
ATOM     15  C   UNL     1      -3.601  11.436  17.933  0.00  0.00    +0.000 A 
ATOM     16  N   UNL     1      -3.993  12.130  19.087  0.00  0.00    +0.000 N 
ATOM     17  C   UNL     1      -5.241  12.668  19.277  0.00  0.00    +0.000 A 
ATOM     18  O   UNL     1      -5.554  13.233  20.315  0.00  0.00    +0.000 OA
ATOM     19  H   UNL     1      -6.429  11.849  16.196  0.00  0.00    +0.000 HD
ATOM     20  H   UNL     1      -3.306  12.263  19.818  0.00  0.00    +0.000 HD
ENDBRANCH   1  14
BRANCH   4  21
ATOM     21  C   UNL     1       1.783   9.449  19.929  0.00  0.00    +0.000 C 
BRANCH  21  22
ATOM     22  C   UNL     1       1.762   7.963  20.305  0.00  0.00    +0.000 C 
BRANCH  22  23
ATOM     23  O   UNL     1       2.302   7.135  19.266  0.00  0.00    +0.000 OA
BRANCH  23  24
ATOM     24  C   UNL     1       2.525   5.842  19.676  0.00  0.00    +0.000 A 
ATOM     25  C   UNL     1       1.632   5.083  20.450  0.00  0.00    +0.000 A 
ATOM     26  C   UNL     1       1.924   3.755  20.839  0.00  0.00    +0.000 A 
ATOM     27  C   UNL     1       3.113   3.141  20.455  0.00  0.00    +0.000 A 
ATOM     28  C   UNL     1       3.971   3.889  19.688  0.00  0.00    +0.000 A 
ATOM     29  N   UNL     1       5.216   3.535  19.177  0.00  0.00    +0.000 N 
ATOM     30  C   UNL     1       5.731   4.633  18.477  0.00  0.00    +0.000 A 
ATOM     31  S   UNL     1       7.192   4.691  17.714  0.00  0.00    +0.000 S 
ATOM     32  N   UNL     1       4.786   5.662  18.558  0.00  0.00    +0.000 N 
ATOM     33  C   UNL     1       3.693   5.207  19.304  0.00  0.00    +0.000 A 
ATOM     34  H   UNL     1       5.681   2.648  19.290  0.00  0.00    +0.000 HD
ATOM     35  H   UNL     1       4.878   6.583  18.157  0.00  0.00    +0.000 HD
ENDBRANCH  23  24
ENDBRANCH  22  23
ENDBRANCH  21  22
ENDBRANCH   4  21
TORSDOF 5
ENDMDL
MODEL 8
REMARK VINA RESULT:      -8.7      3.768      5.853
REMARK  Name = 
REMARK  5 active torsions:
REMARK  status: ('A' for Active; 'I' for Inactive)
REMARK    1  A    between atoms: C_8  and  N_9
REMARK    2  A    between atoms: N_12  and  C_13
REMARK    3  A    between atoms: C_13  and  C_14
REMARK    4  A    between atoms: C_14  and  O_15
REMARK    5  A    between atoms: O_15  and  C_16
REMARK                            x       y       z     vdW  Elec       q    Type
REMARK                         _______ _______ _______ _____ _____    ______ ____
ROOT
ATOM      1  N   UNL     1       2.156   7.506  18.408  0.00  0.00    +0.000 N 
ATOM      2  C   UNL     1       1.779   8.652  17.547  0.00  0.00    +0.000 C 
ATOM      3  C   UNL     1       0.462   9.287  18.037  0.00  0.00    +0.000 C 
ATOM      4  N   UNL     1       0.502   9.745  19.448  0.00  0.00    +0.000 NA
ATOM      5  C   UNL     1       0.861   8.567  20.275  0.00  0.00    +0.000 C 
ATOM      6  C   UNL     1       2.179   7.862  19.859  0.00  0.00    +0.000 C 
ENDROOT
BRANCH   1  14
ATOM      7  O   UNL     1       3.348   1.289  18.395  0.00  0.00    +0.000 OA
ATOM      8  C   UNL     1       3.309   2.506  18.249  0.00  0.00    +0.000 A 
ATOM      9  N   UNL     1       4.413   3.215  17.827  0.00  0.00    +0.000 N 
ATOM     10  C   UNL     1       4.429   4.606  17.713  0.00  0.00    +0.000 A 
ATOM     11  C   UNL     1       5.584   5.243  17.274  0.00  0.00    +0.000 A 
ATOM     12  C   UNL     1       5.596   6.628  17.162  0.00  0.00    +0.000 A 
ATOM     13  C   UNL     1       4.469   7.379  17.525  0.00  0.00    +0.000 A 
ATOM     14  C   UNL     1       3.294   6.769  17.995  0.00  0.00    +0.000 A 
ATOM     15  C   UNL     1       3.288   5.355  18.036  0.00  0.00    +0.000 A 
ATOM     16  N   UNL     1       2.109   4.674  18.369  0.00  0.00    +0.000 N 
ATOM     17  C   UNL     1       2.018   3.313  18.515  0.00  0.00    +0.000 A 
ATOM     18  O   UNL     1       0.977   2.761  18.844  0.00  0.00    +0.000 OA
ATOM     19  H   UNL     1       5.239   2.669  17.628  0.00  0.00    +0.000 HD
ATOM     20  H   UNL     1       1.263   5.218  18.488  0.00  0.00    +0.000 HD
ENDBRANCH   1  14
BRANCH   4  21
ATOM     21  C   UNL     1       1.450  10.862  19.680  0.00  0.00    +0.000 C 
BRANCH  21  22
ATOM     22  C   UNL     1       0.726  12.202  19.851  0.00  0.00    +0.000 C 
BRANCH  22  23
ATOM     23  O   UNL     1      -0.073  12.535  18.708  0.00  0.00    +0.000 OA
BRANCH  23  24
ATOM     24  C   UNL     1      -1.422  12.423  18.948  0.00  0.00    +0.000 A 
ATOM     25  C   UNL     1      -2.059  12.834  20.131  0.00  0.00    +0.000 A 
ATOM     26  C   UNL     1      -3.455  12.689  20.315  0.00  0.00    +0.000 A 
ATOM     27  C   UNL     1      -4.256  12.142  19.317  0.00  0.00    +0.000 A 
ATOM     28  C   UNL     1      -3.622  11.756  18.162  0.00  0.00    +0.000 A 
ATOM     29  N   UNL     1      -4.168  11.179  17.020  0.00  0.00    +0.000 N 
ATOM     30  C   UNL     1      -3.131  10.937  16.112  0.00  0.00    +0.000 A 
ATOM     31  S   UNL     1      -3.293  10.246  14.623  0.00  0.00    +0.000 S 
ATOM     32  N   UNL     1      -1.943  11.378  16.706  0.00  0.00    +0.000 N 
ATOM     33  C   UNL     1      -2.241  11.889  17.974  0.00  0.00    +0.000 A 
ATOM     34  H   UNL     1      -5.140  10.961  16.864  0.00  0.00    +0.000 HD
ATOM     35  H   UNL     1      -1.023  11.329  16.296  0.00  0.00    +0.000 HD
ENDBRANCH  23  24
ENDBRANCH  22  23
ENDBRANCH  21  22
ENDBRANCH   4  21
TORSDOF 5
ENDMDL
MODEL 9
REMARK VINA RESULT:      -8.7      1.963      2.685
REMARK  Name = 
REMARK  5 active torsions:
REMARK  status: ('A' for Active; 'I' for Inactive)
REMARK    1  A    between atoms: C_8  and  N_9
REMARK    2  A    between atoms: N_12  and  C_13
REMARK    3  A    between atoms: C_13  and  C_14
REMARK    4  A    between atoms: C_14  and  O_15
REMARK    5  A    between atoms: O_15  and  C_16
REMARK                            x       y       z     vdW  Elec       q    Type
REMARK                         _______ _______ _______ _____ _____    ______ ____
ROOT
ATOM      1  N   UNL     1       4.122   3.042  17.930  0.00  0.00    +0.000 N 
ATOM      2  C   UNL     1       2.653   3.232  17.992  0.00  0.00    +0.000 C 
ATOM      3  C   UNL     1       2.019   2.228  18.976  0.00  0.00    +0.000 C 
ATOM      4  N   UNL     1       2.568   2.304  20.353  0.00  0.00    +0.000 NA
ATOM      5  C   UNL     1       4.031   2.087  20.246  0.00  0.00    +0.000 C 
ATOM      6  C   UNL     1       4.760   3.058  19.280  0.00  0.00    +0.000 C 
ENDROOT
BRANCH   1  14
ATOM      7  O   UNL     1       8.565   7.500  18.603  0.00  0.00    +0.000 OA
ATOM      8  C   UNL     1       7.772   6.638  18.239  0.00  0.00    +0.000 A 
ATOM      9  N   UNL     1       7.406   6.510  16.917  0.00  0.00    +0.000 N 
ATOM     10  C   UNL     1       6.458   5.588  16.472  0.00  0.00    +0.000 A 
ATOM     11  C   UNL     1       6.150   5.521  15.118  0.00  0.00    +0.000 A 
ATOM     12  C   UNL     1       5.204   4.601  14.681  0.00  0.00    +0.000 A 
ATOM     13  C   UNL     1       4.540   3.775  15.599  0.00  0.00    +0.000 A 
ATOM     14  C   UNL     1       4.809   3.834  16.977  0.00  0.00    +0.000 A 
ATOM     15  C   UNL     1       5.823   4.733  17.385  0.00  0.00    +0.000 A 
ATOM     16  N   UNL     1       6.236   4.751  18.725  0.00  0.00    +0.000 N 
ATOM     17  C   UNL     1       7.150   5.637  19.238  0.00  0.00    +0.000 A 
ATOM     18  O   UNL     1       7.455   5.643  20.422  0.00  0.00    +0.000 OA
ATOM     19  H   UNL     1       7.846   7.153  16.272  0.00  0.00    +0.000 HD
ATOM     20  H   UNL     1       5.854   4.053  19.350  0.00  0.00    +0.000 HD
ENDBRANCH   1  14
BRANCH   4  21
ATOM     21  C   UNL     1       2.270   3.585  21.037  0.00  0.00    +0.000 C 
BRANCH  21  22
ATOM     22  C   UNL     1       1.995   4.717  20.040  0.00  0.00    +0.000 C 
BRANCH  22  23
ATOM     23  O   UNL     1       2.952   5.779  20.151  0.00  0.00    +0.000 OA
BRANCH  23  24
ATOM     24  C   UNL     1       2.571   6.913  19.474  0.00  0.00    +0.000 A 
ATOM     25  C   UNL     1       2.892   7.190  18.134  0.00  0.00    +0.000 A 
ATOM     26  C   UNL     1       2.468   8.380  17.497  0.00  0.00    +0.000 A 
ATOM     27  C   UNL     1       1.700   9.322  18.174  0.00  0.00    +0.000 A 
ATOM     28  C   UNL     1       1.382   9.033  19.478  0.00  0.00    +0.000 A 
ATOM     29  N   UNL     1       0.644   9.789  20.383  0.00  0.00    +0.000 N 
ATOM     30  C   UNL     1       0.605   9.100  21.602  0.00  0.00    +0.000 A 
ATOM     31  S   UNL     1      -0.142   9.616  22.979  0.00  0.00    +0.000 S 
ATOM     32  N   UNL     1       1.322   7.910  21.433  0.00  0.00    +0.000 N 
ATOM     33  C   UNL     1       1.803   7.861  20.120  0.00  0.00    +0.000 A 
ATOM     34  H   UNL     1       0.212  10.682  20.207  0.00  0.00    +0.000 HD
ATOM     35  H   UNL     1       1.477   7.208  22.140  0.00  0.00    +0.000 HD
ENDBRANCH  23  24
ENDBRANCH  22  23
ENDBRANCH  21  22
ENDBRANCH   4  21
TORSDOF 5
ENDMDL
