MODEL 1
REMARK VINA RESULT:      -9.3      0.000      0.000
REMARK  Name = 
REMARK  10 active torsions:
REMARK  status: ('A' for Active; 'I' for Inactive)
REMARK    1  A    between atoms: C_1  and  C_2
REMARK    2  A    between atoms: C_10  and  C_11
REMARK    3  A    between atoms: C_12  and  C_13
REMARK    4  A    between atoms: C_13  and  N_14
REMARK    5  A    between atoms: C_15  and  C_17
REMARK    6  A    between atoms: N_21  and  C_22
REMARK    7  A    between atoms: C_22  and  C_23
REMARK    8  A    between atoms: N_33  and  C_34
REMARK    9  A    between atoms: C_34  and  C_35
REMARK   10  A    between atoms: C_34  and  C_36
REMARK                            x       y       z     vdW  Elec       q    Type
REMARK                         _______ _______ _______ _____ _____    ______ ____
ROOT
ATOM      1  C   UNL     1      -0.445  10.281  17.882  0.00  0.00    +0.000 C 
ATOM      2  C   UNL     1       0.711   9.980  18.029  0.00  0.00    +0.000 C 
ENDROOT
BRANCH   1  12
ATOM      3  C   UNL     1      -6.172  14.238  22.410  0.00  0.00    +0.000 C 
ATOM      4  C   UNL     1      -5.826  13.529  21.151  0.00  0.00    +0.000 A 
ATOM      5  N   UNL     1      -6.702  13.367  20.188  0.00  0.00    +0.000 NA
ATOM      6  C   UNL     1      -6.050  12.719  19.185  0.00  0.00    +0.000 A 
ATOM      7  C   UNL     1      -6.558  12.356  17.941  0.00  0.00    +0.000 A 
ATOM      8  N   UNL     1      -5.783  11.728  17.035  0.00  0.00    +0.000 NA
ATOM      9  C   UNL     1      -4.514  11.437  17.334  0.00  0.00    +0.000 A 
ATOM     10  C   UNL     1      -3.796  10.793  16.342  0.00  0.00    +0.000 A 
ATOM     11  C   UNL     1      -2.464  10.412  16.515  0.00  0.00    +0.000 A 
ATOM     12  C   UNL     1      -1.819  10.676  17.718  0.00  0.00    +0.000 A 
ATOM     13  C   UNL     1      -2.517  11.335  18.742  0.00  0.00    +0.000 A 
ATOM     14  C   UNL     1      -3.876  11.734  18.575  0.00  0.00    +0.000 A 
ATOM     15  C   UNL     1      -4.722  12.425  19.522  0.00  0.00    +0.000 A 
ATOM     16  N   UNL     1      -4.597  12.974  20.807  0.00  0.00    +0.000 N 
BRANCH  16  17
ATOM     17  C   UNL     1      -3.363  13.044  21.589  0.00  0.00    +0.000 C 
ATOM     18  C   UNL     1      -2.793  14.464  21.592  0.00  0.00    +0.000 C 
ATOM     19  C   UNL     1      -3.415  12.492  23.018  0.00  0.00    +0.000 C 
ENDBRANCH  16  17
ENDBRANCH   1  12
BRANCH   2  20
ATOM     20  C   UNL     1       2.114   9.599  18.262  0.00  0.00    +0.000 C 
BRANCH  20  21
ATOM     21  N   UNL     1       2.379   8.247  17.834  0.00  0.00    +0.000 N 
ATOM     22  C   UNL     1       2.509   7.211  18.731  0.00  0.00    +0.000 C 
ATOM     23  O   UNL     1       2.357   7.358  19.940  0.00  0.00    +0.000 OA
ATOM     24  H   UNL     1       2.686   8.091  16.875  0.00  0.00    +0.000 HD
BRANCH  22  25
ATOM     25  C   UNL     1       2.816   5.873  18.129  0.00  0.00    +0.000 A 
ATOM     26  C   UNL     1       1.911   4.880  18.265  0.00  0.00    +0.000 A 
ATOM     27  C   UNL     1       2.108   3.599  17.633  0.00  0.00    +0.000 A 
ATOM     28  C   UNL     1       3.211   3.361  16.919  0.00  0.00    +0.000 A 
ATOM     29  N   UNL     1       4.202   4.322  16.797  0.00  0.00    +0.000 N 
ATOM     30  C   UNL     1       4.083   5.584  17.386  0.00  0.00    +0.000 A 
ATOM     31  O   UNL     1       4.962   6.444  17.332  0.00  0.00    +0.000 OA
BRANCH  29  32
ATOM     32  C   UNL     1       5.464   3.963  16.144  0.00  0.00    +0.000 C 
BRANCH  32  33
ATOM     33  C   UNL     1       5.701   4.612  14.767  0.00  0.00    +0.000 C 
ATOM     34  C   UNL     1       7.137   5.085  14.546  0.00  0.00    +0.000 C 
ATOM     35  C   UNL     1       7.465   4.849  13.080  0.00  0.00    +0.000 C 
ATOM     36  C   UNL     1       6.463   3.834  12.555  0.00  0.00    +0.000 C 
ATOM     37  C   UNL     1       5.442   3.589  13.655  0.00  0.00    +0.000 C 
ENDBRANCH  32  33
ENDBRANCH  29  32
ENDBRANCH  22  25
ENDBRANCH  20  21
ENDBRANCH   2  20
TORSDOF 7
ENDMDL
MODEL 2
REMARK VINA RESULT:      -8.5      6.998     10.270
REMARK  Name = 
REMARK  10 active torsions:
REMARK  status: ('A' for Active; 'I' for Inactive)
REMARK    1  A    between atoms: C_1  and  C_2
REMARK    2  A    between atoms: C_10  and  C_11
REMARK    3  A    between atoms: C_12  and  C_13
REMARK    4  A    between atoms: C_13  and  N_14
REMARK    5  A    between atoms: C_15  and  C_17
REMARK    6  A    between atoms: N_21  and  C_22
REMARK    7  A    between atoms: C_22  and  C_23
REMARK    8  A    between atoms: N_33  and  C_34
REMARK    9  A    between atoms: C_34  and  C_35
REMARK   10  A    between atoms: C_34  and  C_36
REMARK                            x       y       z     vdW  Elec       q    Type
REMARK                         _______ _______ _______ _____ _____    ______ ____
ROOT
ATOM      1  C   UNL     1       8.786   9.233  18.710  0.00  0.00    +0.000 C 
ATOM      2  C   UNL     1       8.547   8.063  18.561  0.00  0.00    +0.000 C 
ENDROOT
BRANCH   1  12
ATOM      3  C   UNL     1       7.682  15.075  24.508  0.00  0.00    +0.000 C 
ATOM      4  C   UNL     1       8.181  14.716  23.155  0.00  0.00    +0.000 A 
ATOM      5  N   UNL     1       8.754  15.602  22.375  0.00  0.00    +0.000 NA
ATOM      6  C   UNL     1       9.116  14.936  21.245  0.00  0.00    +0.000 A 
ATOM      7  C   UNL     1       9.787  15.448  20.138  0.00  0.00    +0.000 A 
ATOM      8  N   UNL     1      10.097  14.658  19.091  0.00  0.00    +0.000 NA
ATOM      9  C   UNL     1       9.747  13.370  19.105  0.00  0.00    +0.000 A 
ATOM     10  C   UNL     1      10.107  12.638  17.988  0.00  0.00    +0.000 A 
ATOM     11  C   UNL     1       9.796  11.284  17.852  0.00  0.00    +0.000 A 
ATOM     12  C   UNL     1       9.098  10.629  18.861  0.00  0.00    +0.000 A 
ATOM     13  C   UNL     1       8.725  11.341  20.011  0.00  0.00    +0.000 A 
ATOM     14  C   UNL     1       9.041  12.723  20.163  0.00  0.00    +0.000 A 
ATOM     15  C   UNL     1       8.739  13.586  21.283  0.00  0.00    +0.000 A 
ATOM     16  N   UNL     1       8.140  13.466  22.545  0.00  0.00    +0.000 N 
BRANCH  16  17
ATOM     17  C   UNL     1       7.662  12.222  23.148  0.00  0.00    +0.000 C 
ATOM     18  C   UNL     1       8.476  11.865  24.392  0.00  0.00    +0.000 C 
ATOM     19  C   UNL     1       6.162  12.130  23.452  0.00  0.00    +0.000 C 
ENDBRANCH  16  17
ENDBRANCH   1  12
BRANCH   2  20
ATOM     20  C   UNL     1       8.295   6.620  18.415  0.00  0.00    +0.000 C 
BRANCH  20  21
ATOM     21  N   UNL     1       6.888   6.312  18.495  0.00  0.00    +0.000 N 
ATOM     22  C   UNL     1       6.076   6.318  17.384  0.00  0.00    +0.000 C 
ATOM     23  O   UNL     1       6.502   6.532  16.253  0.00  0.00    +0.000 OA
ATOM     24  H   UNL     1       6.443   6.299  19.412  0.00  0.00    +0.000 HD
BRANCH  22  25
ATOM     25  C   UNL     1       4.632   6.008  17.640  0.00  0.00    +0.000 A 
ATOM     26  C   UNL     1       3.814   7.011  18.025  0.00  0.00    +0.000 A 
ATOM     27  C   UNL     1       2.399   6.794  18.201  0.00  0.00    +0.000 A 
ATOM     28  C   UNL     1       1.873   5.582  18.011  0.00  0.00    +0.000 A 
ATOM     29  N   UNL     1       2.675   4.502  17.676  0.00  0.00    +0.000 N 
ATOM     30  C   UNL     1       4.055   4.635  17.494  0.00  0.00    +0.000 A 
ATOM     31  O   UNL     1       4.800   3.689  17.237  0.00  0.00    +0.000 OA
BRANCH  29  32
ATOM     32  C   UNL     1       2.082   3.162  17.637  0.00  0.00    +0.000 C 
BRANCH  32  33
ATOM     33  C   UNL     1       1.972   2.451  19.000  0.00  0.00    +0.000 C 
ATOM     34  C   UNL     1       3.180   2.668  19.910  0.00  0.00    +0.000 C 
ATOM     35  C   UNL     1       2.656   2.747  21.335  0.00  0.00    +0.000 C 
ATOM     36  C   UNL     1       1.171   3.058  21.251  0.00  0.00    +0.000 C 
ATOM     37  C   UNL     1       0.776   3.003  19.783  0.00  0.00    +0.000 C 
ENDBRANCH  32  33
ENDBRANCH  29  32
ENDBRANCH  22  25
ENDBRANCH  20  21
ENDBRANCH   2  20
TORSDOF 7
ENDMDL
MODEL 3
REMARK VINA RESULT:      -8.5      1.497      3.502
REMARK  Name = 
REMARK  10 active torsions:
REMARK  status: ('A' for Active; 'I' for Inactive)
REMARK    1  A    between atoms: C_1  and  C_2
REMARK    2  A    between atoms: C_10  and  C_11
REMARK    3  A    between atoms: C_12  and  C_13
REMARK    4  A    between atoms: C_13  and  N_14
REMARK    5  A    between atoms: C_15  and  C_17
REMARK    6  A    between atoms: N_21  and  C_22
REMARK    7  A    between atoms: C_22  and  C_23
REMARK    8  A    between atoms: N_33  and  C_34
REMARK    9  A    between atoms: C_34  and  C_35
REMARK   10  A    between atoms: C_34  and  C_36
REMARK                            x       y       z     vdW  Elec       q    Type
REMARK                         _______ _______ _______ _____ _____    ______ ____
ROOT
ATOM      1  C   UNL     1      -0.066   9.872  17.862  0.00  0.00    +0.000 C 
ATOM      2  C   UNL     1       1.089   9.554  17.982  0.00  0.00    +0.000 C 
ENDROOT
BRANCH   1  12
ATOM      3  C   UNL     1      -5.483  14.378  22.256  0.00  0.00    +0.000 C 
ATOM      4  C   UNL     1      -5.212  13.549  21.053  0.00  0.00    +0.000 A 
ATOM      5  N   UNL     1      -6.135  13.326  20.148  0.00  0.00    +0.000 NA
ATOM      6  C   UNL     1      -5.545  12.572  19.180  0.00  0.00    +0.000 A 
ATOM      7  C   UNL     1      -6.118  12.113  17.998  0.00  0.00    +0.000 A 
ATOM      8  N   UNL     1      -5.400  11.385  17.120  0.00  0.00    +0.000 NA
ATOM      9  C   UNL     1      -4.127  11.087  17.389  0.00  0.00    +0.000 A 
ATOM     10  C   UNL     1      -3.470  10.337  16.430  0.00  0.00    +0.000 A 
ATOM     11  C   UNL     1      -2.141   9.936  16.578  0.00  0.00    +0.000 A 
ATOM     12  C   UNL     1      -1.435  10.289  17.722  0.00  0.00    +0.000 A 
ATOM     13  C   UNL     1      -2.070  11.056  18.711  0.00  0.00    +0.000 A 
ATOM     14  C   UNL     1      -3.425  11.476  18.568  0.00  0.00    +0.000 A 
ATOM     15  C   UNL     1      -4.210  12.273  19.485  0.00  0.00    +0.000 A 
ATOM     16  N   UNL     1      -4.013  12.932  20.707  0.00  0.00    +0.000 N 
BRANCH  16  17
ATOM     17  C   UNL     1      -2.744  13.038  21.425  0.00  0.00    +0.000 C 
ATOM     18  C   UNL     1      -2.157  14.445  21.301  0.00  0.00    +0.000 C 
ATOM     19  C   UNL     1      -2.736  12.589  22.891  0.00  0.00    +0.000 C 
ENDBRANCH  16  17
ENDBRANCH   1  12
BRANCH   2  20
ATOM     20  C   UNL     1       2.494   9.163  18.184  0.00  0.00    +0.000 C 
BRANCH  20  21
ATOM     21  N   UNL     1       2.704   7.762  17.910  0.00  0.00    +0.000 N 
ATOM     22  C   UNL     1       3.945   7.260  17.589  0.00  0.00    +0.000 C 
ATOM     23  O   UNL     1       4.956   7.956  17.567  0.00  0.00    +0.000 OA
ATOM     24  H   UNL     1       1.891   7.171  17.742  0.00  0.00    +0.000 HD
BRANCH  22  25
ATOM     25  C   UNL     1       3.989   5.790  17.302  0.00  0.00    +0.000 A 
ATOM     26  C   UNL     1       5.043   5.296  16.616  0.00  0.00    +0.000 A 
ATOM     27  C   UNL     1       5.186   3.880  16.386  0.00  0.00    +0.000 A 
ATOM     28  C   UNL     1       4.258   3.027  16.826  0.00  0.00    +0.000 A 
ATOM     29  N   UNL     1       3.126   3.483  17.482  0.00  0.00    +0.000 N 
ATOM     30  C   UNL     1       2.916   4.842  17.736  0.00  0.00    +0.000 A 
ATOM     31  O   UNL     1       1.902   5.282  18.277  0.00  0.00    +0.000 OA
BRANCH  29  32
ATOM     32  C   UNL     1       2.058   2.531  17.802  0.00  0.00    +0.000 C 
BRANCH  32  33
ATOM     33  C   UNL     1       2.038   2.029  19.259  0.00  0.00    +0.000 C 
ATOM     34  C   UNL     1       3.264   2.442  20.072  0.00  0.00    +0.000 C 
ATOM     35  C   UNL     1       2.788   2.709  21.491  0.00  0.00    +0.000 C 
ATOM     36  C   UNL     1       1.286   2.929  21.427  0.00  0.00    +0.000 C 
ATOM     37  C   UNL     1       0.842   2.633  20.003  0.00  0.00    +0.000 C 
ENDBRANCH  32  33
ENDBRANCH  29  32
ENDBRANCH  22  25
ENDBRANCH  20  21
ENDBRANCH   2  20
TORSDOF 7
ENDMDL
MODEL 4
REMARK VINA RESULT:      -8.4      6.811     10.686
REMARK  Name = 
REMARK  10 active torsions:
REMARK  status: ('A' for Active; 'I' for Inactive)
REMARK    1  A    between atoms: C_1  and  C_2
REMARK    2  A    between atoms: C_10  and  C_11
REMARK    3  A    between atoms: C_12  and  C_13
REMARK    4  A    between atoms: C_13  and  N_14
REMARK    5  A    between atoms: C_15  and  C_17
REMARK    6  A    between atoms: N_21  and  C_22
REMARK    7  A    between atoms: C_22  and  C_23
REMARK    8  A    between atoms: N_33  and  C_34
REMARK    9  A    between atoms: C_34  and  C_35
REMARK   10  A    between atoms: C_34  and  C_36
REMARK                            x       y       z     vdW  Elec       q    Type
REMARK                         _______ _______ _______ _____ _____    ______ ____
ROOT
ATOM      1  C   UNL     1       8.986   9.989  18.265  0.00  0.00    +0.000 C 
ATOM      2  C   UNL     1       8.471   8.984  17.849  0.00  0.00    +0.000 C 
ENDROOT
BRANCH   1  12
ATOM      3  C   UNL     1       8.078  14.990  24.832  0.00  0.00    +0.000 C 
ATOM      4  C   UNL     1       8.756  14.713  23.539  0.00  0.00    +0.000 A 
ATOM      5  N   UNL     1       9.675  15.516  23.057  0.00  0.00    +0.000 NA
ATOM      6  C   UNL     1      10.103  14.951  21.896  0.00  0.00    +0.000 A 
ATOM      7  C   UNL     1      11.097  15.420  21.042  0.00  0.00    +0.000 A 
ATOM      8  N   UNL     1      11.428  14.740  19.927  0.00  0.00    +0.000 NA
ATOM      9  C   UNL     1      10.789  13.606  19.627  0.00  0.00    +0.000 A 
ATOM     10  C   UNL     1      11.197  12.977  18.464  0.00  0.00    +0.000 A 
ATOM     11  C   UNL     1      10.611  11.793  18.013  0.00  0.00    +0.000 A 
ATOM     12  C   UNL     1       9.579  11.210  18.740  0.00  0.00    +0.000 A 
ATOM     13  C   UNL     1       9.147  11.819  19.928  0.00  0.00    +0.000 A 
ATOM     14  C   UNL     1       9.741  13.026  20.401  0.00  0.00    +0.000 A 
ATOM     15  C   UNL     1       9.419  13.764  21.602  0.00  0.00    +0.000 A 
ATOM     16  N   UNL     1       8.552  13.625  22.696  0.00  0.00    +0.000 N 
BRANCH  16  17
ATOM     17  C   UNL     1       7.676  12.482  22.952  0.00  0.00    +0.000 C 
ATOM     18  C   UNL     1       8.190  11.646  24.125  0.00  0.00    +0.000 C 
ATOM     19  C   UNL     1       6.182  12.777  23.126  0.00  0.00    +0.000 C 
ENDBRANCH  16  17
ENDBRANCH   1  12
BRANCH   2  20
ATOM     20  C   UNL     1       7.880   7.752  17.299  0.00  0.00    +0.000 C 
BRANCH  20  21
ATOM     21  N   UNL     1       6.623   7.433  17.931  0.00  0.00    +0.000 N 
ATOM     22  C   UNL     1       5.549   6.954  17.217  0.00  0.00    +0.000 C 
ATOM     23  O   UNL     1       5.605   6.717  16.014  0.00  0.00    +0.000 OA
ATOM     24  H   UNL     1       6.456   7.767  18.880  0.00  0.00    +0.000 HD
BRANCH  22  25
ATOM     25  C   UNL     1       4.306   6.702  18.016  0.00  0.00    +0.000 A 
ATOM     26  C   UNL     1       3.221   7.472  17.785  0.00  0.00    +0.000 A 
ATOM     27  C   UNL     1       1.970   7.222  18.458  0.00  0.00    +0.000 A 
ATOM     28  C   UNL     1       1.870   6.233  19.349  0.00  0.00    +0.000 A 
ATOM     29  N   UNL     1       2.967   5.450  19.670  0.00  0.00    +0.000 N 
ATOM     30  C   UNL     1       4.212   5.637  19.063  0.00  0.00    +0.000 A 
ATOM     31  O   UNL     1       5.215   4.987  19.357  0.00  0.00    +0.000 OA
BRANCH  29  32
ATOM     32  C   UNL     1       2.853   4.485  20.768  0.00  0.00    +0.000 C 
BRANCH  32  33
ATOM     33  C   UNL     1       2.199   3.139  20.399  0.00  0.00    +0.000 C 
ATOM     34  C   UNL     1       0.773   3.271  19.867  0.00  0.00    +0.000 C 
ATOM     35  C   UNL     1       0.597   2.207  18.795  0.00  0.00    +0.000 C 
ATOM     36  C   UNL     1       1.987   1.781  18.353  0.00  0.00    +0.000 C 
ATOM     37  C   UNL     1       2.987   2.467  19.269  0.00  0.00    +0.000 C 
ENDBRANCH  32  33
ENDBRANCH  29  32
ENDBRANCH  22  25
ENDBRANCH  20  21
ENDBRANCH   2  20
TORSDOF 7
ENDMDL
MODEL 5
REMARK VINA RESULT:      -8.3      2.427     12.198
REMARK  Name = 
REMARK  10 active torsions:
REMARK  status: ('A' for Active; 'I' for Inactive)
REMARK    1  A    between atoms: C_1  and  C_2
REMARK    2  A    between atoms: C_10  and  C_11
REMARK    3  A    between atoms: C_12  and  C_13
REMARK    4  A    between atoms: C_13  and  N_14
REMARK    5  A    between atoms: C_15  and  C_17
REMARK    6  A    between atoms: N_21  and  C_22
REMARK    7  A    between atoms: C_22  and  C_23
REMARK    8  A    between atoms: N_33  and  C_34
REMARK    9  A    between atoms: C_34  and  C_35
REMARK   10  A    between atoms: C_34  and  C_36
REMARK                            x       y       z     vdW  Elec       q    Type
REMARK                         _______ _______ _______ _____ _____    ______ ____
ROOT
ATOM      1  C   UNL     1       1.495   7.373  20.756  0.00  0.00    +0.000 C 
ATOM      2  C   UNL     1       1.235   8.460  21.204  0.00  0.00    +0.000 C 
ENDROOT
BRANCH   1  12
ATOM      3  C   UNL     1       6.548   4.238  14.958  0.00  0.00    +0.000 C 
ATOM      4  C   UNL     1       5.515   3.996  15.999  0.00  0.00    +0.000 A 
ATOM      5  N   UNL     1       5.090   2.787  16.279  0.00  0.00    +0.000 NA
ATOM      6  C   UNL     1       4.188   2.925  17.289  0.00  0.00    +0.000 A 
ATOM      7  C   UNL     1       3.491   1.915  17.946  0.00  0.00    +0.000 A 
ATOM      8  N   UNL     1       2.637   2.204  18.948  0.00  0.00    +0.000 NA
ATOM      9  C   UNL     1       2.444   3.474  19.310  0.00  0.00    +0.000 A 
ATOM     10  C   UNL     1       1.550   3.673  20.347  0.00  0.00    +0.000 A 
ATOM     11  C   UNL     1       1.235   4.947  20.826  0.00  0.00    +0.000 A 
ATOM     12  C   UNL     1       1.826   6.067  20.252  0.00  0.00    +0.000 A 
ATOM     13  C   UNL     1       2.743   5.899  19.203  0.00  0.00    +0.000 A 
ATOM     14  C   UNL     1       3.077   4.603  18.710  0.00  0.00    +0.000 A 
ATOM     15  C   UNL     1       4.003   4.266  17.652  0.00  0.00    +0.000 A 
ATOM     16  N   UNL     1       4.889   4.945  16.803  0.00  0.00    +0.000 N 
BRANCH  16  17
ATOM     17  C   UNL     1       5.178   6.378  16.839  0.00  0.00    +0.000 C 
ATOM     18  C   UNL     1       6.550   6.648  17.459  0.00  0.00    +0.000 C 
ATOM     19  C   UNL     1       5.031   7.149  15.523  0.00  0.00    +0.000 C 
ENDBRANCH  16  17
ENDBRANCH   1  12
BRANCH   2  20
ATOM     20  C   UNL     1       0.964   9.808  21.729  0.00  0.00    +0.000 C 
BRANCH  20  21
ATOM     21  N   UNL     1      -0.293  10.328  21.245  0.00  0.00    +0.000 N 
ATOM     22  C   UNL     1      -0.376  11.076  20.092  0.00  0.00    +0.000 C 
ATOM     23  O   UNL     1       0.596  11.304  19.378  0.00  0.00    +0.000 OA
ATOM     24  H   UNL     1      -1.095  10.325  21.873  0.00  0.00    +0.000 HD
BRANCH  22  25
ATOM     25  C   UNL     1      -1.748  11.568  19.743  0.00  0.00    +0.000 A 
ATOM     26  C   UNL     1      -2.252  11.269  18.527  0.00  0.00    +0.000 A 
ATOM     27  C   UNL     1      -3.599  11.638  18.166  0.00  0.00    +0.000 A 
ATOM     28  C   UNL     1      -4.367  12.312  19.025  0.00  0.00    +0.000 A 
ATOM     29  N   UNL     1      -3.880  12.700  20.263  0.00  0.00    +0.000 N 
ATOM     30  C   UNL     1      -2.584  12.382  20.680  0.00  0.00    +0.000 A 
ATOM     31  O   UNL     1      -2.109  12.747  21.755  0.00  0.00    +0.000 OA
BRANCH  29  32
ATOM     32  C   UNL     1      -4.700  13.576  21.106  0.00  0.00    +0.000 C 
BRANCH  32  33
ATOM     33  C   UNL     1      -5.431  12.877  22.268  0.00  0.00    +0.000 C 
ATOM     34  C   UNL     1      -5.749  13.801  23.443  0.00  0.00    +0.000 C 
ATOM     35  C   UNL     1      -7.091  13.362  24.006  0.00  0.00    +0.000 C 
ATOM     36  C   UNL     1      -7.782  12.541  22.929  0.00  0.00    +0.000 C 
ATOM     37  C   UNL     1      -6.791  12.354  21.792  0.00  0.00    +0.000 C 
ENDBRANCH  32  33
ENDBRANCH  29  32
ENDBRANCH  22  25
ENDBRANCH  20  21
ENDBRANCH   2  20
TORSDOF 7
ENDMDL
MODEL 6
REMARK VINA RESULT:      -8.3      1.720      2.247
REMARK  Name = 
REMARK  10 active torsions:
REMARK  status: ('A' for Active; 'I' for Inactive)
REMARK    1  A    between atoms: C_1  and  C_2
REMARK    2  A    between atoms: C_10  and  C_11
REMARK    3  A    between atoms: C_12  and  C_13
REMARK    4  A    between atoms: C_13  and  N_14
REMARK    5  A    between atoms: C_15  and  C_17
REMARK    6  A    between atoms: N_21  and  C_22
REMARK    7  A    between atoms: C_22  and  C_23
REMARK    8  A    between atoms: N_33  and  C_34
REMARK    9  A    between atoms: C_34  and  C_35
REMARK   10  A    between atoms: C_34  and  C_36
REMARK                            x       y       z     vdW  Elec       q    Type
REMARK                         _______ _______ _______ _____ _____    ______ ____
ROOT
ATOM      1  C   UNL     1      -1.182  10.862  18.278  0.00  0.00    +0.000 C 
ATOM      2  C   UNL     1      -0.004  10.653  18.415  0.00  0.00    +0.000 C 
ENDROOT
BRANCH   1  12
ATOM      3  C   UNL     1      -7.146  14.490  22.776  0.00  0.00    +0.000 C 
ATOM      4  C   UNL     1      -6.759  13.778  21.530  0.00  0.00    +0.000 A 
ATOM      5  N   UNL     1      -7.630  13.529  20.581  0.00  0.00    +0.000 NA
ATOM      6  C   UNL     1      -6.940  12.907  19.586  0.00  0.00    +0.000 A 
ATOM      7  C   UNL     1      -7.431  12.477  18.357  0.00  0.00    +0.000 A 
ATOM      8  N   UNL     1      -6.620  11.888  17.456  0.00  0.00    +0.000 NA
ATOM      9  C   UNL     1      -5.330  11.699  17.748  0.00  0.00    +0.000 A 
ATOM     10  C   UNL     1      -4.575  11.087  16.764  0.00  0.00    +0.000 A 
ATOM     11  C   UNL     1      -3.217  10.810  16.931  0.00  0.00    +0.000 A 
ATOM     12  C   UNL     1      -2.582  11.150  18.120  0.00  0.00    +0.000 A 
ATOM     13  C   UNL     1      -3.318  11.780  19.136  0.00  0.00    +0.000 A 
ATOM     14  C   UNL     1      -4.704  12.072  18.975  0.00  0.00    +0.000 A 
ATOM     15  C   UNL     1      -5.591  12.721  19.915  0.00  0.00    +0.000 A 
ATOM     16  N   UNL     1      -5.496  13.309  21.185  0.00  0.00    +0.000 N 
BRANCH  16  17
ATOM     17  C   UNL     1      -4.264  13.489  21.952  0.00  0.00    +0.000 C 
ATOM     18  C   UNL     1      -3.839  14.959  21.974  0.00  0.00    +0.000 C 
ATOM     19  C   UNL     1      -4.237  12.909  23.370  0.00  0.00    +0.000 C 
ENDBRANCH  16  17
ENDBRANCH   1  12
BRANCH   2  20
ATOM     20  C   UNL     1       1.427  10.392  18.638  0.00  0.00    +0.000 C 
BRANCH  20  21
ATOM     21  N   UNL     1       1.723   8.979  18.617  0.00  0.00    +0.000 N 
ATOM     22  C   UNL     1       1.834   8.241  19.773  0.00  0.00    +0.000 C 
ATOM     23  O   UNL     1       1.639   8.718  20.887  0.00  0.00    +0.000 OA
ATOM     24  H   UNL     1       2.065   8.566  17.750  0.00  0.00    +0.000 HD
BRANCH  22  25
ATOM     25  C   UNL     1       2.176   6.794  19.582  0.00  0.00    +0.000 A 
ATOM     26  C   UNL     1       1.732   5.898  20.489  0.00  0.00    +0.000 A 
ATOM     27  C   UNL     1       1.952   4.484  20.313  0.00  0.00    +0.000 A 
ATOM     28  C   UNL     1       2.630   4.034  19.254  0.00  0.00    +0.000 A 
ATOM     29  N   UNL     1       3.163   4.912  18.324  0.00  0.00    +0.000 N 
ATOM     30  C   UNL     1       2.994   6.295  18.432  0.00  0.00    +0.000 A 
ATOM     31  O   UNL     1       3.489   7.103  17.646  0.00  0.00    +0.000 OA
BRANCH  29  32
ATOM     32  C   UNL     1       4.035   4.386  17.269  0.00  0.00    +0.000 C 
BRANCH  32  33
ATOM     33  C   UNL     1       5.543   4.418  17.584  0.00  0.00    +0.000 C 
ATOM     34  C   UNL     1       6.295   5.552  16.888  0.00  0.00    +0.000 C 
ATOM     35  C   UNL     1       7.372   6.029  17.850  0.00  0.00    +0.000 C 
ATOM     36  C   UNL     1       6.979   5.550  19.237  0.00  0.00    +0.000 C 
ATOM     37  C   UNL     1       5.760   4.655  19.083  0.00  0.00    +0.000 C 
ENDBRANCH  32  33
ENDBRANCH  29  32
ENDBRANCH  22  25
ENDBRANCH  20  21
ENDBRANCH   2  20
TORSDOF 7
ENDMDL
MODEL 7
REMARK VINA RESULT:      -8.2      1.571      2.082
REMARK  Name = 
REMARK  10 active torsions:
REMARK  status: ('A' for Active; 'I' for Inactive)
REMARK    1  A    between atoms: C_1  and  C_2
REMARK    2  A    between atoms: C_10  and  C_11
REMARK    3  A    between atoms: C_12  and  C_13
REMARK    4  A    between atoms: C_13  and  N_14
REMARK    5  A    between atoms: C_15  and  C_17
REMARK    6  A    between atoms: N_21  and  C_22
REMARK    7  A    between atoms: C_22  and  C_23
REMARK    8  A    between atoms: N_33  and  C_34
REMARK    9  A    between atoms: C_34  and  C_35
REMARK   10  A    between atoms: C_34  and  C_36
REMARK                            x       y       z     vdW  Elec       q    Type
REMARK                         _______ _______ _______ _____ _____    ______ ____
ROOT
ATOM      1  C   UNL     1      -1.439  10.890  18.921  0.00  0.00    +0.000 C 
ATOM      2  C   UNL     1      -0.307  10.600  19.208  0.00  0.00    +0.000 C 
ENDROOT
BRANCH   1  12
ATOM      3  C   UNL     1      -7.635  14.972  22.651  0.00  0.00    +0.000 C 
ATOM      4  C   UNL     1      -7.151  14.221  21.463  0.00  0.00    +0.000 A 
ATOM      5  N   UNL     1      -7.916  14.021  20.416  0.00  0.00    +0.000 NA
ATOM      6  C   UNL     1      -7.157  13.341  19.514  0.00  0.00    +0.000 A 
ATOM      7  C   UNL     1      -7.524  12.933  18.236  0.00  0.00    +0.000 A 
ATOM      8  N   UNL     1      -6.653  12.278  17.442  0.00  0.00    +0.000 NA
ATOM      9  C   UNL     1      -5.425  12.005  17.889  0.00  0.00    +0.000 A 
ATOM     10  C   UNL     1      -4.601  11.331  17.006  0.00  0.00    +0.000 A 
ATOM     11  C   UNL     1      -3.296  10.963  17.336  0.00  0.00    +0.000 A 
ATOM     12  C   UNL     1      -2.787  11.272  18.593  0.00  0.00    +0.000 A 
ATOM     13  C   UNL     1      -3.594  11.962  19.510  0.00  0.00    +0.000 A 
ATOM     14  C   UNL     1      -4.927  12.348  19.181  0.00  0.00    +0.000 A 
ATOM     15  C   UNL     1      -5.873  13.067  20.005  0.00  0.00    +0.000 A 
ATOM     16  N   UNL     1      -5.891  13.661  21.275  0.00  0.00    +0.000 N 
BRANCH  16  17
ATOM     17  C   UNL     1      -4.751  13.765  22.185  0.00  0.00    +0.000 C 
ATOM     18  C   UNL     1      -4.042  15.112  22.028  0.00  0.00    +0.000 C 
ATOM     19  C   UNL     1      -5.017  13.478  23.667  0.00  0.00    +0.000 C 
ENDBRANCH  16  17
ENDBRANCH   1  12
BRANCH   2  20
ATOM     20  C   UNL     1       1.059  10.226  19.610  0.00  0.00    +0.000 C 
BRANCH  20  21
ATOM     21  N   UNL     1       1.326   8.829  19.363  0.00  0.00    +0.000 N 
ATOM     22  C   UNL     1       1.669   7.963  20.376  0.00  0.00    +0.000 C 
ATOM     23  O   UNL     1       1.718   8.306  21.554  0.00  0.00    +0.000 OA
ATOM     24  H   UNL     1       1.472   8.523  18.402  0.00  0.00    +0.000 HD
BRANCH  22  25
ATOM     25  C   UNL     1       1.944   6.552  19.951  0.00  0.00    +0.000 A 
ATOM     26  C   UNL     1       1.515   5.543  20.738  0.00  0.00    +0.000 A 
ATOM     27  C   UNL     1       1.672   4.166  20.339  0.00  0.00    +0.000 A 
ATOM     28  C   UNL     1       2.275   3.862  19.188  0.00  0.00    +0.000 A 
ATOM     29  N   UNL     1       2.790   4.854  18.370  0.00  0.00    +0.000 N 
ATOM     30  C   UNL     1       2.680   6.210  18.693  0.00  0.00    +0.000 A 
ATOM     31  O   UNL     1       3.164   7.112  18.010  0.00  0.00    +0.000 OA
BRANCH  29  32
ATOM     32  C   UNL     1       3.585   4.469  17.199  0.00  0.00    +0.000 C 
BRANCH  32  33
ATOM     33  C   UNL     1       4.959   5.154  17.081  0.00  0.00    +0.000 C 
ATOM     34  C   UNL     1       5.983   4.668  18.106  0.00  0.00    +0.000 C 
ATOM     35  C   UNL     1       7.338   4.665  17.416  0.00  0.00    +0.000 C 
ATOM     36  C   UNL     1       7.079   4.673  15.919  0.00  0.00    +0.000 C 
ATOM     37  C   UNL     1       5.583   4.844  15.715  0.00  0.00    +0.000 C 
ENDBRANCH  32  33
ENDBRANCH  29  32
ENDBRANCH  22  25
ENDBRANCH  20  21
ENDBRANCH   2  20
TORSDOF 7
ENDMDL
MODEL 8
REMARK VINA RESULT:      -8.2      3.837      5.194
REMARK  Name = 
REMARK  10 active torsions:
REMARK  status: ('A' for Active; 'I' for Inactive)
REMARK    1  A    between atoms: C_1  and  C_2
REMARK    2  A    between atoms: C_10  and  C_11
REMARK    3  A    between atoms: C_12  and  C_13
REMARK    4  A    between atoms: C_13  and  N_14
REMARK    5  A    between atoms: C_15  and  C_17
REMARK    6  A    between atoms: N_21  and  C_22
REMARK    7  A    between atoms: C_22  and  C_23
REMARK    8  A    between atoms: N_33  and  C_34
REMARK    9  A    between atoms: C_34  and  C_35
REMARK   10  A    between atoms: C_34  and  C_36
REMARK                            x       y       z     vdW  Elec       q    Type
REMARK                         _______ _______ _______ _____ _____    ______ ____
ROOT
ATOM      1  C   UNL     1       0.924   8.060  21.473  0.00  0.00    +0.000 C 
ATOM      2  C   UNL     1       1.364   6.990  21.139  0.00  0.00    +0.000 C 
ENDROOT
BRANCH   1  12
ATOM      3  C   UNL     1       1.829  15.948  19.038  0.00  0.00    +0.000 C 
ATOM      4  C   UNL     1       1.188  14.976  19.963  0.00  0.00    +0.000 A 
ATOM      5  N   UNL     1       0.329  15.359  20.877  0.00  0.00    +0.000 NA
ATOM      6  C   UNL     1      -0.082  14.227  21.512  0.00  0.00    +0.000 A 
ATOM      7  C   UNL     1      -1.017  14.124  22.536  0.00  0.00    +0.000 A 
ATOM      8  N   UNL     1      -1.339  12.924  23.059  0.00  0.00    +0.000 NA
ATOM      9  C   UNL     1      -0.747  11.819  22.600  0.00  0.00    +0.000 A 
ATOM     10  C   UNL     1      -1.140  10.634  23.196  0.00  0.00    +0.000 A 
ATOM     11  C   UNL     1      -0.598   9.400  22.832  0.00  0.00    +0.000 A 
ATOM     12  C   UNL     1       0.375   9.337  21.841  0.00  0.00    +0.000 A 
ATOM     13  C   UNL     1       0.792  10.520  21.211  0.00  0.00    +0.000 A 
ATOM     14  C   UNL     1       0.241  11.786  21.570  0.00  0.00    +0.000 A 
ATOM     15  C   UNL     1       0.553  13.082  21.012  0.00  0.00    +0.000 A 
ATOM     16  N   UNL     1       1.370  13.597  19.994  0.00  0.00    +0.000 N 
BRANCH  16  17
ATOM     17  C   UNL     1       2.177  12.806  19.066  0.00  0.00    +0.000 C 
ATOM     18  C   UNL     1       1.291  12.012  18.104  0.00  0.00    +0.000 C 
ATOM     19  C   UNL     1       3.268  13.550  18.288  0.00  0.00    +0.000 C 
ENDBRANCH  16  17
ENDBRANCH   1  12
BRANCH   2  20
ATOM     20  C   UNL     1       1.939   5.708  20.700  0.00  0.00    +0.000 C 
BRANCH  20  21
ATOM     21  N   UNL     1       3.133   5.900  19.912  0.00  0.00    +0.000 N 
ATOM     22  C   UNL     1       3.944   4.848  19.550  0.00  0.00    +0.000 C 
ATOM     23  O   UNL     1       3.680   3.682  19.825  0.00  0.00    +0.000 OA
ATOM     24  H   UNL     1       3.498   6.845  19.802  0.00  0.00    +0.000 HD
BRANCH  22  25
ATOM     25  C   UNL     1       5.162   5.219  18.760  0.00  0.00    +0.000 A 
ATOM     26  C   UNL     1       6.314   5.462  19.422  0.00  0.00    +0.000 A 
ATOM     27  C   UNL     1       7.540   5.736  18.713  0.00  0.00    +0.000 A 
ATOM     28  C   UNL     1       7.552   5.781  17.379  0.00  0.00    +0.000 A 
ATOM     29  N   UNL     1       6.387   5.601  16.649  0.00  0.00    +0.000 N 
ATOM     30  C   UNL     1       5.162   5.337  17.268  0.00  0.00    +0.000 A 
ATOM     31  O   UNL     1       4.103   5.214  16.651  0.00  0.00    +0.000 OA
BRANCH  29  32
ATOM     32  C   UNL     1       6.416   5.820  15.200  0.00  0.00    +0.000 C 
BRANCH  32  33
ATOM     33  C   UNL     1       6.768   4.583  14.353  0.00  0.00    +0.000 C 
ATOM     34  C   UNL     1       5.548   3.835  13.813  0.00  0.00    +0.000 C 
ATOM     35  C   UNL     1       5.918   3.316  12.433  0.00  0.00    +0.000 C 
ATOM     36  C   UNL     1       7.114   4.123  11.955  0.00  0.00    +0.000 C 
ATOM     37  C   UNL     1       7.558   5.008  13.110  0.00  0.00    +0.000 C 
ENDBRANCH  32  33
ENDBRANCH  29  32
ENDBRANCH  22  25
ENDBRANCH  20  21
ENDBRANCH   2  20
TORSDOF 7
ENDMDL
MODEL 9
REMARK VINA RESULT:      -8.1      1.829      3.480
REMARK  Name = 
REMARK  10 active torsions:
REMARK  status: ('A' for Active; 'I' for Inactive)
REMARK    1  A    between atoms: C_1  and  C_2
REMARK    2  A    between atoms: C_10  and  C_11
REMARK    3  A    between atoms: C_12  and  C_13
REMARK    4  A    between atoms: C_13  and  N_14
REMARK    5  A    between atoms: C_15  and  C_17
REMARK    6  A    between atoms: N_21  and  C_22
REMARK    7  A    between atoms: C_22  and  C_23
REMARK    8  A    between atoms: N_33  and  C_34
REMARK    9  A    between atoms: C_34  and  C_35
REMARK   10  A    between atoms: C_34  and  C_36
REMARK                            x       y       z     vdW  Elec       q    Type
REMARK                         _______ _______ _______ _____ _____    ______ ____
ROOT
ATOM      1  C   UNL     1      -0.568   9.916  19.184  0.00  0.00    +0.000 C 
ATOM      2  C   UNL     1       0.433   9.517  19.719  0.00  0.00    +0.000 C 
ENDROOT
BRANCH   1  12
ATOM      3  C   UNL     1      -6.848  14.879  21.395  0.00  0.00    +0.000 C 
ATOM      4  C   UNL     1      -6.232  14.005  20.364  0.00  0.00    +0.000 A 
ATOM      5  N   UNL     1      -6.792  13.822  19.191  0.00  0.00    +0.000 NA
ATOM      6  C   UNL     1      -5.955  13.007  18.492  0.00  0.00    +0.000 A 
ATOM      7  C   UNL     1      -6.107  12.559  17.184  0.00  0.00    +0.000 A 
ATOM      8  N   UNL     1      -5.181  11.764  16.614  0.00  0.00    +0.000 NA
ATOM      9  C   UNL     1      -4.107  11.388  17.313  0.00  0.00    +0.000 A 
ATOM     10  C   UNL     1      -3.211  10.573  16.645  0.00  0.00    +0.000 A 
ATOM     11  C   UNL     1      -2.050  10.087  17.251  0.00  0.00    +0.000 A 
ATOM     12  C   UNL     1      -1.768  10.420  18.571  0.00  0.00    +0.000 A 
ATOM     13  C   UNL     1      -2.653  11.252  19.275  0.00  0.00    +0.000 A 
ATOM     14  C   UNL     1      -3.838  11.758  18.664  0.00  0.00    +0.000 A 
ATOM     15  C   UNL     1      -4.836  12.627  19.247  0.00  0.00    +0.000 A 
ATOM     16  N   UNL     1      -5.035  13.301  20.461  0.00  0.00    +0.000 N 
BRANCH  16  17
ATOM     17  C   UNL     1      -4.094  13.339  21.579  0.00  0.00    +0.000 C 
ATOM     18  C   UNL     1      -3.415  14.706  21.681  0.00  0.00    +0.000 C 
ATOM     19  C   UNL     1      -4.628  12.910  22.951  0.00  0.00    +0.000 C 
ENDBRANCH  16  17
ENDBRANCH   1  12
BRANCH   2  20
ATOM     20  C   UNL     1       1.626   8.992  20.405  0.00  0.00    +0.000 C 
BRANCH  20  21
ATOM     21  N   UNL     1       2.156   7.826  19.740  0.00  0.00    +0.000 N 
ATOM     22  C   UNL     1       2.651   7.881  18.457  0.00  0.00    +0.000 C 
ATOM     23  O   UNL     1       2.724   8.927  17.818  0.00  0.00    +0.000 OA
ATOM     24  H   UNL     1       1.966   6.908  20.141  0.00  0.00    +0.000 HD
BRANCH  22  25
ATOM     25  C   UNL     1       3.135   6.577  17.898  0.00  0.00    +0.000 A 
ATOM     26  C   UNL     1       4.277   6.566  17.178  0.00  0.00    +0.000 A 
ATOM     27  C   UNL     1       4.840   5.331  16.689  0.00  0.00    +0.000 A 
ATOM     28  C   UNL     1       4.220   4.170  16.918  0.00  0.00    +0.000 A 
ATOM     29  N   UNL     1       3.014   4.129  17.598  0.00  0.00    +0.000 N 
ATOM     30  C   UNL     1       2.406   5.285  18.096  0.00  0.00    +0.000 A 
ATOM     31  O   UNL     1       1.315   5.287  18.666  0.00  0.00    +0.000 OA
BRANCH  29  32
ATOM     32  C   UNL     1       2.291   2.856  17.684  0.00  0.00    +0.000 C 
BRANCH  32  33
ATOM     33  C   UNL     1       2.298   2.187  19.072  0.00  0.00    +0.000 C 
ATOM     34  C   UNL     1       3.406   2.692  19.996  0.00  0.00    +0.000 C 
ATOM     35  C   UNL     1       2.837   2.706  21.406  0.00  0.00    +0.000 C 
ATOM     36  C   UNL     1       1.323   2.686  21.280  0.00  0.00    +0.000 C 
ATOM     37  C   UNL     1       0.990   2.495  19.809  0.00  0.00    +0.000 C 
ENDBRANCH  32  33
ENDBRANCH  29  32
ENDBRANCH  22  25
ENDBRANCH  20  21
ENDBRANCH   2  20
TORSDOF 7
ENDMDL
