MODEL 1
REMARK VINA RESULT:      -7.7      0.000      0.000
REMARK  Name = 
REMARK  11 active torsions:
REMARK  status: ('A' for Active; 'I' for Inactive)
REMARK    1  A    between atoms: C_1  and  C_2
REMARK    2  A    between atoms: C_5  and  C_6
REMARK    3  A    between atoms: C_6  and  N_7
REMARK    4  A    between atoms: C_11  and  C_12
REMARK    5  A    between atoms: C_13  and  C_14
REMARK    6  A    between atoms: C_14  and  N_15
REMARK    7  A    between atoms: C_16  and  O_18
REMARK    8  A    between atoms: O_18  and  C_19
REMARK    9  A    between atoms: C_19  and  C_20
REMARK   10  A    between atoms: C_19  and  C_21
REMARK   11  A    between atoms: C_19  and  C_22
REMARK                            x       y       z     vdW  Elec       q    Type
REMARK                         _______ _______ _______ _____ _____    ______ ____
ROOT
ATOM      1  N   UNL     1       3.064   5.495  18.930  0.00  0.00    +0.000 NA
ATOM      2  C   UNL     1       2.148   5.183  17.848  0.00  0.00    +0.000 C 
ATOM      3  C   UNL     1       1.622   3.750  17.892  0.00  0.00    +0.000 C 
ATOM      4  C   UNL     1       1.136   3.346  19.279  0.00  0.00    +0.000 C 
ATOM      5  C   UNL     1       2.239   3.601  20.314  0.00  0.00    +0.000 C 
ATOM      6  C   UNL     1       1.789   3.139  21.705  0.00  0.00    +0.000 C 
ATOM      7  C   UNL     1       2.713   5.077  20.282  0.00  0.00    +0.000 C 
ENDROOT
BRANCH   1   8
ATOM      8  C   UNL     1       4.441   5.845  18.620  0.00  0.00    +0.000 C 
BRANCH   8  13
ATOM      9  C   UNL     1       6.548   4.231  13.542  0.00  0.00    +0.000 C 
ATOM     10  C   UNL     1       5.955   4.639  14.853  0.00  0.00    +0.000 A 
ATOM     11  C   UNL     1       5.738   3.712  15.863  0.00  0.00    +0.000 A 
ATOM     12  N   UNL     1       5.222   4.043  17.069  0.00  0.00    +0.000 NA
ATOM     13  C   UNL     1       4.943   5.360  17.263  0.00  0.00    +0.000 A 
ATOM     14  C   UNL     1       5.140   6.282  16.238  0.00  0.00    +0.000 A 
ATOM     15  N   UNL     1       5.643   5.946  15.024  0.00  0.00    +0.000 NA
ENDBRANCH   8  13
ENDBRANCH   1   8
BRANCH   7  16
ATOM     16  C   UNL     1       1.652   6.050  20.840  0.00  0.00    +0.000 C 
BRANCH  16  17
ATOM     17  N   UNL     1       1.969   7.445  20.603  0.00  0.00    +0.000 N 
ATOM     18  C   UNL     1       1.017   8.375  20.888  0.00  0.00    +0.000 C 
ATOM     19  O   UNL     1      -0.038   8.090  21.448  0.00  0.00    +0.000 OA
ATOM     20  H   UNL     1       2.696   7.679  19.935  0.00  0.00    +0.000 HD
BRANCH  18  21
ATOM     21  O   UNL     1       1.379   9.613  20.477  0.00  0.00    +0.000 OA
BRANCH  21  22
ATOM     22  C   UNL     1       0.837  10.070  19.202  0.00  0.00    +0.000 C 
ATOM     23  C   UNL     1      -0.699  10.112  19.234  0.00  0.00    +0.000 C 
ATOM     24  C   UNL     1       1.351  11.502  18.989  0.00  0.00    +0.000 C 
ATOM     25  C   UNL     1       1.369   9.207  18.048  0.00  0.00    +0.000 C 
ENDBRANCH  21  22
ENDBRANCH  18  21
ENDBRANCH  16  17
ENDBRANCH   7  16
TORSDOF 6
ENDMDL
MODEL 2
REMARK VINA RESULT:      -7.3      2.093      2.889
REMARK  Name = 
REMARK  11 active torsions:
REMARK  status: ('A' for Active; 'I' for Inactive)
REMARK    1  A    between atoms: C_1  and  C_2
REMARK    2  A    between atoms: C_5  and  C_6
REMARK    3  A    between atoms: C_6  and  N_7
REMARK    4  A    between atoms: C_11  and  C_12
REMARK    5  A    between atoms: C_13  and  C_14
REMARK    6  A    between atoms: C_14  and  N_15
REMARK    7  A    between atoms: C_16  and  O_18
REMARK    8  A    between atoms: O_18  and  C_19
REMARK    9  A    between atoms: C_19  and  C_20
REMARK   10  A    between atoms: C_19  and  C_21
REMARK   11  A    between atoms: C_19  and  C_22
REMARK                            x       y       z     vdW  Elec       q    Type
REMARK                         _______ _______ _______ _____ _____    ______ ____
ROOT
ATOM      1  N   UNL     1       3.940   3.952  18.666  0.00  0.00    +0.000 NA
ATOM      2  C   UNL     1       3.437   3.378  17.431  0.00  0.00    +0.000 C 
ATOM      3  C   UNL     1       2.460   2.224  17.651  0.00  0.00    +0.000 C 
ATOM      4  C   UNL     1       1.391   2.552  18.688  0.00  0.00    +0.000 C 
ATOM      5  C   UNL     1       2.052   3.021  19.990  0.00  0.00    +0.000 C 
ATOM      6  C   UNL     1       0.993   3.292  21.064  0.00  0.00    +0.000 C 
ATOM      7  C   UNL     1       2.995   4.227  19.741  0.00  0.00    +0.000 C 
ENDROOT
BRANCH   1   8
ATOM      8  C   UNL     1       5.363   3.878  18.958  0.00  0.00    +0.000 C 
BRANCH   8  13
ATOM      9  C   UNL     1       8.146   8.699  17.603  0.00  0.00    +0.000 C 
ATOM     10  C   UNL     1       7.446   7.417  17.925  0.00  0.00    +0.000 A 
ATOM     11  C   UNL     1       7.993   6.503  18.814  0.00  0.00    +0.000 A 
ATOM     12  N   UNL     1       7.383   5.343  19.147  0.00  0.00    +0.000 NA
ATOM     13  C   UNL     1       6.168   5.117  18.578  0.00  0.00    +0.000 A 
ATOM     14  C   UNL     1       5.635   6.026  17.668  0.00  0.00    +0.000 A 
ATOM     15  N   UNL     1       6.255   7.182  17.323  0.00  0.00    +0.000 NA
ENDBRANCH   8  13
ENDBRANCH   1   8
BRANCH   7  16
ATOM     16  C   UNL     1       2.224   5.520  19.401  0.00  0.00    +0.000 C 
BRANCH  16  17
ATOM     17  N   UNL     1       1.952   6.350  20.558  0.00  0.00    +0.000 N 
ATOM     18  C   UNL     1       1.858   7.695  20.375  0.00  0.00    +0.000 C 
ATOM     19  O   UNL     1       1.869   8.212  19.261  0.00  0.00    +0.000 OA
ATOM     20  H   UNL     1       2.182   5.998  21.482  0.00  0.00    +0.000 HD
BRANCH  18  21
ATOM     21  O   UNL     1       1.759   8.361  21.548  0.00  0.00    +0.000 OA
BRANCH  21  22
ATOM     22  C   UNL     1       0.540   9.132  21.769  0.00  0.00    +0.000 C 
ATOM     23  C   UNL     1       0.524  10.406  20.910  0.00  0.00    +0.000 C 
ATOM     24  C   UNL     1      -0.634   8.242  21.329  0.00  0.00    +0.000 C 
ATOM     25  C   UNL     1       0.358   9.438  23.263  0.00  0.00    +0.000 C 
ENDBRANCH  21  22
ENDBRANCH  18  21
ENDBRANCH  16  17
ENDBRANCH   7  16
TORSDOF 6
ENDMDL
MODEL 3
REMARK VINA RESULT:      -7.2      2.172      2.900
REMARK  Name = 
REMARK  11 active torsions:
REMARK  status: ('A' for Active; 'I' for Inactive)
REMARK    1  A    between atoms: C_1  and  C_2
REMARK    2  A    between atoms: C_5  and  C_6
REMARK    3  A    between atoms: C_6  and  N_7
REMARK    4  A    between atoms: C_11  and  C_12
REMARK    5  A    between atoms: C_13  and  C_14
REMARK    6  A    between atoms: C_14  and  N_15
REMARK    7  A    between atoms: C_16  and  O_18
REMARK    8  A    between atoms: O_18  and  C_19
REMARK    9  A    between atoms: C_19  and  C_20
REMARK   10  A    between atoms: C_19  and  C_21
REMARK   11  A    between atoms: C_19  and  C_22
REMARK                            x       y       z     vdW  Elec       q    Type
REMARK                         _______ _______ _______ _____ _____    ______ ____
ROOT
ATOM      1  N   UNL     1       3.982   3.873  18.851  0.00  0.00    +0.000 NA
ATOM      2  C   UNL     1       3.547   3.199  17.642  0.00  0.00    +0.000 C 
ATOM      3  C   UNL     1       2.696   1.960  17.909  0.00  0.00    +0.000 C 
ATOM      4  C   UNL     1       1.594   2.215  18.933  0.00  0.00    +0.000 C 
ATOM      5  C   UNL     1       2.197   2.804  20.214  0.00  0.00    +0.000 C 
ATOM      6  C   UNL     1       1.111   3.005  21.276  0.00  0.00    +0.000 C 
ATOM      7  C   UNL     1       3.010   4.091  19.915  0.00  0.00    +0.000 C 
ENDROOT
BRANCH   1   8
ATOM      8  C   UNL     1       5.403   3.961  19.146  0.00  0.00    +0.000 C 
BRANCH   8  13
ATOM      9  C   UNL     1       8.177   8.669  17.422  0.00  0.00    +0.000 C 
ATOM     10  C   UNL     1       7.429   7.466  17.903  0.00  0.00    +0.000 A 
ATOM     11  C   UNL     1       6.163   7.167  17.419  0.00  0.00    +0.000 A 
ATOM     12  N   UNL     1       5.462   6.079  17.814  0.00  0.00    +0.000 NA
ATOM     13  C   UNL     1       6.077   5.258  18.708  0.00  0.00    +0.000 A 
ATOM     14  C   UNL     1       7.337   5.577  19.209  0.00  0.00    +0.000 A 
ATOM     15  N   UNL     1       8.032   6.676  18.823  0.00  0.00    +0.000 NA
ENDBRANCH   8  13
ENDBRANCH   1   8
BRANCH   7  16
ATOM     16  C   UNL     1       2.108   5.281  19.523  0.00  0.00    +0.000 C 
BRANCH  16  17
ATOM     17  N   UNL     1       1.886   6.217  20.607  0.00  0.00    +0.000 N 
ATOM     18  C   UNL     1       1.901   7.547  20.319  0.00  0.00    +0.000 C 
ATOM     19  O   UNL     1       1.969   7.972  19.169  0.00  0.00    +0.000 OA
ATOM     20  H   UNL     1       2.074   5.922  21.560  0.00  0.00    +0.000 HD
BRANCH  18  21
ATOM     21  O   UNL     1       1.839   8.309  21.436  0.00  0.00    +0.000 OA
BRANCH  21  22
ATOM     22  C   UNL     1       0.608   9.062  21.652  0.00  0.00    +0.000 C 
ATOM     23  C   UNL     1      -0.630   8.204  21.351  0.00  0.00    +0.000 C 
ATOM     24  C   UNL     1       0.577   9.444  23.140  0.00  0.00    +0.000 C 
ATOM     25  C   UNL     1       0.622  10.365  20.838  0.00  0.00    +0.000 C 
ENDBRANCH  21  22
ENDBRANCH  18  21
ENDBRANCH  16  17
ENDBRANCH   7  16
TORSDOF 6
ENDMDL
MODEL 4
REMARK VINA RESULT:      -7.2      0.967      1.365
REMARK  Name = 
REMARK  11 active torsions:
REMARK  status: ('A' for Active; 'I' for Inactive)
REMARK    1  A    between atoms: C_1  and  C_2
REMARK    2  A    between atoms: C_5  and  C_6
REMARK    3  A    between atoms: C_6  and  N_7
REMARK    4  A    between atoms: C_11  and  C_12
REMARK    5  A    between atoms: C_13  and  C_14
REMARK    6  A    between atoms: C_14  and  N_15
REMARK    7  A    between atoms: C_16  and  O_18
REMARK    8  A    between atoms: O_18  and  C_19
REMARK    9  A    between atoms: C_19  and  C_20
REMARK   10  A    between atoms: C_19  and  C_21
REMARK   11  A    between atoms: C_19  and  C_22
REMARK                            x       y       z     vdW  Elec       q    Type
REMARK                         _______ _______ _______ _____ _____    ______ ____
ROOT
ATOM      1  N   UNL     1       2.949   5.501  18.978  0.00  0.00    +0.000 NA
ATOM      2  C   UNL     1       2.085   5.139  17.870  0.00  0.00    +0.000 C 
ATOM      3  C   UNL     1       1.636   3.680  17.902  0.00  0.00    +0.000 C 
ATOM      4  C   UNL     1       1.130   3.252  19.275  0.00  0.00    +0.000 C 
ATOM      5  C   UNL     1       2.185   3.568  20.342  0.00  0.00    +0.000 C 
ATOM      6  C   UNL     1       1.718   3.085  21.720  0.00  0.00    +0.000 C 
ATOM      7  C   UNL     1       2.579   5.068  20.319  0.00  0.00    +0.000 C 
ENDROOT
BRANCH   1   8
ATOM      8  C   UNL     1       4.314   5.925  18.709  0.00  0.00    +0.000 C 
BRANCH   8  13
ATOM      9  C   UNL     1       6.254   3.960  13.688  0.00  0.00    +0.000 C 
ATOM     10  C   UNL     1       5.791   4.489  15.008  0.00  0.00    +0.000 A 
ATOM     11  C   UNL     1       5.422   5.818  15.159  0.00  0.00    +0.000 A 
ATOM     12  N   UNL     1       4.979   6.332  16.330  0.00  0.00    +0.000 NA
ATOM     13  C   UNL     1       4.885   5.461  17.372  0.00  0.00    +0.000 A 
ATOM     14  C   UNL     1       5.281   4.135  17.221  0.00  0.00    +0.000 A 
ATOM     15  N   UNL     1       5.739   3.625  16.050  0.00  0.00    +0.000 NA
ENDBRANCH   8  13
ENDBRANCH   1   8
BRANCH   7  16
ATOM     16  C   UNL     1       1.451   5.984  20.841  0.00  0.00    +0.000 C 
BRANCH  16  17
ATOM     17  N   UNL     1       1.840   7.376  20.943  0.00  0.00    +0.000 N 
ATOM     18  C   UNL     1       0.890   8.282  21.304  0.00  0.00    +0.000 C 
ATOM     19  O   UNL     1      -0.236   7.950  21.664  0.00  0.00    +0.000 OA
ATOM     20  H   UNL     1       2.654   7.700  20.430  0.00  0.00    +0.000 HD
BRANCH  18  21
ATOM     21  O   UNL     1       1.341   9.554  21.210  0.00  0.00    +0.000 OA
BRANCH  21  22
ATOM     22  C   UNL     1       0.365  10.575  20.843  0.00  0.00    +0.000 C 
ATOM     23  C   UNL     1      -0.579  10.889  22.014  0.00  0.00    +0.000 C 
ATOM     24  C   UNL     1       1.158  11.849  20.511  0.00  0.00    +0.000 C 
ATOM     25  C   UNL     1      -0.400  10.160  19.578  0.00  0.00    +0.000 C 
ENDBRANCH  21  22
ENDBRANCH  18  21
ENDBRANCH  16  17
ENDBRANCH   7  16
TORSDOF 6
ENDMDL
MODEL 5
REMARK VINA RESULT:      -7.2      1.611      2.092
REMARK  Name = 
REMARK  11 active torsions:
REMARK  status: ('A' for Active; 'I' for Inactive)
REMARK    1  A    between atoms: C_1  and  C_2
REMARK    2  A    between atoms: C_5  and  C_6
REMARK    3  A    between atoms: C_6  and  N_7
REMARK    4  A    between atoms: C_11  and  C_12
REMARK    5  A    between atoms: C_13  and  C_14
REMARK    6  A    between atoms: C_14  and  N_15
REMARK    7  A    between atoms: C_16  and  O_18
REMARK    8  A    between atoms: O_18  and  C_19
REMARK    9  A    between atoms: C_19  and  C_20
REMARK   10  A    between atoms: C_19  and  C_21
REMARK   11  A    between atoms: C_19  and  C_22
REMARK                            x       y       z     vdW  Elec       q    Type
REMARK                         _______ _______ _______ _____ _____    ______ ____
ROOT
ATOM      1  N   UNL     1       3.743   4.475  18.818  0.00  0.00    +0.000 NA
ATOM      2  C   UNL     1       3.306   3.633  17.719  0.00  0.00    +0.000 C 
ATOM      3  C   UNL     1       3.019   2.192  18.136  0.00  0.00    +0.000 C 
ATOM      4  C   UNL     1       2.159   2.105  19.392  0.00  0.00    +0.000 C 
ATOM      5  C   UNL     1       2.794   2.929  20.519  0.00  0.00    +0.000 C 
ATOM      6  C   UNL     1       1.975   2.799  21.808  0.00  0.00    +0.000 C 
ATOM      7  C   UNL     1       3.022   4.400  20.082  0.00  0.00    +0.000 C 
ENDROOT
BRANCH   1   8
ATOM      8  C   UNL     1       5.074   5.060  18.781  0.00  0.00    +0.000 C 
BRANCH   8  13
ATOM      9  C   UNL     1       7.543   4.957  13.611  0.00  0.00    +0.000 C 
ATOM     10  C   UNL     1       6.915   5.028  14.967  0.00  0.00    +0.000 A 
ATOM     11  C   UNL     1       5.674   5.621  15.153  0.00  0.00    +0.000 A 
ATOM     12  N   UNL     1       5.063   5.688  16.358  0.00  0.00    +0.000 NA
ATOM     13  C   UNL     1       5.722   5.112  17.400  0.00  0.00    +0.000 A 
ATOM     14  C   UNL     1       6.978   4.541  17.212  0.00  0.00    +0.000 A 
ATOM     15  N   UNL     1       7.596   4.488  16.006  0.00  0.00    +0.000 NA
ENDBRANCH   8  13
ENDBRANCH   1   8
BRANCH   7  16
ATOM     16  C   UNL     1       1.702   5.187  19.945  0.00  0.00    +0.000 C 
BRANCH  16  17
ATOM     17  N   UNL     1       1.551   6.237  20.933  0.00  0.00    +0.000 N 
ATOM     18  C   UNL     1       1.782   7.521  20.545  0.00  0.00    +0.000 C 
ATOM     19  O   UNL     1       1.987   7.829  19.375  0.00  0.00    +0.000 OA
ATOM     20  H   UNL     1       1.631   6.002  21.918  0.00  0.00    +0.000 HD
BRANCH  18  21
ATOM     21  O   UNL     1       1.761   8.378  21.592  0.00  0.00    +0.000 OA
BRANCH  21  22
ATOM     22  C   UNL     1       0.550   9.173  21.768  0.00  0.00    +0.000 C 
ATOM     23  C   UNL     1      -0.701   8.379  21.364  0.00  0.00    +0.000 C 
ATOM     24  C   UNL     1       0.448   9.500  23.266  0.00  0.00    +0.000 C 
ATOM     25  C   UNL     1       0.662  10.503  21.008  0.00  0.00    +0.000 C 
ENDBRANCH  21  22
ENDBRANCH  18  21
ENDBRANCH  16  17
ENDBRANCH   7  16
TORSDOF 6
ENDMDL
MODEL 6
REMARK VINA RESULT:      -7.1      0.839      1.051
REMARK  Name = 
REMARK  11 active torsions:
REMARK  status: ('A' for Active; 'I' for Inactive)
REMARK    1  A    between atoms: C_1  and  C_2
REMARK    2  A    between atoms: C_5  and  C_6
REMARK    3  A    between atoms: C_6  and  N_7
REMARK    4  A    between atoms: C_11  and  C_12
REMARK    5  A    between atoms: C_13  and  C_14
REMARK    6  A    between atoms: C_14  and  N_15
REMARK    7  A    between atoms: C_16  and  O_18
REMARK    8  A    between atoms: O_18  and  C_19
REMARK    9  A    between atoms: C_19  and  C_20
REMARK   10  A    between atoms: C_19  and  C_21
REMARK   11  A    between atoms: C_19  and  C_22
REMARK                            x       y       z     vdW  Elec       q    Type
REMARK                         _______ _______ _______ _____ _____    ______ ____
ROOT
ATOM      1  N   UNL     1       3.010   5.537  19.009  0.00  0.00    +0.000 NA
ATOM      2  C   UNL     1       2.093   5.251  17.921  0.00  0.00    +0.000 C 
ATOM      3  C   UNL     1       1.587   3.810  17.917  0.00  0.00    +0.000 C 
ATOM      4  C   UNL     1       1.113   3.352  19.292  0.00  0.00    +0.000 C 
ATOM      5  C   UNL     1       2.217   3.586  20.330  0.00  0.00    +0.000 C 
ATOM      6  C   UNL     1       1.780   3.070  21.706  0.00  0.00    +0.000 C 
ATOM      7  C   UNL     1       2.671   5.069  20.347  0.00  0.00    +0.000 C 
ENDROOT
BRANCH   1   8
ATOM      8  C   UNL     1       4.380   5.917  18.705  0.00  0.00    +0.000 C 
BRANCH   8  13
ATOM      9  C   UNL     1       6.544   4.352  13.635  0.00  0.00    +0.000 C 
ATOM     10  C   UNL     1       5.936   4.746  14.943  0.00  0.00    +0.000 A 
ATOM     11  C   UNL     1       5.734   3.814  15.951  0.00  0.00    +0.000 A 
ATOM     12  N   UNL     1       5.206   4.133  17.155  0.00  0.00    +0.000 NA
ATOM     13  C   UNL     1       4.899   5.444  17.350  0.00  0.00    +0.000 A 
ATOM     14  C   UNL     1       5.080   6.371  16.326  0.00  0.00    +0.000 A 
ATOM     15  N   UNL     1       5.596   6.046  15.114  0.00  0.00    +0.000 NA
ENDBRANCH   8  13
ENDBRANCH   1   8
BRANCH   7  16
ATOM     16  C   UNL     1       1.600   6.008  20.942  0.00  0.00    +0.000 C 
BRANCH  16  17
ATOM     17  N   UNL     1       1.915   7.414  20.786  0.00  0.00    +0.000 N 
ATOM     18  C   UNL     1       0.911   8.318  20.954  0.00  0.00    +0.000 C 
ATOM     19  O   UNL     1      -0.205   7.998  21.352  0.00  0.00    +0.000 OA
ATOM     20  H   UNL     1       2.724   7.680  20.234  0.00  0.00    +0.000 HD
BRANCH  18  21
ATOM     21  O   UNL     1       1.300   9.573  20.628  0.00  0.00    +0.000 OA
BRANCH  21  22
ATOM     22  C   UNL     1       0.340  10.644  20.870  0.00  0.00    +0.000 C 
ATOM     23  C   UNL     1      -0.217  10.581  22.301  0.00  0.00    +0.000 C 
ATOM     24  C   UNL     1       1.102  11.969  20.711  0.00  0.00    +0.000 C 
ATOM     25  C   UNL     1      -0.775  10.619  19.814  0.00  0.00    +0.000 C 
ENDBRANCH  21  22
ENDBRANCH  18  21
ENDBRANCH  16  17
ENDBRANCH   7  16
TORSDOF 6
ENDMDL
MODEL 7
REMARK VINA RESULT:      -7.0      1.854      2.643
REMARK  Name = 
REMARK  11 active torsions:
REMARK  status: ('A' for Active; 'I' for Inactive)
REMARK    1  A    between atoms: C_1  and  C_2
REMARK    2  A    between atoms: C_5  and  C_6
REMARK    3  A    between atoms: C_6  and  N_7
REMARK    4  A    between atoms: C_11  and  C_12
REMARK    5  A    between atoms: C_13  and  C_14
REMARK    6  A    between atoms: C_14  and  N_15
REMARK    7  A    between atoms: C_16  and  O_18
REMARK    8  A    between atoms: O_18  and  C_19
REMARK    9  A    between atoms: C_19  and  C_20
REMARK   10  A    between atoms: C_19  and  C_21
REMARK   11  A    between atoms: C_19  and  C_22
REMARK                            x       y       z     vdW  Elec       q    Type
REMARK                         _______ _______ _______ _____ _____    ______ ____
ROOT
ATOM      1  N   UNL     1       3.485   3.941  18.020  0.00  0.00    +0.000 NA
ATOM      2  C   UNL     1       2.395   3.240  17.365  0.00  0.00    +0.000 C 
ATOM      3  C   UNL     1       1.595   2.344  18.308  0.00  0.00    +0.000 C 
ATOM      4  C   UNL     1       1.216   3.050  19.606  0.00  0.00    +0.000 C 
ATOM      5  C   UNL     1       2.470   3.634  20.269  0.00  0.00    +0.000 C 
ATOM      6  C   UNL     1       2.114   4.291  21.607  0.00  0.00    +0.000 C 
ATOM      7  C   UNL     1       3.229   4.582  19.303  0.00  0.00    +0.000 C 
ENDROOT
BRANCH   1   8
ATOM      8  C   UNL     1       4.854   3.671  17.610  0.00  0.00    +0.000 C 
BRANCH   8  13
ATOM      9  C   UNL     1       8.147   8.355  17.835  0.00  0.00    +0.000 C 
ATOM     10  C   UNL     1       7.322   7.110  17.752  0.00  0.00    +0.000 A 
ATOM     11  C   UNL     1       7.510   6.062  18.642  0.00  0.00    +0.000 A 
ATOM     12  N   UNL     1       6.771   4.929  18.613  0.00  0.00    +0.000 NA
ATOM     13  C   UNL     1       5.796   4.870  17.666  0.00  0.00    +0.000 A 
ATOM     14  C   UNL     1       5.629   5.914  16.759  0.00  0.00    +0.000 A 
ATOM     15  N   UNL     1       6.380   7.043  16.781  0.00  0.00    +0.000 NA
ENDBRANCH   8  13
ENDBRANCH   1   8
BRANCH   7  16
ATOM     16  C   UNL     1       2.471   5.902  19.053  0.00  0.00    +0.000 C 
BRANCH  16  17
ATOM     17  N   UNL     1       2.140   6.616  20.270  0.00  0.00    +0.000 N 
ATOM     18  C   UNL     1       1.854   7.944  20.177  0.00  0.00    +0.000 C 
ATOM     19  O   UNL     1       1.744   8.521  19.099  0.00  0.00    +0.000 OA
ATOM     20  H   UNL     1       2.457   6.246  21.161  0.00  0.00    +0.000 HD
BRANCH  18  21
ATOM     21  O   UNL     1       1.717   8.519  21.395  0.00  0.00    +0.000 OA
BRANCH  21  22
ATOM     22  C   UNL     1       0.441   9.167  21.678  0.00  0.00    +0.000 C 
ATOM     23  C   UNL     1      -0.739   8.232  21.370  0.00  0.00    +0.000 C 
ATOM     24  C   UNL     1       0.425   9.478  23.183  0.00  0.00    +0.000 C 
ATOM     25  C   UNL     1       0.334  10.502  20.926  0.00  0.00    +0.000 C 
ENDBRANCH  21  22
ENDBRANCH  18  21
ENDBRANCH  16  17
ENDBRANCH   7  16
TORSDOF 6
ENDMDL
MODEL 8
REMARK VINA RESULT:      -6.8      2.039      2.734
REMARK  Name = 
REMARK  11 active torsions:
REMARK  status: ('A' for Active; 'I' for Inactive)
REMARK    1  A    between atoms: C_1  and  C_2
REMARK    2  A    between atoms: C_5  and  C_6
REMARK    3  A    between atoms: C_6  and  N_7
REMARK    4  A    between atoms: C_11  and  C_12
REMARK    5  A    between atoms: C_13  and  C_14
REMARK    6  A    between atoms: C_14  and  N_15
REMARK    7  A    between atoms: C_16  and  O_18
REMARK    8  A    between atoms: O_18  and  C_19
REMARK    9  A    between atoms: C_19  and  C_20
REMARK   10  A    between atoms: C_19  and  C_21
REMARK   11  A    between atoms: C_19  and  C_22
REMARK                            x       y       z     vdW  Elec       q    Type
REMARK                         _______ _______ _______ _____ _____    ______ ____
ROOT
ATOM      1  N   UNL     1       3.941   4.270  17.951  0.00  0.00    +0.000 NA
ATOM      2  C   UNL     1       3.169   3.422  17.062  0.00  0.00    +0.000 C 
ATOM      3  C   UNL     1       2.092   2.611  17.779  0.00  0.00    +0.000 C 
ATOM      4  C   UNL     1       1.262   3.458  18.738  0.00  0.00    +0.000 C 
ATOM      5  C   UNL     1       2.185   4.203  19.710  0.00  0.00    +0.000 C 
ATOM      6  C   UNL     1       1.363   5.008  20.722  0.00  0.00    +0.000 C 
ATOM      7  C   UNL     1       3.232   5.059  18.950  0.00  0.00    +0.000 C 
ENDROOT
BRANCH   1   8
ATOM      8  C   UNL     1       5.368   4.035  18.099  0.00  0.00    +0.000 C 
BRANCH   8  13
ATOM      9  C   UNL     1       8.402   8.886  17.785  0.00  0.00    +0.000 C 
ATOM     10  C   UNL     1       7.644   7.598  17.842  0.00  0.00    +0.000 A 
ATOM     11  C   UNL     1       7.928   6.640  18.806  0.00  0.00    +0.000 A 
ATOM     12  N   UNL     1       7.254   5.471  18.904  0.00  0.00    +0.000 NA
ATOM     13  C   UNL     1       6.243   5.282  18.012  0.00  0.00    +0.000 A 
ATOM     14  C   UNL     1       5.979   6.236  17.032  0.00  0.00    +0.000 A 
ATOM     15  N   UNL     1       6.666   7.400  16.926  0.00  0.00    +0.000 NA
ENDBRANCH   8  13
ENDBRANCH   1   8
BRANCH   7  16
ATOM     16  C   UNL     1       2.601   6.284  18.256  0.00  0.00    +0.000 C 
BRANCH  16  17
ATOM     17  N   UNL     1       2.417   7.417  19.141  0.00  0.00    +0.000 N 
ATOM     18  C   UNL     1       1.784   8.518  18.650  0.00  0.00    +0.000 C 
ATOM     19  O   UNL     1       1.258   8.537  17.541  0.00  0.00    +0.000 OA
ATOM     20  H   UNL     1       3.035   7.524  19.939  0.00  0.00    +0.000 HD
BRANCH  18  21
ATOM     21  O   UNL     1       1.817   9.552  19.522  0.00  0.00    +0.000 OA
BRANCH  21  22
ATOM     22  C   UNL     1       0.577   9.864  20.223  0.00  0.00    +0.000 C 
ATOM     23  C   UNL     1       0.176   8.729  21.178  0.00  0.00    +0.000 C 
ATOM     24  C   UNL     1       0.845  11.123  21.063  0.00  0.00    +0.000 C 
ATOM     25  C   UNL     1      -0.539  10.201  19.223  0.00  0.00    +0.000 C 
ENDBRANCH  21  22
ENDBRANCH  18  21
ENDBRANCH  16  17
ENDBRANCH   7  16
TORSDOF 6
ENDMDL
MODEL 9
REMARK VINA RESULT:      -6.7      1.446      1.982
REMARK  Name = 
REMARK  11 active torsions:
REMARK  status: ('A' for Active; 'I' for Inactive)
REMARK    1  A    between atoms: C_1  and  C_2
REMARK    2  A    between atoms: C_5  and  C_6
REMARK    3  A    between atoms: C_6  and  N_7
REMARK    4  A    between atoms: C_11  and  C_12
REMARK    5  A    between atoms: C_13  and  C_14
REMARK    6  A    between atoms: C_14  and  N_15
REMARK    7  A    between atoms: C_16  and  O_18
REMARK    8  A    between atoms: O_18  and  C_19
REMARK    9  A    between atoms: C_19  and  C_20
REMARK   10  A    between atoms: C_19  and  C_21
REMARK   11  A    between atoms: C_19  and  C_22
REMARK                            x       y       z     vdW  Elec       q    Type
REMARK                         _______ _______ _______ _____ _____    ______ ____
ROOT
ATOM      1  N   UNL     1       3.727   4.401  17.937  0.00  0.00    +0.000 NA
ATOM      2  C   UNL     1       2.808   3.482  17.292  0.00  0.00    +0.000 C 
ATOM      3  C   UNL     1       1.838   2.811  18.262  0.00  0.00    +0.000 C 
ATOM      4  C   UNL     1       1.186   3.804  19.219  0.00  0.00    +0.000 C 
ATOM      5  C   UNL     1       2.265   4.624  19.936  0.00  0.00    +0.000 C 
ATOM      6  C   UNL     1       1.627   5.582  20.949  0.00  0.00    +0.000 C 
ATOM      7  C   UNL     1       3.199   5.336  18.923  0.00  0.00    +0.000 C 
ENDROOT
BRANCH   1   8
ATOM      8  C   UNL     1       5.155   4.128  17.897  0.00  0.00    +0.000 C 
BRANCH   8  13
ATOM      9  C   UNL     1       7.976   5.233  13.034  0.00  0.00    +0.000 C 
ATOM     10  C   UNL     1       7.203   4.969  14.287  0.00  0.00    +0.000 A 
ATOM     11  C   UNL     1       6.269   3.945  14.353  0.00  0.00    +0.000 A 
ATOM     12  N   UNL     1       5.564   3.662  15.472  0.00  0.00    +0.000 NA
ATOM     13  C   UNL     1       5.835   4.427  16.564  0.00  0.00    +0.000 A 
ATOM     14  C   UNL     1       6.755   5.469  16.485  0.00  0.00    +0.000 A 
ATOM     15  N   UNL     1       7.450   5.762  15.358  0.00  0.00    +0.000 NA
ENDBRANCH   8  13
ENDBRANCH   1   8
BRANCH   7  16
ATOM     16  C   UNL     1       2.495   6.491  18.181  0.00  0.00    +0.000 C 
BRANCH  16  17
ATOM     17  N   UNL     1       2.196   7.626  19.031  0.00  0.00    +0.000 N 
ATOM     18  C   UNL     1       1.938   8.823  18.437  0.00  0.00    +0.000 C 
ATOM     19  O   UNL     1       1.826   8.945  17.220  0.00  0.00    +0.000 OA
ATOM     20  H   UNL     1       2.516   7.618  19.995  0.00  0.00    +0.000 HD
BRANCH  18  21
ATOM     21  O   UNL     1       1.830   9.825  19.340  0.00  0.00    +0.000 OA
BRANCH  21  22
ATOM     22  C   UNL     1       0.486  10.156  19.801  0.00  0.00    +0.000 C 
ATOM     23  C   UNL     1       0.035   9.210  20.925  0.00  0.00    +0.000 C 
ATOM     24  C   UNL     1       0.550  11.582  20.370  0.00  0.00    +0.000 C 
ATOM     25  C   UNL     1      -0.501  10.168  18.624  0.00  0.00    +0.000 C 
ENDBRANCH  21  22
ENDBRANCH  18  21
ENDBRANCH  16  17
ENDBRANCH   7  16
TORSDOF 6
ENDMDL
