MODEL 1
REMARK VINA RESULT:      -7.6      0.000      0.000
REMARK  Name = 
REMARK  1 active torsions:
REMARK  status: ('A' for Active; 'I' for Inactive)
REMARK    1  A    between atoms: C_7  and  C_8
REMARK                            x       y       z     vdW  Elec       q    Type
REMARK                         _______ _______ _______ _____ _____    ______ ____
ROOT
ATOM      1  N   UNL     1       7.938   5.513  19.814  0.00  0.00    +0.000 N 
ATOM      2  C   UNL     1       7.192   5.146  18.714  0.00  0.00    +0.000 A 
ATOM      3  N   UNL     1       7.717   5.326  17.516  0.00  0.00    +0.000 NA
ATOM      4  C   UNL     1       6.939   4.975  16.505  0.00  0.00    +0.000 A 
ATOM      5  N   UNL     1       7.443   5.140  15.231  0.00  0.00    +0.000 N 
ATOM      6  N   UNL     1       5.704   4.514  16.615  0.00  0.00    +0.000 NA
ATOM      7  C   UNL     1       5.272   4.369  17.867  0.00  0.00    +0.000 A 
ATOM      8  N   UNL     1       6.001   4.628  18.947  0.00  0.00    +0.000 NA
ATOM      9  H   UNL     1       8.924   5.519  19.599  0.00  0.00    +0.000 HD
ATOM     10  H   UNL     1       7.637   5.007  20.635  0.00  0.00    +0.000 HD
ATOM     11  H   UNL     1       8.167   5.846  15.237  0.00  0.00    +0.000 HD
ATOM     12  H   UNL     1       6.686   5.267  14.572  0.00  0.00    +0.000 HD
ENDROOT
BRANCH   7  13
ATOM     13  C   UNL     1       3.909   3.846  18.062  0.00  0.00    +0.000 A 
ATOM     14  C   UNL     1       3.707   2.447  18.124  0.00  0.00    +0.000 A 
ATOM     15  C   UNL     1       2.442   1.893  18.334  0.00  0.00    +0.000 A 
ATOM     16  C   UNL     1       1.340   2.726  18.483  0.00  0.00    +0.000 A 
ATOM     17  C   UNL     1       1.501   4.105  18.411  0.00  0.00    +0.000 A 
ATOM     18  C   UNL     1       2.768   4.665  18.197  0.00  0.00    +0.000 A 
ATOM     19 CL   UNL     1       2.803   6.394  18.059  0.00  0.00    +0.000 Cl
ENDBRANCH   7  13
TORSDOF 1
ENDMDL
MODEL 2
REMARK VINA RESULT:      -7.5      0.093      2.062
REMARK  Name = 
REMARK  1 active torsions:
REMARK  status: ('A' for Active; 'I' for Inactive)
REMARK    1  A    between atoms: C_7  and  C_8
REMARK                            x       y       z     vdW  Elec       q    Type
REMARK                         _______ _______ _______ _____ _____    ______ ____
ROOT
ATOM      1  N   UNL     1       7.514   4.894  15.267  0.00  0.00    +0.000 N 
ATOM      2  C   UNL     1       6.973   4.856  16.534  0.00  0.00    +0.000 A 
ATOM      3  N   UNL     1       7.729   5.240  17.547  0.00  0.00    +0.000 NA
ATOM      4  C   UNL     1       7.154   5.157  18.736  0.00  0.00    +0.000 A 
ATOM      5  N   UNL     1       7.901   5.550  19.828  0.00  0.00    +0.000 N 
ATOM      6  N   UNL     1       5.938   4.694  18.968  0.00  0.00    +0.000 NA
ATOM      7  C   UNL     1       5.261   4.335  17.878  0.00  0.00    +0.000 A 
ATOM      8  N   UNL     1       5.724   4.445  16.637  0.00  0.00    +0.000 NA
ATOM      9  H   UNL     1       8.275   5.555  15.216  0.00  0.00    +0.000 HD
ATOM     10  H   UNL     1       6.787   4.955  14.569  0.00  0.00    +0.000 HD
ATOM     11  H   UNL     1       8.887   5.485  19.611  0.00  0.00    +0.000 HD
ATOM     12  H   UNL     1       7.582   5.070  20.658  0.00  0.00    +0.000 HD
ENDROOT
BRANCH   7  13
ATOM     13  C   UNL     1       3.892   3.823  18.062  0.00  0.00    +0.000 A 
ATOM     14  C   UNL     1       3.682   2.427  18.156  0.00  0.00    +0.000 A 
ATOM     15  C   UNL     1       2.410   1.885  18.358  0.00  0.00    +0.000 A 
ATOM     16  C   UNL     1       1.309   2.727  18.465  0.00  0.00    +0.000 A 
ATOM     17  C   UNL     1       1.479   4.103  18.361  0.00  0.00    +0.000 A 
ATOM     18  C   UNL     1       2.753   4.651  18.156  0.00  0.00    +0.000 A 
ATOM     19 CL   UNL     1       2.800   6.376  17.974  0.00  0.00    +0.000 Cl
ENDBRANCH   7  13
TORSDOF 1
ENDMDL
MODEL 3
REMARK VINA RESULT:      -7.5      1.460      2.744
REMARK  Name = 
REMARK  1 active torsions:
REMARK  status: ('A' for Active; 'I' for Inactive)
REMARK    1  A    between atoms: C_7  and  C_8
REMARK                            x       y       z     vdW  Elec       q    Type
REMARK                         _______ _______ _______ _____ _____    ______ ____
ROOT
ATOM      1  N   UNL     1       7.453   4.728  15.430  0.00  0.00    +0.000 N 
ATOM      2  C   UNL     1       6.945   4.761  16.712  0.00  0.00    +0.000 A 
ATOM      3  N   UNL     1       7.740   5.162  17.687  0.00  0.00    +0.000 NA
ATOM      4  C   UNL     1       7.195   5.148  18.893  0.00  0.00    +0.000 A 
ATOM      5  N   UNL     1       7.984   5.561  19.948  0.00  0.00    +0.000 N 
ATOM      6  N   UNL     1       5.972   4.734  19.176  0.00  0.00    +0.000 NA
ATOM      7  C   UNL     1       5.254   4.352  18.120  0.00  0.00    +0.000 A 
ATOM      8  N   UNL     1       5.686   4.395  16.864  0.00  0.00    +0.000 NA
ATOM      9  H   UNL     1       8.232   5.361  15.331  0.00  0.00    +0.000 HD
ATOM     10  H   UNL     1       6.709   4.784  14.749  0.00  0.00    +0.000 HD
ATOM     11  H   UNL     1       8.961   5.455  19.709  0.00  0.00    +0.000 HD
ATOM     12  H   UNL     1       7.672   5.126  20.806  0.00  0.00    +0.000 HD
ENDROOT
BRANCH   7  13
ATOM     13  C   UNL     1       3.876   3.894  18.361  0.00  0.00    +0.000 A 
ATOM     14  C   UNL     1       2.806   4.540  17.699  0.00  0.00    +0.000 A 
ATOM     15  C   UNL     1       1.480   4.132  17.868  0.00  0.00    +0.000 A 
ATOM     16  C   UNL     1       1.187   3.067  18.711  0.00  0.00    +0.000 A 
ATOM     17  C   UNL     1       2.214   2.420  19.390  0.00  0.00    +0.000 A 
ATOM     18  C   UNL     1       3.545   2.828  19.226  0.00  0.00    +0.000 A 
ATOM     19 CL   UNL     1       4.709   1.976  20.190  0.00  0.00    +0.000 Cl
ENDBRANCH   7  13
TORSDOF 1
ENDMDL
MODEL 4
REMARK VINA RESULT:      -7.4      1.460      1.811
REMARK  Name = 
REMARK  1 active torsions:
REMARK  status: ('A' for Active; 'I' for Inactive)
REMARK    1  A    between atoms: C_7  and  C_8
REMARK                            x       y       z     vdW  Elec       q    Type
REMARK                         _______ _______ _______ _____ _____    ______ ____
ROOT
ATOM      1  N   UNL     1       7.995   5.520  19.880  0.00  0.00    +0.000 N 
ATOM      2  C   UNL     1       7.218   5.079  18.830  0.00  0.00    +0.000 A 
ATOM      3  N   UNL     1       7.738   5.108  17.615  0.00  0.00    +0.000 NA
ATOM      4  C   UNL     1       6.931   4.692  16.652  0.00  0.00    +0.000 A 
ATOM      5  N   UNL     1       7.428   4.699  15.365  0.00  0.00    +0.000 N 
ATOM      6  N   UNL     1       5.678   4.305  16.817  0.00  0.00    +0.000 NA
ATOM      7  C   UNL     1       5.254   4.313  18.081  0.00  0.00    +0.000 A 
ATOM      8  N   UNL     1       6.008   4.646  19.123  0.00  0.00    +0.000 NA
ATOM      9  H   UNL     1       8.977   5.457  19.659  0.00  0.00    +0.000 HD
ATOM     10  H   UNL     1       7.679   5.118  20.751  0.00  0.00    +0.000 HD
ATOM     11  H   UNL     1       8.185   5.365  15.292  0.00  0.00    +0.000 HD
ATOM     12  H   UNL     1       6.670   4.793  14.701  0.00  0.00    +0.000 HD
ENDROOT
BRANCH   7  13
ATOM     13  C   UNL     1       3.870   3.879  18.339  0.00  0.00    +0.000 A 
ATOM     14  C   UNL     1       2.806   4.527  17.669  0.00  0.00    +0.000 A 
ATOM     15  C   UNL     1       1.475   4.141  17.854  0.00  0.00    +0.000 A 
ATOM     16  C   UNL     1       1.172   3.098  18.720  0.00  0.00    +0.000 A 
ATOM     17  C   UNL     1       2.194   2.451  19.407  0.00  0.00    +0.000 A 
ATOM     18  C   UNL     1       3.529   2.837  19.227  0.00  0.00    +0.000 A 
ATOM     19 CL   UNL     1       4.686   1.988  20.203  0.00  0.00    +0.000 Cl
ENDBRANCH   7  13
TORSDOF 1
ENDMDL
MODEL 5
REMARK VINA RESULT:      -7.3      2.010      2.887
REMARK  Name = 
REMARK  1 active torsions:
REMARK  status: ('A' for Active; 'I' for Inactive)
REMARK    1  A    between atoms: C_7  and  C_8
REMARK                            x       y       z     vdW  Elec       q    Type
REMARK                         _______ _______ _______ _____ _____    ______ ____
ROOT
ATOM      1  N   UNL     1       5.165   6.727  15.434  0.00  0.00    +0.000 N 
ATOM      2  C   UNL     1       5.371   5.914  16.528  0.00  0.00    +0.000 A 
ATOM      3  N   UNL     1       6.604   5.514  16.784  0.00  0.00    +0.000 NA
ATOM      4  C   UNL     1       6.727   4.718  17.834  0.00  0.00    +0.000 A 
ATOM      5  N   UNL     1       7.996   4.275  18.147  0.00  0.00    +0.000 N 
ATOM      6  N   UNL     1       5.730   4.284  18.586  0.00  0.00    +0.000 NA
ATOM      7  C   UNL     1       4.529   4.749  18.243  0.00  0.00    +0.000 A 
ATOM      8  N   UNL     1       4.311   5.604  17.250  0.00  0.00    +0.000 NA
ATOM      9  H   UNL     1       6.008   7.222  15.184  0.00  0.00    +0.000 HD
ATOM     10  H   UNL     1       4.316   7.263  15.543  0.00  0.00    +0.000 HD
ATOM     11  H   UNL     1       8.584   4.308  17.324  0.00  0.00    +0.000 HD
ATOM     12  H   UNL     1       7.944   3.392  18.637  0.00  0.00    +0.000 HD
ENDROOT
BRANCH   7  13
ATOM     13  C   UNL     1       3.374   4.316  19.048  0.00  0.00    +0.000 A 
ATOM     14  C   UNL     1       2.775   5.231  19.946  0.00  0.00    +0.000 A 
ATOM     15  C   UNL     1       1.661   4.886  20.717  0.00  0.00    +0.000 A 
ATOM     16  C   UNL     1       1.118   3.612  20.614  0.00  0.00    +0.000 A 
ATOM     17  C   UNL     1       1.693   2.683  19.752  0.00  0.00    +0.000 A 
ATOM     18  C   UNL     1       2.812   3.024  18.980  0.00  0.00    +0.000 A 
ATOM     19 CL   UNL     1       3.462   1.742  18.007  0.00  0.00    +0.000 Cl
ENDBRANCH   7  13
TORSDOF 1
ENDMDL
MODEL 6
REMARK VINA RESULT:      -7.3      1.989      2.376
REMARK  Name = 
REMARK  1 active torsions:
REMARK  status: ('A' for Active; 'I' for Inactive)
REMARK    1  A    between atoms: C_7  and  C_8
REMARK                            x       y       z     vdW  Elec       q    Type
REMARK                         _______ _______ _______ _____ _____    ______ ____
ROOT
ATOM      1  N   UNL     1       7.985   4.320  18.219  0.00  0.00    +0.000 N 
ATOM      2  C   UNL     1       6.723   4.717  17.833  0.00  0.00    +0.000 A 
ATOM      3  N   UNL     1       6.612   5.500  16.775  0.00  0.00    +0.000 NA
ATOM      4  C   UNL     1       5.375   5.861  16.474  0.00  0.00    +0.000 A 
ATOM      5  N   UNL     1       5.204   6.677  15.374  0.00  0.00    +0.000 N 
ATOM      6  N   UNL     1       4.294   5.536  17.162  0.00  0.00    +0.000 NA
ATOM      7  C   UNL     1       4.517   4.743  18.210  0.00  0.00    +0.000 A 
ATOM      8  N   UNL     1       5.711   4.270  18.552  0.00  0.00    +0.000 NA
ATOM      9  H   UNL     1       8.632   4.358  17.445  0.00  0.00    +0.000 HD
ATOM     10  H   UNL     1       7.942   3.466  18.758  0.00  0.00    +0.000 HD
ATOM     11  H   UNL     1       6.060   7.183  15.185  0.00  0.00    +0.000 HD
ATOM     12  H   UNL     1       4.361   7.225  15.476  0.00  0.00    +0.000 HD
ENDROOT
BRANCH   7  13
ATOM     13  C   UNL     1       3.354   4.329  19.012  0.00  0.00    +0.000 A 
ATOM     14  C   UNL     1       2.775   5.249  19.917  0.00  0.00    +0.000 A 
ATOM     15  C   UNL     1       1.654   4.922  20.685  0.00  0.00    +0.000 A 
ATOM     16  C   UNL     1       1.084   3.659  20.574  0.00  0.00    +0.000 A 
ATOM     17  C   UNL     1       1.639   2.725  19.705  0.00  0.00    +0.000 A 
ATOM     18  C   UNL     1       2.765   3.048  18.935  0.00  0.00    +0.000 A 
ATOM     19 CL   UNL     1       3.388   1.761  17.953  0.00  0.00    +0.000 Cl
ENDBRANCH   7  13
TORSDOF 1
ENDMDL
MODEL 7
REMARK VINA RESULT:      -7.3      1.466      1.576
REMARK  Name = 
REMARK  1 active torsions:
REMARK  status: ('A' for Active; 'I' for Inactive)
REMARK    1  A    between atoms: C_7  and  C_8
REMARK                            x       y       z     vdW  Elec       q    Type
REMARK                         _______ _______ _______ _____ _____    ______ ____
ROOT
ATOM      1  N   UNL     1       8.358   5.247  20.566  0.00  0.00    +0.000 N 
ATOM      2  C   UNL     1       7.586   5.648  19.496  0.00  0.00    +0.000 A 
ATOM      3  N   UNL     1       8.037   6.631  18.737  0.00  0.00    +0.000 NA
ATOM      4  C   UNL     1       7.237   6.980  17.742  0.00  0.00    +0.000 A 
ATOM      5  N   UNL     1       7.663   8.001  16.917  0.00  0.00    +0.000 N 
ATOM      6  N   UNL     1       6.047   6.458  17.497  0.00  0.00    +0.000 NA
ATOM      7  C   UNL     1       5.690   5.473  18.321  0.00  0.00    +0.000 A 
ATOM      8  N   UNL     1       6.451   5.005  19.304  0.00  0.00    +0.000 NA
ATOM      9  H   UNL     1       9.328   5.484  20.424  0.00  0.00    +0.000 HD
ATOM     10  H   UNL     1       8.136   4.297  20.830  0.00  0.00    +0.000 HD
ATOM     11  H   UNL     1       8.332   8.581  17.405  0.00  0.00    +0.000 HD
ATOM     12  H   UNL     1       6.867   8.468  16.504  0.00  0.00    +0.000 HD
ENDROOT
BRANCH   7  13
ATOM     13  C   UNL     1       4.382   4.836  18.096  0.00  0.00    +0.000 A 
ATOM     14  C   UNL     1       4.323   3.444  17.848  0.00  0.00    +0.000 A 
ATOM     15  C   UNL     1       3.109   2.780  17.654  0.00  0.00    +0.000 A 
ATOM     16  C   UNL     1       1.917   3.493  17.696  0.00  0.00    +0.000 A 
ATOM     17  C   UNL     1       1.941   4.865  17.921  0.00  0.00    +0.000 A 
ATOM     18  C   UNL     1       3.156   5.536  18.113  0.00  0.00    +0.000 A 
ATOM     19 CL   UNL     1       3.034   7.255  18.311  0.00  0.00    +0.000 Cl
ENDBRANCH   7  13
TORSDOF 1
ENDMDL
MODEL 8
REMARK VINA RESULT:      -7.2      1.855      2.926
REMARK  Name = 
REMARK  1 active torsions:
REMARK  status: ('A' for Active; 'I' for Inactive)
REMARK    1  A    between atoms: C_7  and  C_8
REMARK                            x       y       z     vdW  Elec       q    Type
REMARK                         _______ _______ _______ _____ _____    ______ ____
ROOT
ATOM      1  N   UNL     1       6.045   6.621  15.963  0.00  0.00    +0.000 N 
ATOM      2  C   UNL     1       5.968   6.098  17.236  0.00  0.00    +0.000 A 
ATOM      3  N   UNL     1       7.066   6.078  17.970  0.00  0.00    +0.000 NA
ATOM      4  C   UNL     1       6.927   5.542  19.171  0.00  0.00    +0.000 A 
ATOM      5  N   UNL     1       8.045   5.500  19.979  0.00  0.00    +0.000 N 
ATOM      6  N   UNL     1       5.814   5.011  19.648  0.00  0.00    +0.000 NA
ATOM      7  C   UNL     1       4.765   5.084  18.828  0.00  0.00    +0.000 A 
ATOM      8  N   UNL     1       4.787   5.664  17.632  0.00  0.00    +0.000 NA
ATOM      9  H   UNL     1       6.821   7.262  15.879  0.00  0.00    +0.000 HD
ATOM     10  H   UNL     1       5.137   6.935  15.650  0.00  0.00    +0.000 HD
ATOM     11  H   UNL     1       8.881   5.534  19.410  0.00  0.00    +0.000 HD
ATOM     12  H   UNL     1       7.970   4.736  20.637  0.00  0.00    +0.000 HD
ENDROOT
BRANCH   7  13
ATOM     13  C   UNL     1       3.488   4.524  19.302  0.00  0.00    +0.000 A 
ATOM     14  C   UNL     1       2.742   5.228  20.276  0.00  0.00    +0.000 A 
ATOM     15  C   UNL     1       1.512   4.760  20.743  0.00  0.00    +0.000 A 
ATOM     16  C   UNL     1       0.995   3.567  20.252  0.00  0.00    +0.000 A 
ATOM     17  C   UNL     1       1.711   2.842  19.306  0.00  0.00    +0.000 A 
ATOM     18  C   UNL     1       2.947   3.307  18.836  0.00  0.00    +0.000 A 
ATOM     19 CL   UNL     1       3.757   2.261  17.712  0.00  0.00    +0.000 Cl
ENDBRANCH   7  13
TORSDOF 1
ENDMDL
MODEL 9
REMARK VINA RESULT:      -7.2      1.952      2.852
REMARK  Name = 
REMARK  1 active torsions:
REMARK  status: ('A' for Active; 'I' for Inactive)
REMARK    1  A    between atoms: C_7  and  C_8
REMARK                            x       y       z     vdW  Elec       q    Type
REMARK                         _______ _______ _______ _____ _____    ______ ____
ROOT
ATOM      1  N   UNL     1       7.622   7.927  16.919  0.00  0.00    +0.000 N 
ATOM      2  C   UNL     1       7.215   6.984  17.840  0.00  0.00    +0.000 A 
ATOM      3  N   UNL     1       8.088   6.577  18.744  0.00  0.00    +0.000 NA
ATOM      4  C   UNL     1       7.638   5.657  19.581  0.00  0.00    +0.000 A 
ATOM      5  N   UNL     1       8.511   5.200  20.547  0.00  0.00    +0.000 N 
ATOM      6  N   UNL     1       6.434   5.112  19.544  0.00  0.00    +0.000 NA
ATOM      7  C   UNL     1       5.632   5.594  18.595  0.00  0.00    +0.000 A 
ATOM      8  N   UNL     1       5.967   6.566  17.753  0.00  0.00    +0.000 NA
ATOM      9  H   UNL     1       8.401   8.465  17.270  0.00  0.00    +0.000 HD
ATOM     10  H   UNL     1       6.829   8.429  16.548  0.00  0.00    +0.000 HD
ATOM     11  H   UNL     1       9.466   5.349  20.246  0.00  0.00    +0.000 HD
ATOM     12  H   UNL     1       8.261   4.260  20.825  0.00  0.00    +0.000 HD
ENDROOT
BRANCH   7  13
ATOM     13  C   UNL     1       4.270   5.042  18.507  0.00  0.00    +0.000 A 
ATOM     14  C   UNL     1       3.334   5.344  19.523  0.00  0.00    +0.000 A 
ATOM     15  C   UNL     1       2.019   4.870  19.480  0.00  0.00    +0.000 A 
ATOM     16  C   UNL     1       1.607   4.075  18.418  0.00  0.00    +0.000 A 
ATOM     17  C   UNL     1       2.507   3.746  17.411  0.00  0.00    +0.000 A 
ATOM     18  C   UNL     1       3.827   4.216  17.452  0.00  0.00    +0.000 A 
ATOM     19 CL   UNL     1       4.854   3.665  16.166  0.00  0.00    +0.000 Cl
ENDBRANCH   7  13
TORSDOF 1
ENDMDL
