MODEL 1
REMARK VINA RESULT:      -7.4      0.000      0.000
REMARK  Name = 
REMARK  10 active torsions:
REMARK  status: ('A' for Active; 'I' for Inactive)
REMARK    1  A    between atoms: C_1  and  O_2
REMARK    2  A    between atoms: O_2  and  C_3
REMARK    3  A    between atoms: C_5  and  C_6
REMARK    4  A    between atoms: C_6  and  C_9
REMARK    5  A    between atoms: N_7  and  N_8
REMARK    6  A    between atoms: N_16  and  C_17
REMARK    7  A    between atoms: C_20  and  O_21
REMARK    8  A    between atoms: O_21  and  C_22
REMARK    9  A    between atoms: C_23  and  O_24
REMARK   10  A    between atoms: O_24  and  C_25
REMARK                            x       y       z     vdW  Elec       q    Type
REMARK                         _______ _______ _______ _____ _____    ______ ____
ROOT
ATOM      1  C   UNL     1       3.355   5.120  17.616  0.00  0.00    +0.000 C 
ATOM      2  N   UNL     1       2.626   4.035  17.623  0.00  0.00    +0.000 NA
ENDROOT
BRANCH   1   3
ATOM      3  C   UNL     1       2.949   6.468  18.147  0.00  0.00    +0.000 A 
ATOM      4  C   UNL     1       2.770   7.574  17.313  0.00  0.00    +0.000 A 
ATOM      5  C   UNL     1       2.196   8.763  17.796  0.00  0.00    +0.000 A 
ATOM      6  C   UNL     1       1.715   8.766  19.121  0.00  0.00    +0.000 A 
ATOM      7  C   UNL     1       1.934   7.685  19.980  0.00  0.00    +0.000 A 
ATOM      8  C   UNL     1       1.302   7.970  21.216  0.00  0.00    +0.000 A 
ATOM      9  C   UNL     1       0.612   9.144  21.054  0.00  0.00    +0.000 A 
ATOM     10  N   UNL     1       0.991   9.687  19.851  0.00  0.00    +0.000 N 
ATOM     11  C   UNL     1       0.640  11.036  19.468  0.00  0.00    +0.000 C 
ATOM     12  C   UNL     1       2.632   6.560  19.508  0.00  0.00    +0.000 A 
ENDBRANCH   1   3
BRANCH   1  15
ATOM     13  C   UNL     1       5.927   4.183  15.010  0.00  0.00    +0.000 A 
ATOM     14  C   UNL     1       4.852   4.107  15.908  0.00  0.00    +0.000 A 
ATOM     15  C   UNL     1       4.703   5.039  16.930  0.00  0.00    +0.000 A 
ATOM     16  C   UNL     1       5.727   5.964  17.148  0.00  0.00    +0.000 A 
ATOM     17  C   UNL     1       6.851   6.022  16.301  0.00  0.00    +0.000 A 
ATOM     18  C   UNL     1       6.963   5.126  15.214  0.00  0.00    +0.000 A 
BRANCH  13  20
ATOM     19  C   UNL     1       5.105   3.668  12.855  0.00  0.00    +0.000 C 
ATOM     20  O   UNL     1       5.970   3.333  13.939  0.00  0.00    +0.000 OA
ENDBRANCH  13  20
BRANCH  17  21
ATOM     21  O   UNL     1       7.701   7.041  16.663  0.00  0.00    +0.000 OA
ATOM     22  C   UNL     1       7.841   7.395  18.032  0.00  0.00    +0.000 C 
ENDBRANCH  17  21
BRANCH  18  23
ATOM     23  O   UNL     1       8.088   5.257  14.442  0.00  0.00    +0.000 OA
ATOM     24  C   UNL     1       8.002   5.685  13.093  0.00  0.00    +0.000 C 
ENDBRANCH  18  23
ENDBRANCH   1  15
BRANCH   2  25
ATOM     25  N   UNL     1       1.368   4.093  18.100  0.00  0.00    +0.000 N 
ATOM     26  H   UNL     1       0.876   4.881  17.677  0.00  0.00    +0.000 HD
ATOM     27  H   UNL     1       1.341   4.236  19.112  0.00  0.00    +0.000 HD
ENDBRANCH   2  25
TORSDOF 6
ENDMDL
MODEL 2
REMARK VINA RESULT:      -7.4      1.195      2.076
REMARK  Name = 
REMARK  10 active torsions:
REMARK  status: ('A' for Active; 'I' for Inactive)
REMARK    1  A    between atoms: C_1  and  O_2
REMARK    2  A    between atoms: O_2  and  C_3
REMARK    3  A    between atoms: C_5  and  C_6
REMARK    4  A    between atoms: C_6  and  C_9
REMARK    5  A    between atoms: N_7  and  N_8
REMARK    6  A    between atoms: N_16  and  C_17
REMARK    7  A    between atoms: C_20  and  O_21
REMARK    8  A    between atoms: O_21  and  C_22
REMARK    9  A    between atoms: C_23  and  O_24
REMARK   10  A    between atoms: O_24  and  C_25
REMARK                            x       y       z     vdW  Elec       q    Type
REMARK                         _______ _______ _______ _____ _____    ______ ____
ROOT
ATOM      1  C   UNL     1       4.030   3.371  17.653  0.00  0.00    +0.000 C 
ATOM      2  N   UNL     1       3.741   2.096  17.611  0.00  0.00    +0.000 NA
ENDROOT
BRANCH   1   3
ATOM      3  C   UNL     1       3.249   4.437  18.371  0.00  0.00    +0.000 A 
ATOM      4  C   UNL     1       3.062   4.420  19.755  0.00  0.00    +0.000 A 
ATOM      5  C   UNL     1       2.510   5.523  20.428  0.00  0.00    +0.000 A 
ATOM      6  C   UNL     1       2.247   6.685  19.673  0.00  0.00    +0.000 A 
ATOM      7  C   UNL     1       2.381   6.698  18.282  0.00  0.00    +0.000 A 
ATOM      8  C   UNL     1       2.086   8.005  17.823  0.00  0.00    +0.000 A 
ATOM      9  C   UNL     1       1.902   8.790  18.933  0.00  0.00    +0.000 A 
ATOM     10  N   UNL     1       1.849   7.959  20.025  0.00  0.00    +0.000 N 
ATOM     11  C   UNL     1       1.431   8.424  21.329  0.00  0.00    +0.000 C 
ATOM     12  C   UNL     1       2.808   5.533  17.620  0.00  0.00    +0.000 A 
ENDBRANCH   1   3
BRANCH   1  15
ATOM     13  C   UNL     1       6.182   3.951  14.600  0.00  0.00    +0.000 A 
ATOM     14  C   UNL     1       5.331   3.340  15.534  0.00  0.00    +0.000 A 
ATOM     15  C   UNL     1       5.213   3.834  16.829  0.00  0.00    +0.000 A 
ATOM     16  C   UNL     1       6.075   4.856  17.238  0.00  0.00    +0.000 A 
ATOM     17  C   UNL     1       6.985   5.446  16.339  0.00  0.00    +0.000 A 
ATOM     18  C   UNL     1       7.049   4.997  15.001  0.00  0.00    +0.000 A 
BRANCH  13  20
ATOM     19  C   UNL     1       4.905   3.572  12.648  0.00  0.00    +0.000 C 
ATOM     20  O   UNL     1       6.172   3.524  13.302  0.00  0.00    +0.000 OA
ENDBRANCH  13  20
BRANCH  17  21
ATOM     21  O   UNL     1       7.689   6.466  16.936  0.00  0.00    +0.000 OA
ATOM     22  C   UNL     1       6.999   7.596  17.453  0.00  0.00    +0.000 C 
ENDBRANCH  17  21
BRANCH  18  23
ATOM     23  O   UNL     1       7.962   5.630  14.198  0.00  0.00    +0.000 OA
ATOM     24  C   UNL     1       8.002   5.383  12.802  0.00  0.00    +0.000 C 
ENDBRANCH  18  23
ENDBRANCH   1  15
BRANCH   2  25
ATOM     25  N   UNL     1       2.621   1.658  18.217  0.00  0.00    +0.000 N 
ATOM     26  H   UNL     1       2.840   0.856  18.809  0.00  0.00    +0.000 HD
ATOM     27  H   UNL     1       1.911   1.347  17.548  0.00  0.00    +0.000 HD
ENDBRANCH   2  25
TORSDOF 6
ENDMDL
MODEL 3
REMARK VINA RESULT:      -7.3      1.093      3.222
REMARK  Name = 
REMARK  10 active torsions:
REMARK  status: ('A' for Active; 'I' for Inactive)
REMARK    1  A    between atoms: C_1  and  O_2
REMARK    2  A    between atoms: O_2  and  C_3
REMARK    3  A    between atoms: C_5  and  C_6
REMARK    4  A    between atoms: C_6  and  C_9
REMARK    5  A    between atoms: N_7  and  N_8
REMARK    6  A    between atoms: N_16  and  C_17
REMARK    7  A    between atoms: C_20  and  O_21
REMARK    8  A    between atoms: O_21  and  C_22
REMARK    9  A    between atoms: C_23  and  O_24
REMARK   10  A    between atoms: O_24  and  C_25
REMARK                            x       y       z     vdW  Elec       q    Type
REMARK                         _______ _______ _______ _____ _____    ______ ____
ROOT
ATOM      1  C   UNL     1       3.918   3.735  17.464  0.00  0.00    +0.000 C 
ATOM      2  N   UNL     1       3.772   2.436  17.493  0.00  0.00    +0.000 NA
ENDROOT
BRANCH   1   3
ATOM      3  C   UNL     1       3.137   4.738  18.269  0.00  0.00    +0.000 A 
ATOM      4  C   UNL     1       3.000   4.635  19.655  0.00  0.00    +0.000 A 
ATOM      5  C   UNL     1       2.445   5.683  20.410  0.00  0.00    +0.000 A 
ATOM      6  C   UNL     1       2.126   6.878  19.734  0.00  0.00    +0.000 A 
ATOM      7  C   UNL     1       2.210   6.975  18.342  0.00  0.00    +0.000 A 
ATOM      8  C   UNL     1       1.867   8.299  17.971  0.00  0.00    +0.000 A 
ATOM      9  C   UNL     1       1.703   9.012  19.131  0.00  0.00    +0.000 A 
ATOM     10  N   UNL     1       1.709   8.118  20.174  0.00  0.00    +0.000 N 
ATOM     11  C   UNL     1       1.326   8.496  21.515  0.00  0.00    +0.000 C 
ATOM     12  C   UNL     1       2.643   5.863  17.599  0.00  0.00    +0.000 A 
ENDBRANCH   1   3
BRANCH   1  15
ATOM     13  C   UNL     1       6.898   5.657  16.154  0.00  0.00    +0.000 A 
ATOM     14  C   UNL     1       5.752   5.314  16.886  0.00  0.00    +0.000 A 
ATOM     15  C   UNL     1       4.907   4.293  16.461  0.00  0.00    +0.000 A 
ATOM     16  C   UNL     1       5.130   3.717  15.208  0.00  0.00    +0.000 A 
ATOM     17  C   UNL     1       6.238   4.088  14.421  0.00  0.00    +0.000 A 
ATOM     18  C   UNL     1       7.141   5.069  14.889  0.00  0.00    +0.000 A 
BRANCH  13  20
ATOM     19  C   UNL     1       7.220   7.501  17.596  0.00  0.00    +0.000 C 
ATOM     20  O   UNL     1       7.776   6.571  16.669  0.00  0.00    +0.000 OA
ENDBRANCH  13  20
BRANCH  17  21
ATOM     21  O   UNL     1       6.295   3.356  13.257  0.00  0.00    +0.000 OA
ATOM     22  C   UNL     1       5.181   3.337  12.376  0.00  0.00    +0.000 C 
ENDBRANCH  17  21
BRANCH  18  23
ATOM     23  O   UNL     1       8.190   5.365  14.058  0.00  0.00    +0.000 OA
ATOM     24  C   UNL     1       7.974   5.680  12.693  0.00  0.00    +0.000 C 
ENDBRANCH  18  23
ENDBRANCH   1  15
BRANCH   2  25
ATOM     25  N   UNL     1       2.810   1.903  18.270  0.00  0.00    +0.000 N 
ATOM     26  H   UNL     1       3.224   1.527  19.123  0.00  0.00    +0.000 HD
ATOM     27  H   UNL     1       2.323   1.129  17.812  0.00  0.00    +0.000 HD
ENDBRANCH   2  25
TORSDOF 6
ENDMDL
MODEL 4
REMARK VINA RESULT:      -7.3      3.196      5.569
REMARK  Name = 
REMARK  10 active torsions:
REMARK  status: ('A' for Active; 'I' for Inactive)
REMARK    1  A    between atoms: C_1  and  O_2
REMARK    2  A    between atoms: O_2  and  C_3
REMARK    3  A    between atoms: C_5  and  C_6
REMARK    4  A    between atoms: C_6  and  C_9
REMARK    5  A    between atoms: N_7  and  N_8
REMARK    6  A    between atoms: N_16  and  C_17
REMARK    7  A    between atoms: C_20  and  O_21
REMARK    8  A    between atoms: O_21  and  C_22
REMARK    9  A    between atoms: C_23  and  O_24
REMARK   10  A    between atoms: O_24  and  C_25
REMARK                            x       y       z     vdW  Elec       q    Type
REMARK                         _______ _______ _______ _____ _____    ______ ____
ROOT
ATOM      1  C   UNL     1       1.822   9.754  17.994  0.00  0.00    +0.000 C 
ATOM      2  N   UNL     1       2.725  10.633  17.645  0.00  0.00    +0.000 NA
ENDROOT
BRANCH   1   3
ATOM      3  C   UNL     1       0.380  10.039  18.313  0.00  0.00    +0.000 A 
ATOM      4  C   UNL     1      -0.002  10.802  19.418  0.00  0.00    +0.000 A 
ATOM      5  C   UNL     1      -1.332  11.227  19.584  0.00  0.00    +0.000 A 
ATOM      6  C   UNL     1      -2.243  10.943  18.546  0.00  0.00    +0.000 A 
ATOM      7  C   UNL     1      -1.887  10.138  17.460  0.00  0.00    +0.000 A 
ATOM      8  C   UNL     1      -2.993  10.073  16.578  0.00  0.00    +0.000 A 
ATOM      9  C   UNL     1      -3.948  10.927  17.067  0.00  0.00    +0.000 A 
ATOM     10  N   UNL     1      -3.551  11.322  18.320  0.00  0.00    +0.000 N 
ATOM     11  C   UNL     1      -4.431  12.035  19.219  0.00  0.00    +0.000 C 
ATOM     12  C   UNL     1      -0.584   9.614  17.390  0.00  0.00    +0.000 A 
ENDBRANCH   1   3
BRANCH   1  15
ATOM     13  C   UNL     1       4.005   6.689  17.640  0.00  0.00    +0.000 A 
ATOM     14  C   UNL     1       3.287   7.855  17.336  0.00  0.00    +0.000 A 
ATOM     15  C   UNL     1       2.290   8.326  18.184  0.00  0.00    +0.000 A 
ATOM     16  C   UNL     1       1.903   7.534  19.268  0.00  0.00    +0.000 A 
ATOM     17  C   UNL     1       2.563   6.325  19.561  0.00  0.00    +0.000 A 
ATOM     18  C   UNL     1       3.630   5.886  18.745  0.00  0.00    +0.000 A 
BRANCH  13  20
ATOM     19  C   UNL     1       6.333   6.843  17.264  0.00  0.00    +0.000 C 
ATOM     20  O   UNL     1       5.066   6.329  16.856  0.00  0.00    +0.000 OA
ENDBRANCH  13  20
BRANCH  17  21
ATOM     21  O   UNL     1       2.060   5.741  20.700  0.00  0.00    +0.000 OA
ATOM     22  C   UNL     1       1.196   4.617  20.599  0.00  0.00    +0.000 C 
ENDBRANCH  17  21
BRANCH  18  23
ATOM     23  O   UNL     1       4.215   4.701  19.106  0.00  0.00    +0.000 OA
ATOM     24  C   UNL     1       3.924   3.501  18.408  0.00  0.00    +0.000 C 
ENDBRANCH  18  23
ENDBRANCH   1  15
BRANCH   2  25
ATOM     25  N   UNL     1       2.387  11.936  17.596  0.00  0.00    +0.000 N 
ATOM     26  H   UNL     1       1.553  12.054  17.019  0.00  0.00    +0.000 HD
ATOM     27  H   UNL     1       3.120  12.514  17.178  0.00  0.00    +0.000 HD
ENDBRANCH   2  25
TORSDOF 6
ENDMDL
MODEL 5
REMARK VINA RESULT:      -7.2      3.422      7.252
REMARK  Name = 
REMARK  10 active torsions:
REMARK  status: ('A' for Active; 'I' for Inactive)
REMARK    1  A    between atoms: C_1  and  O_2
REMARK    2  A    between atoms: O_2  and  C_3
REMARK    3  A    between atoms: C_5  and  C_6
REMARK    4  A    between atoms: C_6  and  C_9
REMARK    5  A    between atoms: N_7  and  N_8
REMARK    6  A    between atoms: N_16  and  C_17
REMARK    7  A    between atoms: C_20  and  O_21
REMARK    8  A    between atoms: O_21  and  C_22
REMARK    9  A    between atoms: C_23  and  O_24
REMARK   10  A    between atoms: O_24  and  C_25
REMARK                            x       y       z     vdW  Elec       q    Type
REMARK                         _______ _______ _______ _____ _____    ______ ____
ROOT
ATOM      1  C   UNL     1       2.428   5.509  20.115  0.00  0.00    +0.000 C 
ATOM      2  N   UNL     1       1.942   4.707  21.026  0.00  0.00    +0.000 NA
ENDROOT
BRANCH   1   3
ATOM      3  C   UNL     1       3.479   5.166  19.095  0.00  0.00    +0.000 A 
ATOM      4  C   UNL     1       3.163   4.574  17.870  0.00  0.00    +0.000 A 
ATOM      5  C   UNL     1       4.125   4.450  16.853  0.00  0.00    +0.000 A 
ATOM      6  C   UNL     1       5.389   5.033  17.075  0.00  0.00    +0.000 A 
ATOM      7  C   UNL     1       5.734   5.582  18.313  0.00  0.00    +0.000 A 
ATOM      8  C   UNL     1       7.041   6.119  18.209  0.00  0.00    +0.000 A 
ATOM      9  C   UNL     1       7.420   6.004  16.895  0.00  0.00    +0.000 A 
ATOM     10  N   UNL     1       6.489   5.217  16.262  0.00  0.00    +0.000 N 
ATOM     11  C   UNL     1       6.699   4.696  14.930  0.00  0.00    +0.000 C 
ATOM     12  C   UNL     1       4.793   5.571  19.358  0.00  0.00    +0.000 A 
ENDBRANCH   1   3
BRANCH   1  15
ATOM     13  C   UNL     1       1.588   8.964  18.833  0.00  0.00    +0.000 A 
ATOM     14  C   UNL     1       2.254   7.748  19.046  0.00  0.00    +0.000 A 
ATOM     15  C   UNL     1       1.954   6.948  20.143  0.00  0.00    +0.000 A 
ATOM     16  C   UNL     1       1.089   7.447  21.121  0.00  0.00    +0.000 A 
ATOM     17  C   UNL     1       0.455   8.695  20.965  0.00  0.00    +0.000 A 
ATOM     18  C   UNL     1       0.698   9.473  19.810  0.00  0.00    +0.000 A 
BRANCH  13  20
ATOM     19  C   UNL     1       2.442  10.929  17.833  0.00  0.00    +0.000 C 
ATOM     20  O   UNL     1       1.810   9.659  17.676  0.00  0.00    +0.000 OA
ENDBRANCH  13  20
BRANCH  17  21
ATOM     21  O   UNL     1      -0.395   8.961  22.014  0.00  0.00    +0.000 OA
ATOM     22  C   UNL     1       0.100   9.599  23.183  0.00  0.00    +0.000 C 
ENDBRANCH  17  21
BRANCH  18  23
ATOM     23  O   UNL     1       0.037  10.671  19.742  0.00  0.00    +0.000 OA
ATOM     24  C   UNL     1      -1.216  10.777  19.089  0.00  0.00    +0.000 C 
ENDBRANCH  18  23
ENDBRANCH   1  15
BRANCH   2  25
ATOM     25  N   UNL     1       2.433   3.457  21.127  0.00  0.00    +0.000 N 
ATOM     26  H   UNL     1       1.667   2.795  21.261  0.00  0.00    +0.000 HD
ATOM     27  H   UNL     1       3.061   3.347  21.927  0.00  0.00    +0.000 HD
ENDBRANCH   2  25
TORSDOF 6
ENDMDL
MODEL 6
REMARK VINA RESULT:      -7.1      3.572      7.325
REMARK  Name = 
REMARK  10 active torsions:
REMARK  status: ('A' for Active; 'I' for Inactive)
REMARK    1  A    between atoms: C_1  and  O_2
REMARK    2  A    between atoms: O_2  and  C_3
REMARK    3  A    between atoms: C_5  and  C_6
REMARK    4  A    between atoms: C_6  and  C_9
REMARK    5  A    between atoms: N_7  and  N_8
REMARK    6  A    between atoms: N_16  and  C_17
REMARK    7  A    between atoms: C_20  and  O_21
REMARK    8  A    between atoms: O_21  and  C_22
REMARK    9  A    between atoms: C_23  and  O_24
REMARK   10  A    between atoms: O_24  and  C_25
REMARK                            x       y       z     vdW  Elec       q    Type
REMARK                         _______ _______ _______ _____ _____    ______ ____
ROOT
ATOM      1  C   UNL     1       2.007   5.758  19.967  0.00  0.00    +0.000 C 
ATOM      2  N   UNL     1       1.205   4.983  20.650  0.00  0.00    +0.000 NA
ENDROOT
BRANCH   1   3
ATOM      3  C   UNL     1       3.150   5.312  19.098  0.00  0.00    +0.000 A 
ATOM      4  C   UNL     1       2.969   4.934  17.765  0.00  0.00    +0.000 A 
ATOM      5  C   UNL     1       4.067   4.718  16.915  0.00  0.00    +0.000 A 
ATOM      6  C   UNL     1       5.353   4.995  17.424  0.00  0.00    +0.000 A 
ATOM      7  C   UNL     1       5.551   5.324  18.768  0.00  0.00    +0.000 A 
ATOM      8  C   UNL     1       6.930   5.582  18.960  0.00  0.00    +0.000 A 
ATOM      9  C   UNL     1       7.525   5.530  17.725  0.00  0.00    +0.000 A 
ATOM     10  N   UNL     1       6.603   5.029  16.840  0.00  0.00    +0.000 N 
ATOM     11  C   UNL     1       6.962   4.620  15.501  0.00  0.00    +0.000 C 
ATOM     12  C   UNL     1       4.442   5.401  19.630  0.00  0.00    +0.000 A 
ENDBRANCH   1   3
BRANCH   1  15
ATOM     13  C   UNL     1       1.101   9.318  19.072  0.00  0.00    +0.000 A 
ATOM     14  C   UNL     1       1.601   8.009  18.989  0.00  0.00    +0.000 A 
ATOM     15  C   UNL     1       1.826   7.253  20.135  0.00  0.00    +0.000 A 
ATOM     16  C   UNL     1       1.696   7.871  21.382  0.00  0.00    +0.000 A 
ATOM     17  C   UNL     1       1.257   9.204  21.493  0.00  0.00    +0.000 A 
ATOM     18  C   UNL     1       0.951   9.947  20.331  0.00  0.00    +0.000 A 
BRANCH  13  20
ATOM     19  C   UNL     1      -0.629  10.018  17.622  0.00  0.00    +0.000 C 
ATOM     20  O   UNL     1       0.765   9.982  17.925  0.00  0.00    +0.000 OA
ENDBRANCH  13  20
BRANCH  17  21
ATOM     21  O   UNL     1       1.145   9.588  22.810  0.00  0.00    +0.000 OA
ATOM     22  C   UNL     1      -0.119   9.543  23.457  0.00  0.00    +0.000 C 
ENDBRANCH  17  21
BRANCH  18  23
ATOM     23  O   UNL     1       0.530  11.235  20.535  0.00  0.00    +0.000 OA
ATOM     24  C   UNL     1       1.442  12.319  20.484  0.00  0.00    +0.000 C 
ENDBRANCH  18  23
ENDBRANCH   1  15
BRANCH   2  25
ATOM     25  N   UNL     1       1.414   3.653  20.639  0.00  0.00    +0.000 N 
ATOM     26  H   UNL     1       1.352   3.287  21.589  0.00  0.00    +0.000 HD
ATOM     27  H   UNL     1       2.342   3.406  20.287  0.00  0.00    +0.000 HD
ENDBRANCH   2  25
TORSDOF 6
ENDMDL
MODEL 7
REMARK VINA RESULT:      -7.0      5.424      9.623
REMARK  Name = 
REMARK  10 active torsions:
REMARK  status: ('A' for Active; 'I' for Inactive)
REMARK    1  A    between atoms: C_1  and  O_2
REMARK    2  A    between atoms: O_2  and  C_3
REMARK    3  A    between atoms: C_5  and  C_6
REMARK    4  A    between atoms: C_6  and  C_9
REMARK    5  A    between atoms: N_7  and  N_8
REMARK    6  A    between atoms: N_16  and  C_17
REMARK    7  A    between atoms: C_20  and  O_21
REMARK    8  A    between atoms: O_21  and  C_22
REMARK    9  A    between atoms: C_23  and  O_24
REMARK   10  A    between atoms: O_24  and  C_25
REMARK                            x       y       z     vdW  Elec       q    Type
REMARK                         _______ _______ _______ _____ _____    ______ ____
ROOT
ATOM      1  C   UNL     1       0.334  11.315  18.970  0.00  0.00    +0.000 C 
ATOM      2  N   UNL     1       0.878  12.484  18.751  0.00  0.00    +0.000 NA
ENDROOT
BRANCH   1   3
ATOM      3  C   UNL     1       1.063  10.043  19.308  0.00  0.00    +0.000 A 
ATOM      4  C   UNL     1       0.882   9.383  20.526  0.00  0.00    +0.000 A 
ATOM      5  C   UNL     1       1.410   8.098  20.741  0.00  0.00    +0.000 A 
ATOM      6  C   UNL     1       2.038   7.459  19.653  0.00  0.00    +0.000 A 
ATOM      7  C   UNL     1       2.270   8.127  18.447  0.00  0.00    +0.000 A 
ATOM      8  C   UNL     1       2.875   7.216  17.547  0.00  0.00    +0.000 A 
ATOM      9  C   UNL     1       2.889   5.990  18.164  0.00  0.00    +0.000 A 
ATOM     10  N   UNL     1       2.528   6.180  19.475  0.00  0.00    +0.000 N 
ATOM     11  C   UNL     1       2.665   5.142  20.471  0.00  0.00    +0.000 C 
ATOM     12  C   UNL     1       1.849   9.461  18.307  0.00  0.00    +0.000 A 
ENDBRANCH   1   3
BRANCH   1  15
ATOM     13  C   UNL     1      -3.328  12.195  19.296  0.00  0.00    +0.000 A 
ATOM     14  C   UNL     1      -1.978  11.975  19.609  0.00  0.00    +0.000 A 
ATOM     15  C   UNL     1      -1.165  11.208  18.780  0.00  0.00    +0.000 A 
ATOM     16  C   UNL     1      -1.752  10.526  17.710  0.00  0.00    +0.000 A 
ATOM     17  C   UNL     1      -3.120  10.677  17.411  0.00  0.00    +0.000 A 
ATOM     18  C   UNL     1      -3.929  11.520  18.206  0.00  0.00    +0.000 A 
BRANCH  13  20
ATOM     19  C   UNL     1      -4.309  12.643  21.400  0.00  0.00    +0.000 C 
ATOM     20  O   UNL     1      -4.061  13.062  20.058  0.00  0.00    +0.000 OA
ENDBRANCH  13  20
BRANCH  17  21
ATOM     21  O   UNL     1      -3.470   9.965  16.287  0.00  0.00    +0.000 OA
ATOM     22  C   UNL     1      -2.915  10.311  15.026  0.00  0.00    +0.000 C 
ENDBRANCH  17  21
BRANCH  18  23
ATOM     23  O   UNL     1      -5.246  11.608  17.840  0.00  0.00    +0.000 OA
ATOM     24  C   UNL     1      -6.225  10.769  18.429  0.00  0.00    +0.000 C 
ENDBRANCH  18  23
ENDBRANCH   1  15
BRANCH   2  25
ATOM     25  N   UNL     1       2.219  12.597  18.775  0.00  0.00    +0.000 N 
ATOM     26  H   UNL     1       2.587  12.547  17.824  0.00  0.00    +0.000 HD
ATOM     27  H   UNL     1       2.665  11.843  19.303  0.00  0.00    +0.000 HD
ENDBRANCH   2  25
TORSDOF 6
ENDMDL
MODEL 8
REMARK VINA RESULT:      -6.9      0.459      2.622
REMARK  Name = 
REMARK  10 active torsions:
REMARK  status: ('A' for Active; 'I' for Inactive)
REMARK    1  A    between atoms: C_1  and  O_2
REMARK    2  A    between atoms: O_2  and  C_3
REMARK    3  A    between atoms: C_5  and  C_6
REMARK    4  A    between atoms: C_6  and  C_9
REMARK    5  A    between atoms: N_7  and  N_8
REMARK    6  A    between atoms: N_16  and  C_17
REMARK    7  A    between atoms: C_20  and  O_21
REMARK    8  A    between atoms: O_21  and  C_22
REMARK    9  A    between atoms: C_23  and  O_24
REMARK   10  A    between atoms: O_24  and  C_25
REMARK                            x       y       z     vdW  Elec       q    Type
REMARK                         _______ _______ _______ _____ _____    ______ ____
ROOT
ATOM      1  C   UNL     1       3.354   5.460  17.881  0.00  0.00    +0.000 C 
ATOM      2  N   UNL     1       2.871   4.289  18.205  0.00  0.00    +0.000 NA
ENDROOT
BRANCH   1   3
ATOM      3  C   UNL     1       2.846   6.795  18.356  0.00  0.00    +0.000 A 
ATOM      4  C   UNL     1       2.568   7.842  17.474  0.00  0.00    +0.000 A 
ATOM      5  C   UNL     1       1.905   9.002  17.910  0.00  0.00    +0.000 A 
ATOM      6  C   UNL     1       1.441   9.029  19.241  0.00  0.00    +0.000 A 
ATOM      7  C   UNL     1       1.757   8.012  20.146  0.00  0.00    +0.000 A 
ATOM      8  C   UNL     1       1.119   8.302  21.377  0.00  0.00    +0.000 A 
ATOM      9  C   UNL     1       0.334   9.409  21.172  0.00  0.00    +0.000 A 
ATOM     10  N   UNL     1       0.653   9.922  19.939  0.00  0.00    +0.000 N 
ATOM     11  C   UNL     1       0.189  11.219  19.500  0.00  0.00    +0.000 C 
ATOM     12  C   UNL     1       2.539   6.925  19.715  0.00  0.00    +0.000 A 
ENDBRANCH   1   3
BRANCH   1  15
ATOM     13  C   UNL     1       6.748   6.213  16.397  0.00  0.00    +0.000 A 
ATOM     14  C   UNL     1       5.535   6.355  17.088  0.00  0.00    +0.000 A 
ATOM     15  C   UNL     1       4.474   5.484  16.861  0.00  0.00    +0.000 A 
ATOM     16  C   UNL     1       4.576   4.559  15.819  0.00  0.00    +0.000 A 
ATOM     17  C   UNL     1       5.760   4.438  15.065  0.00  0.00    +0.000 A 
ATOM     18  C   UNL     1       6.867   5.269  15.348  0.00  0.00    +0.000 A 
BRANCH  13  20
ATOM     19  C   UNL     1       7.522   8.070  17.638  0.00  0.00    +0.000 C 
ATOM     20  O   UNL     1       7.812   6.999  16.740  0.00  0.00    +0.000 OA
ENDBRANCH  13  20
BRANCH  17  21
ATOM     21  O   UNL     1       5.661   3.430  14.134  0.00  0.00    +0.000 OA
ATOM     22  C   UNL     1       5.146   3.708  12.839  0.00  0.00    +0.000 C 
ENDBRANCH  17  21
BRANCH  18  23
ATOM     23  O   UNL     1       7.976   5.079  14.566  0.00  0.00    +0.000 OA
ATOM     24  C   UNL     1       8.048   5.621  13.258  0.00  0.00    +0.000 C 
ENDBRANCH  18  23
ENDBRANCH   1  15
BRANCH   2  25
ATOM     25  N   UNL     1       1.788   4.225  19.003  0.00  0.00    +0.000 N 
ATOM     26  H   UNL     1       0.958   4.506  18.480  0.00  0.00    +0.000 HD
ATOM     27  H   UNL     1       1.857   4.853  19.807  0.00  0.00    +0.000 HD
ENDBRANCH   2  25
TORSDOF 6
ENDMDL
MODEL 9
REMARK VINA RESULT:      -6.7      3.335      5.684
REMARK  Name = 
REMARK  10 active torsions:
REMARK  status: ('A' for Active; 'I' for Inactive)
REMARK    1  A    between atoms: C_1  and  O_2
REMARK    2  A    between atoms: O_2  and  C_3
REMARK    3  A    between atoms: C_5  and  C_6
REMARK    4  A    between atoms: C_6  and  C_9
REMARK    5  A    between atoms: N_7  and  N_8
REMARK    6  A    between atoms: N_16  and  C_17
REMARK    7  A    between atoms: C_20  and  O_21
REMARK    8  A    between atoms: O_21  and  C_22
REMARK    9  A    between atoms: C_23  and  O_24
REMARK   10  A    between atoms: O_24  and  C_25
REMARK                            x       y       z     vdW  Elec       q    Type
REMARK                         _______ _______ _______ _____ _____    ______ ____
ROOT
ATOM      1  C   UNL     1       1.963   9.731  18.061  0.00  0.00    +0.000 C 
ATOM      2  N   UNL     1       2.828  10.622  17.651  0.00  0.00    +0.000 NA
ENDROOT
BRANCH   1   3
ATOM      3  C   UNL     1       0.501   9.966  18.325  0.00  0.00    +0.000 A 
ATOM      4  C   UNL     1       0.051  10.704  19.422  0.00  0.00    +0.000 A 
ATOM      5  C   UNL     1      -1.297  11.085  19.540  0.00  0.00    +0.000 A 
ATOM      6  C   UNL     1      -2.157  10.784  18.464  0.00  0.00    +0.000 A 
ATOM      7  C   UNL     1      -1.733  10.002  17.385  0.00  0.00    +0.000 A 
ATOM      8  C   UNL     1      -2.801   9.912  16.459  0.00  0.00    +0.000 A 
ATOM      9  C   UNL     1      -3.802  10.730  16.918  0.00  0.00    +0.000 A 
ATOM     10  N   UNL     1      -3.467  11.124  18.191  0.00  0.00    +0.000 N 
ATOM     11  C   UNL     1      -4.403  11.798  19.061  0.00  0.00    +0.000 C 
ATOM     12  C   UNL     1      -0.412   9.521  17.361  0.00  0.00    +0.000 A 
ENDBRANCH   1   3
BRANCH   1  15
ATOM     13  C   UNL     1       2.182   6.342  19.721  0.00  0.00    +0.000 A 
ATOM     14  C   UNL     1       2.004   7.719  19.524  0.00  0.00    +0.000 A 
ATOM     15  C   UNL     1       2.498   8.352  18.388  0.00  0.00    +0.000 A 
ATOM     16  C   UNL     1       3.316   7.625  17.518  0.00  0.00    +0.000 A 
ATOM     17  C   UNL     1       3.566   6.255  17.726  0.00  0.00    +0.000 A 
ATOM     18  C   UNL     1       2.997   5.593  18.837  0.00  0.00    +0.000 A 
BRANCH  13  20
ATOM     19  C   UNL     1       0.951   4.476  20.488  0.00  0.00    +0.000 C 
ATOM     20  O   UNL     1       1.568   5.729  20.778  0.00  0.00    +0.000 OA
ENDBRANCH  13  20
BRANCH  17  21
ATOM     21  O   UNL     1       4.344   5.728  16.721  0.00  0.00    +0.000 OA
ATOM     22  C   UNL     1       5.154   6.585  15.929  0.00  0.00    +0.000 C 
ENDBRANCH  17  21
BRANCH  18  23
ATOM     23  O   UNL     1       3.292   4.260  18.959  0.00  0.00    +0.000 OA
ATOM     24  C   UNL     1       4.554   3.834  19.444  0.00  0.00    +0.000 C 
ENDBRANCH  18  23
ENDBRANCH   1  15
BRANCH   2  25
ATOM     25  N   UNL     1       2.425  11.895  17.479  0.00  0.00    +0.000 N 
ATOM     26  H   UNL     1       2.593  12.428  18.333  0.00  0.00    +0.000 HD
ATOM     27  H   UNL     1       1.424  11.964  17.279  0.00  0.00    +0.000 HD
ENDBRANCH   2  25
TORSDOF 6
ENDMDL
