MODEL 1
REMARK VINA RESULT:      -8.6      0.000      0.000
REMARK  Name = 
REMARK  9 active torsions:
REMARK  status: ('A' for Active; 'I' for Inactive)
REMARK    1  A    between atoms: C_1  and  C_2
REMARK    2  A    between atoms: C_7  and  C_8
REMARK    3  A    between atoms: C_9  and  C_10
REMARK    4  A    between atoms: C_13  and  N_14
REMARK    5  A    between atoms: N_17  and  C_18
REMARK    6  A    between atoms: C_18  and  C_19
REMARK    7  A    between atoms: C_19  and  O_20
REMARK    8  A    between atoms: O_20  and  C_21
REMARK    9  A    between atoms: C_21  and  C_23
REMARK                            x       y       z     vdW  Elec       q    Type
REMARK                         _______ _______ _______ _____ _____    ______ ____
ROOT
ATOM      1  C   UNL     1       4.853   4.386  16.721  0.00  0.00    +0.000 A 
ATOM      2  N   UNL     1       5.954   3.861  16.201  0.00  0.00    +0.000 NA
ATOM      3  C   UNL     1       7.010   4.361  16.908  0.00  0.00    +0.000 A 
ATOM      4  C   UNL     1       6.555   5.260  17.826  0.00  0.00    +0.000 A 
ATOM      5  N   UNL     1       5.200   5.393  17.633  0.00  0.00    +0.000 N 
ENDROOT
BRANCH   4   6
ATOM      6  N   UNL     1       7.280   5.890  18.859  0.00  0.00    +0.000 N 
ATOM      7  O   UNL     1       7.182   5.389  19.983  0.00  0.00    +0.000 OA
ATOM      8  O   UNL     1       7.923   6.900  18.556  0.00  0.00    +0.000 OA
ENDBRANCH   4   6
BRANCH   1  10
ATOM      9  C   UNL     1       2.570   3.693  17.389  0.00  0.00    +0.000 C 
ATOM     10  C   UNL     1       3.503   4.026  16.468  0.00  0.00    +0.000 C 
BRANCH   9  17
ATOM     11  C   UNL     1       3.958   1.476  18.859  0.00  0.00    +0.000 C 
ATOM     12  C   UNL     1       3.136   2.525  19.564  0.00  0.00    +0.000 A 
ATOM     13  C   UNL     1       2.968   2.380  20.956  0.00  0.00    +0.000 A 
ATOM     14  C   UNL     1       2.222   3.298  21.688  0.00  0.00    +0.000 A 
ATOM     15  C   UNL     1       1.621   4.367  21.026  0.00  0.00    +0.000 A 
ATOM     16  C   UNL     1       1.760   4.507  19.641  0.00  0.00    +0.000 A 
ATOM     17  C   UNL     1       2.521   3.608  18.877  0.00  0.00    +0.000 A 
ENDBRANCH   9  17
ENDBRANCH   1  10
BRANCH   5  18
ATOM     18  C   UNL     1       4.330   6.295  18.378  0.00  0.00    +0.000 C 
BRANCH  18  19
ATOM     19  C   UNL     1       3.651   7.388  17.530  0.00  0.00    +0.000 C 
BRANCH  19  20
ATOM     20  O   UNL     1       2.261   7.576  17.918  0.00  0.00    +0.000 OA
BRANCH  20  21
ATOM     21  C   UNL     1       1.957   8.867  18.182  0.00  0.00    +0.000 C 
ATOM     22  O   UNL     1       2.062   9.749  17.335  0.00  0.00    +0.000 OA
BRANCH  21  23
ATOM     23  C   UNL     1       1.433   9.195  19.548  0.00  0.00    +0.000 A 
ATOM     24  C   UNL     1       1.477   8.088  20.430  0.00  0.00    +0.000 A 
ATOM     25  C   UNL     1       1.045   8.178  21.745  0.00  0.00    +0.000 A 
ATOM     26  C   UNL     1       0.583   9.395  22.216  0.00  0.00    +0.000 A 
ATOM     27  C   UNL     1       0.551  10.513  21.381  0.00  0.00    +0.000 A 
ATOM     28  C   UNL     1       0.947  10.431  20.034  0.00  0.00    +0.000 A 
ATOM     29  O   UNL     1       0.830  11.503  19.197  0.00  0.00    +0.000 OA
ATOM     30  C   UNL     1       0.645  12.766  19.844  0.00  0.00    +0.000 C 
ATOM     31  C   UNL     1      -0.096  12.764  21.173  0.00  0.00    +0.000 C 
ATOM     32  O   UNL     1       0.135  11.647  22.011  0.00  0.00    +0.000 OA
ENDBRANCH  21  23
ENDBRANCH  20  21
ENDBRANCH  19  20
ENDBRANCH  18  19
ENDBRANCH   5  18
TORSDOF 8
ENDMDL
MODEL 2
REMARK VINA RESULT:      -8.4      2.490      4.592
REMARK  Name = 
REMARK  9 active torsions:
REMARK  status: ('A' for Active; 'I' for Inactive)
REMARK    1  A    between atoms: C_1  and  C_2
REMARK    2  A    between atoms: C_7  and  C_8
REMARK    3  A    between atoms: C_9  and  C_10
REMARK    4  A    between atoms: C_13  and  N_14
REMARK    5  A    between atoms: N_17  and  C_18
REMARK    6  A    between atoms: C_18  and  C_19
REMARK    7  A    between atoms: C_19  and  O_20
REMARK    8  A    between atoms: O_20  and  C_21
REMARK    9  A    between atoms: C_21  and  C_23
REMARK                            x       y       z     vdW  Elec       q    Type
REMARK                         _______ _______ _______ _____ _____    ______ ____
ROOT
ATOM      1  C   UNL     1       4.126   2.972  18.637  0.00  0.00    +0.000 A 
ATOM      2  N   UNL     1       4.771   2.304  19.582  0.00  0.00    +0.000 NA
ATOM      3  C   UNL     1       3.937   2.225  20.661  0.00  0.00    +0.000 A 
ATOM      4  C   UNL     1       2.792   2.919  20.398  0.00  0.00    +0.000 A 
ATOM      5  N   UNL     1       2.947   3.515  19.169  0.00  0.00    +0.000 N 
ENDROOT
BRANCH   4   6
ATOM      6  N   UNL     1       1.610   2.967  21.166  0.00  0.00    +0.000 N 
ATOM      7  O   UNL     1       0.547   2.945  20.539  0.00  0.00    +0.000 OA
ATOM      8  O   UNL     1       1.743   3.057  22.391  0.00  0.00    +0.000 OA
ENDBRANCH   4   6
BRANCH   1  10
ATOM      9  C   UNL     1       5.313   4.082  16.766  0.00  0.00    +0.000 C 
ATOM     10  C   UNL     1       4.488   3.139  17.274  0.00  0.00    +0.000 C 
BRANCH   9  17
ATOM     11  C   UNL     1       5.030   6.891  15.748  0.00  0.00    +0.000 C 
ATOM     12  C   UNL     1       6.038   6.509  16.801  0.00  0.00    +0.000 A 
ATOM     13  C   UNL     1       6.920   7.517  17.241  0.00  0.00    +0.000 A 
ATOM     14  C   UNL     1       7.885   7.254  18.208  0.00  0.00    +0.000 A 
ATOM     15  C   UNL     1       7.988   5.967  18.734  0.00  0.00    +0.000 A 
ATOM     16  C   UNL     1       7.136   4.953  18.286  0.00  0.00    +0.000 A 
ATOM     17  C   UNL     1       6.140   5.191  17.325  0.00  0.00    +0.000 A 
ENDBRANCH   9  17
ENDBRANCH   1  10
BRANCH   5  18
ATOM     18  C   UNL     1       1.970   4.389  18.530  0.00  0.00    +0.000 C 
BRANCH  18  19
ATOM     19  C   UNL     1       2.504   5.781  18.140  0.00  0.00    +0.000 C 
BRANCH  19  20
ATOM     20  O   UNL     1       2.989   6.510  19.303  0.00  0.00    +0.000 OA
BRANCH  20  21
ATOM     21  C   UNL     1       1.992   6.962  20.095  0.00  0.00    +0.000 C 
ATOM     22  O   UNL     1       1.498   6.275  20.984  0.00  0.00    +0.000 OA
BRANCH  21  23
ATOM     23  C   UNL     1       1.523   8.372  19.889  0.00  0.00    +0.000 A 
ATOM     24  C   UNL     1       1.824   8.864  18.596  0.00  0.00    +0.000 A 
ATOM     25  C   UNL     1       1.472  10.145  18.196  0.00  0.00    +0.000 A 
ATOM     26  C   UNL     1       0.781  10.956  19.079  0.00  0.00    +0.000 A 
ATOM     27  C   UNL     1       0.443  10.493  20.352  0.00  0.00    +0.000 A 
ATOM     28  C   UNL     1       0.827   9.212  20.789  0.00  0.00    +0.000 A 
ATOM     29  O   UNL     1       0.575   8.797  22.066  0.00  0.00    +0.000 OA
ATOM     30  C   UNL     1      -0.399   9.567  22.778  0.00  0.00    +0.000 C 
ATOM     31  C   UNL     1      -0.502  11.046  22.433  0.00  0.00    +0.000 C 
ATOM     32  O   UNL     1      -0.293  11.383  21.075  0.00  0.00    +0.000 OA
ENDBRANCH  21  23
ENDBRANCH  20  21
ENDBRANCH  19  20
ENDBRANCH  18  19
ENDBRANCH   5  18
TORSDOF 8
ENDMDL
MODEL 3
REMARK VINA RESULT:      -8.4      2.224      4.251
REMARK  Name = 
REMARK  9 active torsions:
REMARK  status: ('A' for Active; 'I' for Inactive)
REMARK    1  A    between atoms: C_1  and  C_2
REMARK    2  A    between atoms: C_7  and  C_8
REMARK    3  A    between atoms: C_9  and  C_10
REMARK    4  A    between atoms: C_13  and  N_14
REMARK    5  A    between atoms: N_17  and  C_18
REMARK    6  A    between atoms: C_18  and  C_19
REMARK    7  A    between atoms: C_19  and  O_20
REMARK    8  A    between atoms: O_20  and  C_21
REMARK    9  A    between atoms: C_21  and  C_23
REMARK                            x       y       z     vdW  Elec       q    Type
REMARK                         _______ _______ _______ _____ _____    ______ ____
ROOT
ATOM      1  C   UNL     1       4.039   3.185  18.358  0.00  0.00    +0.000 A 
ATOM      2  N   UNL     1       4.316   2.367  19.363  0.00  0.00    +0.000 NA
ATOM      3  C   UNL     1       3.339   2.539  20.302  0.00  0.00    +0.000 A 
ATOM      4  C   UNL     1       2.493   3.529  19.898  0.00  0.00    +0.000 A 
ATOM      5  N   UNL     1       2.996   4.047  18.728  0.00  0.00    +0.000 N 
ENDROOT
BRANCH   4   6
ATOM      6  N   UNL     1       1.270   3.920  20.483  0.00  0.00    +0.000 N 
ATOM      7  O   UNL     1       1.309   4.902  21.229  0.00  0.00    +0.000 OA
ATOM      8  O   UNL     1       0.280   3.230  20.222  0.00  0.00    +0.000 OA
ENDBRANCH   4   6
BRANCH   1  10
ATOM      9  C   UNL     1       5.571   4.110  16.643  0.00  0.00    +0.000 C 
ATOM     10  C   UNL     1       4.637   3.230  17.070  0.00  0.00    +0.000 C 
BRANCH   9  17
ATOM     11  C   UNL     1       5.306   6.901  15.572  0.00  0.00    +0.000 C 
ATOM     12  C   UNL     1       6.238   6.553  16.704  0.00  0.00    +0.000 A 
ATOM     13  C   UNL     1       7.061   7.585  17.199  0.00  0.00    +0.000 A 
ATOM     14  C   UNL     1       7.954   7.355  18.240  0.00  0.00    +0.000 A 
ATOM     15  C   UNL     1       8.044   6.076  18.788  0.00  0.00    +0.000 A 
ATOM     16  C   UNL     1       7.252   5.038  18.288  0.00  0.00    +0.000 A 
ATOM     17  C   UNL     1       6.327   5.243  17.251  0.00  0.00    +0.000 A 
ENDBRANCH   9  17
ENDBRANCH   1  10
BRANCH   5  18
ATOM     18  C   UNL     1       2.417   5.158  17.983  0.00  0.00    +0.000 C 
BRANCH  18  19
ATOM     19  C   UNL     1       2.993   6.544  18.335  0.00  0.00    +0.000 C 
BRANCH  19  20
ATOM     20  O   UNL     1       2.245   7.173  19.412  0.00  0.00    +0.000 OA
BRANCH  20  21
ATOM     21  C   UNL     1       1.813   8.415  19.098  0.00  0.00    +0.000 C 
ATOM     22  O   UNL     1       2.044   8.932  18.010  0.00  0.00    +0.000 OA
BRANCH  21  23
ATOM     23  C   UNL     1       0.986   9.144  20.116  0.00  0.00    +0.000 A 
ATOM     24  C   UNL     1       1.251   8.718  21.441  0.00  0.00    +0.000 A 
ATOM     25  C   UNL     1       0.598   9.269  22.534  0.00  0.00    +0.000 A 
ATOM     26  C   UNL     1      -0.318  10.285  22.325  0.00  0.00    +0.000 A 
ATOM     27  C   UNL     1      -0.582  10.748  21.035  0.00  0.00    +0.000 A 
ATOM     28  C   UNL     1       0.039  10.174  19.911  0.00  0.00    +0.000 A 
ATOM     29  O   UNL     1      -0.289  10.567  18.645  0.00  0.00    +0.000 OA
ATOM     30  C   UNL     1      -0.993  11.810  18.555  0.00  0.00    +0.000 C 
ATOM     31  C   UNL     1      -1.903  12.179  19.717  0.00  0.00    +0.000 C 
ATOM     32  O   UNL     1      -1.454  11.793  21.003  0.00  0.00    +0.000 OA
ENDBRANCH  21  23
ENDBRANCH  20  21
ENDBRANCH  19  20
ENDBRANCH  18  19
ENDBRANCH   5  18
TORSDOF 8
ENDMDL
MODEL 4
REMARK VINA RESULT:      -8.4      0.875      1.427
REMARK  Name = 
REMARK  9 active torsions:
REMARK  status: ('A' for Active; 'I' for Inactive)
REMARK    1  A    between atoms: C_1  and  C_2
REMARK    2  A    between atoms: C_7  and  C_8
REMARK    3  A    between atoms: C_9  and  C_10
REMARK    4  A    between atoms: C_13  and  N_14
REMARK    5  A    between atoms: N_17  and  C_18
REMARK    6  A    between atoms: C_18  and  C_19
REMARK    7  A    between atoms: C_19  and  O_20
REMARK    8  A    between atoms: O_20  and  C_21
REMARK    9  A    between atoms: C_21  and  C_23
REMARK                            x       y       z     vdW  Elec       q    Type
REMARK                         _______ _______ _______ _____ _____    ______ ____
ROOT
ATOM      1  C   UNL     1       5.177   4.404  16.723  0.00  0.00    +0.000 A 
ATOM      2  N   UNL     1       6.312   3.959  16.202  0.00  0.00    +0.000 NA
ATOM      3  C   UNL     1       7.328   4.470  16.958  0.00  0.00    +0.000 A 
ATOM      4  C   UNL     1       6.812   5.298  17.910  0.00  0.00    +0.000 A 
ATOM      5  N   UNL     1       5.456   5.377  17.693  0.00  0.00    +0.000 N 
ENDROOT
BRANCH   4   6
ATOM      6  N   UNL     1       7.485   5.906  18.990  0.00  0.00    +0.000 N 
ATOM      7  O   UNL     1       8.090   6.953  18.741  0.00  0.00    +0.000 OA
ATOM      8  O   UNL     1       7.433   5.326  20.079  0.00  0.00    +0.000 OA
ENDBRANCH   4   6
BRANCH   1  10
ATOM      9  C   UNL     1       2.993   3.359  17.251  0.00  0.00    +0.000 C 
ATOM     10  C   UNL     1       3.851   3.994  16.421  0.00  0.00    +0.000 C 
BRANCH   9  17
ATOM     11  C   UNL     1       0.474   3.188  18.875  0.00  0.00    +0.000 C 
ATOM     12  C   UNL     1       1.832   2.875  19.450  0.00  0.00    +0.000 A 
ATOM     13  C   UNL     1       1.892   2.575  20.826  0.00  0.00    +0.000 A 
ATOM     14  C   UNL     1       3.102   2.279  21.444  0.00  0.00    +0.000 A 
ATOM     15  C   UNL     1       4.273   2.296  20.688  0.00  0.00    +0.000 A 
ATOM     16  C   UNL     1       4.229   2.617  19.328  0.00  0.00    +0.000 A 
ATOM     17  C   UNL     1       3.022   2.903  18.672  0.00  0.00    +0.000 A 
ENDBRANCH   9  17
ENDBRANCH   1  10
BRANCH   5  18
ATOM     18  C   UNL     1       4.529   6.197  18.464  0.00  0.00    +0.000 C 
BRANCH  18  19
ATOM     19  C   UNL     1       3.771   7.261  17.645  0.00  0.00    +0.000 C 
BRANCH  19  20
ATOM     20  O   UNL     1       2.373   7.339  18.041  0.00  0.00    +0.000 OA
BRANCH  20  21
ATOM     21  C   UNL     1       1.927   8.611  18.149  0.00  0.00    +0.000 C 
ATOM     22  O   UNL     1       2.059   9.429  17.244  0.00  0.00    +0.000 OA
BRANCH  21  23
ATOM     23  C   UNL     1       1.208   8.994  19.408  0.00  0.00    +0.000 A 
ATOM     24  C   UNL     1       1.529   8.149  20.499  0.00  0.00    +0.000 A 
ATOM     25  C   UNL     1       0.978   8.333  21.758  0.00  0.00    +0.000 A 
ATOM     26  C   UNL     1       0.111   9.392  21.962  0.00  0.00    +0.000 A 
ATOM     27  C   UNL     1      -0.206  10.261  20.916  0.00  0.00    +0.000 A 
ATOM     28  C   UNL     1       0.311  10.066  19.622  0.00  0.00    +0.000 A 
ATOM     29  O   UNL     1      -0.072  10.863  18.582  0.00  0.00    +0.000 OA
ATOM     30  C   UNL     1      -0.707  12.091  18.954  0.00  0.00    +0.000 C 
ATOM     31  C   UNL     1      -1.521  12.089  20.240  0.00  0.00    +0.000 C 
ATOM     32  O   UNL     1      -1.017  11.289  21.292  0.00  0.00    +0.000 OA
ENDBRANCH  21  23
ENDBRANCH  20  21
ENDBRANCH  19  20
ENDBRANCH  18  19
ENDBRANCH   5  18
TORSDOF 8
ENDMDL
MODEL 5
REMARK VINA RESULT:      -8.4      2.230      4.189
REMARK  Name = 
REMARK  9 active torsions:
REMARK  status: ('A' for Active; 'I' for Inactive)
REMARK    1  A    between atoms: C_1  and  C_2
REMARK    2  A    between atoms: C_7  and  C_8
REMARK    3  A    between atoms: C_9  and  C_10
REMARK    4  A    between atoms: C_13  and  N_14
REMARK    5  A    between atoms: N_17  and  C_18
REMARK    6  A    between atoms: C_18  and  C_19
REMARK    7  A    between atoms: C_19  and  O_20
REMARK    8  A    between atoms: O_20  and  C_21
REMARK    9  A    between atoms: C_21  and  C_23
REMARK                            x       y       z     vdW  Elec       q    Type
REMARK                         _______ _______ _______ _____ _____    ______ ____
ROOT
ATOM      1  C   UNL     1       3.923   3.138  18.558  0.00  0.00    +0.000 A 
ATOM      2  N   UNL     1       4.373   2.312  19.491  0.00  0.00    +0.000 NA
ATOM      3  C   UNL     1       3.508   2.388  20.546  0.00  0.00    +0.000 A 
ATOM      4  C   UNL     1       2.556   3.328  20.282  0.00  0.00    +0.000 A 
ATOM      5  N   UNL     1       2.879   3.914  19.081  0.00  0.00    +0.000 N 
ENDROOT
BRANCH   4   6
ATOM      6  N   UNL     1       1.391   3.616  21.024  0.00  0.00    +0.000 N 
ATOM      7  O   UNL     1       1.039   2.765  21.845  0.00  0.00    +0.000 OA
ATOM      8  O   UNL     1       0.812   4.676  20.765  0.00  0.00    +0.000 OA
ENDBRANCH   4   6
BRANCH   1  10
ATOM      9  C   UNL     1       5.254   4.151  16.729  0.00  0.00    +0.000 C 
ATOM     10  C   UNL     1       4.356   3.262  17.210  0.00  0.00    +0.000 C 
BRANCH   9  17
ATOM     11  C   UNL     1       5.137   6.965  15.692  0.00  0.00    +0.000 C 
ATOM     12  C   UNL     1       6.091   6.542  16.780  0.00  0.00    +0.000 A 
ATOM     13  C   UNL     1       7.003   7.510  17.245  0.00  0.00    +0.000 A 
ATOM     14  C   UNL     1       7.923   7.207  18.243  0.00  0.00    +0.000 A 
ATOM     15  C   UNL     1       7.949   5.920  18.777  0.00  0.00    +0.000 A 
ATOM     16  C   UNL     1       7.065   4.944  18.305  0.00  0.00    +0.000 A 
ATOM     17  C   UNL     1       6.113   5.223  17.311  0.00  0.00    +0.000 A 
ENDBRANCH   9  17
ENDBRANCH   1  10
BRANCH   5  18
ATOM     18  C   UNL     1       2.142   5.004  18.453  0.00  0.00    +0.000 C 
BRANCH  18  19
ATOM     19  C   UNL     1       2.830   6.381  18.535  0.00  0.00    +0.000 C 
BRANCH  19  20
ATOM     20  O   UNL     1       2.329   7.159  19.659  0.00  0.00    +0.000 OA
BRANCH  20  21
ATOM     21  C   UNL     1       1.702   8.294  19.276  0.00  0.00    +0.000 C 
ATOM     22  O   UNL     1       1.664   8.657  18.105  0.00  0.00    +0.000 OA
BRANCH  21  23
ATOM     23  C   UNL     1       0.997   9.091  20.333  0.00  0.00    +0.000 A 
ATOM     24  C   UNL     1       0.362   8.274  21.301  0.00  0.00    +0.000 A 
ATOM     25  C   UNL     1      -0.341   8.811  22.369  0.00  0.00    +0.000 A 
ATOM     26  C   UNL     1      -0.399  10.187  22.509  0.00  0.00    +0.000 A 
ATOM     27  C   UNL     1       0.239  11.021  21.589  0.00  0.00    +0.000 A 
ATOM     28  C   UNL     1       0.921  10.496  20.477  0.00  0.00    +0.000 A 
ATOM     29  O   UNL     1       1.467  11.316  19.531  0.00  0.00    +0.000 OA
ATOM     30  C   UNL     1       1.623  12.683  19.924  0.00  0.00    +0.000 C 
ATOM     31  C   UNL     1       0.609  13.242  20.911  0.00  0.00    +0.000 C 
ATOM     32  O   UNL     1       0.146  12.344  21.902  0.00  0.00    +0.000 OA
ENDBRANCH  21  23
ENDBRANCH  20  21
ENDBRANCH  19  20
ENDBRANCH  18  19
ENDBRANCH   5  18
TORSDOF 8
ENDMDL
MODEL 6
REMARK VINA RESULT:      -8.1      2.597      4.808
REMARK  Name = 
REMARK  9 active torsions:
REMARK  status: ('A' for Active; 'I' for Inactive)
REMARK    1  A    between atoms: C_1  and  C_2
REMARK    2  A    between atoms: C_7  and  C_8
REMARK    3  A    between atoms: C_9  and  C_10
REMARK    4  A    between atoms: C_13  and  N_14
REMARK    5  A    between atoms: N_17  and  C_18
REMARK    6  A    between atoms: C_18  and  C_19
REMARK    7  A    between atoms: C_19  and  O_20
REMARK    8  A    between atoms: O_20  and  C_21
REMARK    9  A    between atoms: C_21  and  C_23
REMARK                            x       y       z     vdW  Elec       q    Type
REMARK                         _______ _______ _______ _____ _____    ______ ____
ROOT
ATOM      1  C   UNL     1       3.697   5.417  19.094  0.00  0.00    +0.000 A 
ATOM      2  N   UNL     1       4.605   4.457  19.187  0.00  0.00    +0.000 NA
ATOM      3  C   UNL     1       4.065   3.466  19.957  0.00  0.00    +0.000 A 
ATOM      4  C   UNL     1       2.837   3.859  20.402  0.00  0.00    +0.000 A 
ATOM      5  N   UNL     1       2.640   5.151  19.977  0.00  0.00    +0.000 N 
ENDROOT
BRANCH   4   6
ATOM      6  N   UNL     1       1.876   3.089  21.091  0.00  0.00    +0.000 N 
ATOM      7  O   UNL     1       1.951   3.091  22.323  0.00  0.00    +0.000 OA
ATOM      8  O   UNL     1       1.066   2.460  20.402  0.00  0.00    +0.000 OA
ENDBRANCH   4   6
BRANCH   1  10
ATOM      9  C   UNL     1       4.391   6.696  17.088  0.00  0.00    +0.000 C 
ATOM     10  C   UNL     1       3.703   6.555  18.243  0.00  0.00    +0.000 C 
BRANCH   9  17
ATOM     11  C   UNL     1       7.355   6.659  17.563  0.00  0.00    +0.000 C 
ATOM     12  C   UNL     1       6.700   5.860  16.464  0.00  0.00    +0.000 A 
ATOM     13  C   UNL     1       7.551   5.147  15.596  0.00  0.00    +0.000 A 
ATOM     14  C   UNL     1       7.036   4.386  14.551  0.00  0.00    +0.000 A 
ATOM     15  C   UNL     1       5.656   4.346  14.356  0.00  0.00    +0.000 A 
ATOM     16  C   UNL     1       4.804   5.071  15.195  0.00  0.00    +0.000 A 
ATOM     17  C   UNL     1       5.292   5.833  16.269  0.00  0.00    +0.000 A 
ENDBRANCH   9  17
ENDBRANCH   1  10
BRANCH   5  18
ATOM     18  C   UNL     1       1.468   5.965  20.277  0.00  0.00    +0.000 C 
BRANCH  18  19
ATOM     19  C   UNL     1       1.780   7.377  20.811  0.00  0.00    +0.000 C 
BRANCH  19  20
ATOM     20  O   UNL     1       0.666   7.912  21.580  0.00  0.00    +0.000 OA
BRANCH  20  21
ATOM     21  C   UNL     1       0.939   9.114  22.135  0.00  0.00    +0.000 C 
ATOM     22  O   UNL     1       1.971   9.325  22.765  0.00  0.00    +0.000 OA
BRANCH  21  23
ATOM     23  C   UNL     1      -0.049  10.222  21.920  0.00  0.00    +0.000 A 
ATOM     24  C   UNL     1      -0.830  10.488  23.071  0.00  0.00    +0.000 A 
ATOM     25  C   UNL     1      -1.800  11.480  23.088  0.00  0.00    +0.000 A 
ATOM     26  C   UNL     1      -1.989  12.251  21.954  0.00  0.00    +0.000 A 
ATOM     27  C   UNL     1      -1.217  12.034  20.811  0.00  0.00    +0.000 A 
ATOM     28  C   UNL     1      -0.258  11.007  20.762  0.00  0.00    +0.000 A 
ATOM     29  O   UNL     1       0.431  10.738  19.614  0.00  0.00    +0.000 OA
ATOM     30  C   UNL     1       0.391  11.770  18.622  0.00  0.00    +0.000 C 
ATOM     31  C   UNL     1      -0.863  12.630  18.564  0.00  0.00    +0.000 C 
ATOM     32  O   UNL     1      -1.477  12.916  19.807  0.00  0.00    +0.000 OA
ENDBRANCH  21  23
ENDBRANCH  20  21
ENDBRANCH  19  20
ENDBRANCH  18  19
ENDBRANCH   5  18
TORSDOF 8
ENDMDL
MODEL 7
REMARK VINA RESULT:      -8.0      2.184      4.437
REMARK  Name = 
REMARK  9 active torsions:
REMARK  status: ('A' for Active; 'I' for Inactive)
REMARK    1  A    between atoms: C_1  and  C_2
REMARK    2  A    between atoms: C_7  and  C_8
REMARK    3  A    between atoms: C_9  and  C_10
REMARK    4  A    between atoms: C_13  and  N_14
REMARK    5  A    between atoms: N_17  and  C_18
REMARK    6  A    between atoms: C_18  and  C_19
REMARK    7  A    between atoms: C_19  and  O_20
REMARK    8  A    between atoms: O_20  and  C_21
REMARK    9  A    between atoms: C_21  and  C_23
REMARK                            x       y       z     vdW  Elec       q    Type
REMARK                         _______ _______ _______ _____ _____    ______ ____
ROOT
ATOM      1  C   UNL     1       4.316   3.907  19.456  0.00  0.00    +0.000 A 
ATOM      2  N   UNL     1       4.504   2.657  19.056  0.00  0.00    +0.000 NA
ATOM      3  C   UNL     1       3.274   2.137  18.772  0.00  0.00    +0.000 A 
ATOM      4  C   UNL     1       2.313   3.057  19.071  0.00  0.00    +0.000 A 
ATOM      5  N   UNL     1       2.945   4.140  19.635  0.00  0.00    +0.000 N 
ENDROOT
BRANCH   4   6
ATOM      6  N   UNL     1       0.933   2.995  18.789  0.00  0.00    +0.000 N 
ATOM      7  O   UNL     1       0.240   2.347  19.579  0.00  0.00    +0.000 OA
ATOM      8  O   UNL     1       0.545   3.567  17.766  0.00  0.00    +0.000 OA
ENDBRANCH   4   6
BRANCH   1  10
ATOM      9  C   UNL     1       6.071   5.498  18.727  0.00  0.00    +0.000 C 
ATOM     10  C   UNL     1       5.290   4.919  19.667  0.00  0.00    +0.000 C 
BRANCH   9  17
ATOM     11  C   UNL     1       4.425   7.200  16.883  0.00  0.00    +0.000 C 
ATOM     12  C   UNL     1       5.395   6.163  16.378  0.00  0.00    +0.000 A 
ATOM     13  C   UNL     1       5.444   5.955  14.984  0.00  0.00    +0.000 A 
ATOM     14  C   UNL     1       6.306   5.015  14.429  0.00  0.00    +0.000 A 
ATOM     15  C   UNL     1       7.121   4.259  15.271  0.00  0.00    +0.000 A 
ATOM     16  C   UNL     1       7.062   4.439  16.656  0.00  0.00    +0.000 A 
ATOM     17  C   UNL     1       6.216   5.392  17.246  0.00  0.00    +0.000 A 
ENDBRANCH   9  17
ENDBRANCH   1  10
BRANCH   5  18
ATOM     18  C   UNL     1       2.276   5.333  20.142  0.00  0.00    +0.000 C 
BRANCH  18  19
ATOM     19  C   UNL     1       2.135   6.479  19.121  0.00  0.00    +0.000 C 
BRANCH  19  20
ATOM     20  O   UNL     1       2.429   7.769  19.727  0.00  0.00    +0.000 OA
BRANCH  20  21
ATOM     21  C   UNL     1       1.544   8.730  19.377  0.00  0.00    +0.000 C 
ATOM     22  O   UNL     1       1.290   8.989  18.204  0.00  0.00    +0.000 OA
BRANCH  21  23
ATOM     23  C   UNL     1       0.829   9.454  20.478  0.00  0.00    +0.000 A 
ATOM     24  C   UNL     1       0.175   8.575  21.376  0.00  0.00    +0.000 A 
ATOM     25  C   UNL     1      -0.540   9.040  22.470  0.00  0.00    +0.000 A 
ATOM     26  C   UNL     1      -0.591  10.402  22.707  0.00  0.00    +0.000 A 
ATOM     27  C   UNL     1       0.065  11.296  21.858  0.00  0.00    +0.000 A 
ATOM     28  C   UNL     1       0.760  10.846  20.721  0.00  0.00    +0.000 A 
ATOM     29  O   UNL     1       1.324  11.727  19.843  0.00  0.00    +0.000 OA
ATOM     30  C   UNL     1       1.483  13.062  20.335  0.00  0.00    +0.000 C 
ATOM     31  C   UNL     1       0.458  13.557  21.346  0.00  0.00    +0.000 C 
ATOM     32  O   UNL     1      -0.024  12.593  22.263  0.00  0.00    +0.000 OA
ENDBRANCH  21  23
ENDBRANCH  20  21
ENDBRANCH  19  20
ENDBRANCH  18  19
ENDBRANCH   5  18
TORSDOF 8
ENDMDL
MODEL 8
REMARK VINA RESULT:      -7.9      2.380      4.590
REMARK  Name = 
REMARK  9 active torsions:
REMARK  status: ('A' for Active; 'I' for Inactive)
REMARK    1  A    between atoms: C_1  and  C_2
REMARK    2  A    between atoms: C_7  and  C_8
REMARK    3  A    between atoms: C_9  and  C_10
REMARK    4  A    between atoms: C_13  and  N_14
REMARK    5  A    between atoms: N_17  and  C_18
REMARK    6  A    between atoms: C_18  and  C_19
REMARK    7  A    between atoms: C_19  and  O_20
REMARK    8  A    between atoms: O_20  and  C_21
REMARK    9  A    between atoms: C_21  and  C_23
REMARK                            x       y       z     vdW  Elec       q    Type
REMARK                         _______ _______ _______ _____ _____    ______ ____
ROOT
ATOM      1  C   UNL     1       4.285   3.526  19.306  0.00  0.00    +0.000 A 
ATOM      2  N   UNL     1       4.381   2.417  18.586  0.00  0.00    +0.000 NA
ATOM      3  C   UNL     1       3.108   2.001  18.317  0.00  0.00    +0.000 A 
ATOM      4  C   UNL     1       2.221   2.826  18.943  0.00  0.00    +0.000 A 
ATOM      5  N   UNL     1       2.950   3.723  19.689  0.00  0.00    +0.000 N 
ENDROOT
BRANCH   4   6
ATOM      6  N   UNL     1       0.817   2.855  18.808  0.00  0.00    +0.000 N 
ATOM      7  O   UNL     1       0.174   2.185  19.621  0.00  0.00    +0.000 OA
ATOM      8  O   UNL     1       0.359   3.522  17.875  0.00  0.00    +0.000 OA
ENDBRANCH   4   6
BRANCH   1  10
ATOM      9  C   UNL     1       6.114   5.122  18.807  0.00  0.00    +0.000 C 
ATOM     10  C   UNL     1       5.315   4.438  19.658  0.00  0.00    +0.000 C 
BRANCH   9  17
ATOM     11  C   UNL     1       4.316   6.963  17.262  0.00  0.00    +0.000 C 
ATOM     12  C   UNL     1       5.343   6.084  16.594  0.00  0.00    +0.000 A 
ATOM     13  C   UNL     1       5.376   6.093  15.185  0.00  0.00    +0.000 A 
ATOM     14  C   UNL     1       6.288   5.311  14.484  0.00  0.00    +0.000 A 
ATOM     15  C   UNL     1       7.171   4.497  15.192  0.00  0.00    +0.000 A 
ATOM     16  C   UNL     1       7.129   4.461  16.588  0.00  0.00    +0.000 A 
ATOM     17  C   UNL     1       6.234   5.251  17.326  0.00  0.00    +0.000 A 
ENDBRANCH   9  17
ENDBRANCH   1  10
BRANCH   5  18
ATOM     18  C   UNL     1       2.385   4.754  20.550  0.00  0.00    +0.000 C 
BRANCH  18  19
ATOM     19  C   UNL     1       2.164   6.118  19.867  0.00  0.00    +0.000 C 
BRANCH  19  20
ATOM     20  O   UNL     1       1.650   7.105  20.805  0.00  0.00    +0.000 OA
BRANCH  20  21
ATOM     21  C   UNL     1       1.395   8.300  20.226  0.00  0.00    +0.000 C 
ATOM     22  O   UNL     1       1.823   8.592  19.114  0.00  0.00    +0.000 OA
BRANCH  21  23
ATOM     23  C   UNL     1       0.519   9.263  20.970  0.00  0.00    +0.000 A 
ATOM     24  C   UNL     1       0.517   9.032  22.368  0.00  0.00    +0.000 A 
ATOM     25  C   UNL     1      -0.223   9.814  23.242  0.00  0.00    +0.000 A 
ATOM     26  C   UNL     1      -0.960  10.870  22.735  0.00  0.00    +0.000 A 
ATOM     27  C   UNL     1      -0.959  11.144  21.365  0.00  0.00    +0.000 A 
ATOM     28  C   UNL     1      -0.247  10.336  20.460  0.00  0.00    +0.000 A 
ATOM     29  O   UNL     1      -0.321  10.551  19.113  0.00  0.00    +0.000 OA
ATOM     30  C   UNL     1      -0.840  11.828  18.726  0.00  0.00    +0.000 C 
ATOM     31  C   UNL     1      -1.866  12.470  19.649  0.00  0.00    +0.000 C 
ATOM     32  O   UNL     1      -1.677  12.253  21.034  0.00  0.00    +0.000 OA
ENDBRANCH  21  23
ENDBRANCH  20  21
ENDBRANCH  19  20
ENDBRANCH  18  19
ENDBRANCH   5  18
TORSDOF 8
ENDMDL
MODEL 9
REMARK VINA RESULT:      -7.9      2.638      4.819
REMARK  Name = 
REMARK  9 active torsions:
REMARK  status: ('A' for Active; 'I' for Inactive)
REMARK    1  A    between atoms: C_1  and  C_2
REMARK    2  A    between atoms: C_7  and  C_8
REMARK    3  A    between atoms: C_9  and  C_10
REMARK    4  A    between atoms: C_13  and  N_14
REMARK    5  A    between atoms: N_17  and  C_18
REMARK    6  A    between atoms: C_18  and  C_19
REMARK    7  A    between atoms: C_19  and  O_20
REMARK    8  A    between atoms: O_20  and  C_21
REMARK    9  A    between atoms: C_21  and  C_23
REMARK                            x       y       z     vdW  Elec       q    Type
REMARK                         _______ _______ _______ _____ _____    ______ ____
ROOT
ATOM      1  C   UNL     1       4.580   4.368  19.488  0.00  0.00    +0.000 A 
ATOM      2  N   UNL     1       4.810   3.080  19.278  0.00  0.00    +0.000 NA
ATOM      3  C   UNL     1       3.594   2.464  19.192  0.00  0.00    +0.000 A 
ATOM      4  C   UNL     1       2.607   3.376  19.425  0.00  0.00    +0.000 A 
ATOM      5  N   UNL     1       3.216   4.565  19.749  0.00  0.00    +0.000 N 
ENDROOT
BRANCH   4   6
ATOM      6  N   UNL     1       1.214   3.205  19.281  0.00  0.00    +0.000 N 
ATOM      7  O   UNL     1       0.771   3.262  18.130  0.00  0.00    +0.000 OA
ATOM      8  O   UNL     1       0.561   3.043  20.316  0.00  0.00    +0.000 OA
ENDBRANCH   4   6
BRANCH   1  10
ATOM      9  C   UNL     1       6.210   5.864  18.371  0.00  0.00    +0.000 C 
ATOM     10  C   UNL     1       5.506   5.445  19.446  0.00  0.00    +0.000 C 
BRANCH   9  17
ATOM     11  C   UNL     1       4.546   7.251  16.293  0.00  0.00    +0.000 C 
ATOM     12  C   UNL     1       5.464   6.102  15.962  0.00  0.00    +0.000 A 
ATOM     13  C   UNL     1       5.452   5.635  14.632  0.00  0.00    +0.000 A 
ATOM     14  C   UNL     1       6.263   4.577  14.236  0.00  0.00    +0.000 A 
ATOM     15  C   UNL     1       7.087   3.962  15.178  0.00  0.00    +0.000 A 
ATOM     16  C   UNL     1       7.087   4.400  16.505  0.00  0.00    +0.000 A 
ATOM     17  C   UNL     1       6.294   5.477  16.932  0.00  0.00    +0.000 A 
ENDBRANCH   9  17
ENDBRANCH   1  10
BRANCH   5  18
ATOM     18  C   UNL     1       2.521   5.793  20.115  0.00  0.00    +0.000 C 
BRANCH  18  19
ATOM     19  C   UNL     1       2.379   6.822  18.976  0.00  0.00    +0.000 C 
BRANCH  19  20
ATOM     20  O   UNL     1       2.115   8.156  19.495  0.00  0.00    +0.000 OA
BRANCH  20  21
ATOM     21  C   UNL     1       1.568   8.980  18.574  0.00  0.00    +0.000 C 
ATOM     22  O   UNL     1       1.867   8.924  17.385  0.00  0.00    +0.000 OA
BRANCH  21  23
ATOM     23  C   UNL     1       0.528   9.956  19.041  0.00  0.00    +0.000 A 
ATOM     24  C   UNL     1       0.911  10.637  20.222  0.00  0.00    +0.000 A 
ATOM     25  C   UNL     1       0.096  11.588  20.819  0.00  0.00    +0.000 A 
ATOM     26  C   UNL     1      -1.114  11.900  20.225  0.00  0.00    +0.000 A 
ATOM     27  C   UNL     1      -1.510  11.268  19.045  0.00  0.00    +0.000 A 
ATOM     28  C   UNL     1      -0.716  10.272  18.448  0.00  0.00    +0.000 A 
ATOM     29  O   UNL     1      -1.147   9.592  17.345  0.00  0.00    +0.000 OA
ATOM     30  C   UNL     1      -2.239  10.196  16.643  0.00  0.00    +0.000 C 
ATOM     31  C   UNL     1      -3.233  11.003  17.466  0.00  0.00    +0.000 C 
ATOM     32  O   UNL     1      -2.691  11.732  18.551  0.00  0.00    +0.000 OA
ENDBRANCH  21  23
ENDBRANCH  20  21
ENDBRANCH  19  20
ENDBRANCH  18  19
ENDBRANCH   5  18
TORSDOF 8
ENDMDL
