MODEL 1
REMARK VINA RESULT:      -8.2      0.000      0.000
REMARK  Name = 
REMARK  5 active torsions:
REMARK  status: ('A' for Active; 'I' for Inactive)
REMARK    1  A    between atoms: C_1  and  O_2
REMARK    2  A    between atoms: O_2  and  C_3
REMARK    3  A    between atoms: C_8  and  C_9
REMARK    4  A    between atoms: C_10  and  N_11
REMARK    5  A    between atoms: N_11  and  C_12
REMARK                            x       y       z     vdW  Elec       q    Type
REMARK                         _______ _______ _______ _____ _____    ______ ____
ROOT
ATOM      1  C   UNL     1       3.729   3.888  18.448  0.00  0.00    +0.000 C 
ATOM      2  C   UNL     1       3.255   4.643  19.444  0.00  0.00    +0.000 C 
ATOM      3  C   UNL     1       2.274   3.804  20.195  0.00  0.00    +0.000 C 
ATOM      4  O   UNL     1       1.669   4.131  21.203  0.00  0.00    +0.000 OA
ATOM      5  N   UNL     1       2.212   2.611  19.567  0.00  0.00    +0.000 N 
ATOM      6  C   UNL     1       3.078   2.566  18.533  0.00  0.00    +0.000 C 
ATOM      7  O   UNL     1       3.313   1.600  17.835  0.00  0.00    +0.000 OA
ATOM      8  H   UNL     1       1.658   1.828  19.868  0.00  0.00    +0.000 HD
ENDROOT
BRANCH   1  14
ATOM      9  C   UNL     1       6.106   4.549  17.940  0.00  0.00    +0.000 A 
ATOM     10  C   UNL     1       7.097   4.824  16.984  0.00  0.00    +0.000 A 
ATOM     11  C   UNL     1       6.790   4.850  15.629  0.00  0.00    +0.000 A 
ATOM     12  C   UNL     1       5.501   4.562  15.207  0.00  0.00    +0.000 A 
ATOM     13  C   UNL     1       4.516   4.230  16.146  0.00  0.00    +0.000 A 
ATOM     14  C   UNL     1       4.815   4.215  17.523  0.00  0.00    +0.000 A 
BRANCH   9  16
ATOM     15  C   UNL     1       7.409   5.562  19.615  0.00  0.00    +0.000 C 
ATOM     16  O   UNL     1       6.384   4.617  19.290  0.00  0.00    +0.000 OA
ENDBRANCH   9  16
ENDBRANCH   1  14
BRANCH   2  17
ATOM     17  N   UNL     1       3.591   5.928  19.827  0.00  0.00    +0.000 N 
ATOM     18  H   UNL     1       3.796   6.003  20.822  0.00  0.00    +0.000 HD
BRANCH  17  19
ATOM     19  C   UNL     1       2.866   7.071  19.400  0.00  0.00    +0.000 A 
ATOM     20  C   UNL     1       2.996   7.477  18.061  0.00  0.00    +0.000 A 
ATOM     21  C   UNL     1       2.215   8.513  17.540  0.00  0.00    +0.000 A 
ATOM     22  C   UNL     1       1.289   9.159  18.354  0.00  0.00    +0.000 A 
ATOM     23  C   UNL     1       1.170   8.776  19.684  0.00  0.00    +0.000 A 
ATOM     24  F   UNL     1       0.294   9.411  20.473  0.00  0.00    +0.000 F 
ATOM     25  C   UNL     1       1.939   7.741  20.207  0.00  0.00    +0.000 A 
ENDBRANCH  17  19
ENDBRANCH   2  17
TORSDOF 4
ENDMDL
MODEL 2
REMARK VINA RESULT:      -8.1      0.828      1.308
REMARK  Name = 
REMARK  5 active torsions:
REMARK  status: ('A' for Active; 'I' for Inactive)
REMARK    1  A    between atoms: C_1  and  O_2
REMARK    2  A    between atoms: O_2  and  C_3
REMARK    3  A    between atoms: C_8  and  C_9
REMARK    4  A    between atoms: C_10  and  N_11
REMARK    5  A    between atoms: N_11  and  C_12
REMARK                            x       y       z     vdW  Elec       q    Type
REMARK                         _______ _______ _______ _____ _____    ______ ____
ROOT
ATOM      1  C   UNL     1       3.788   3.849  18.468  0.00  0.00    +0.000 C 
ATOM      2  C   UNL     1       3.281   4.575  19.468  0.00  0.00    +0.000 C 
ATOM      3  C   UNL     1       2.338   3.689  20.213  0.00  0.00    +0.000 C 
ATOM      4  O   UNL     1       1.719   3.982  21.223  0.00  0.00    +0.000 OA
ATOM      5  N   UNL     1       2.329   2.499  19.577  0.00  0.00    +0.000 N 
ATOM      6  C   UNL     1       3.196   2.499  18.544  0.00  0.00    +0.000 C 
ATOM      7  O   UNL     1       3.474   1.550  17.840  0.00  0.00    +0.000 OA
ATOM      8  H   UNL     1       1.811   1.690  19.873  0.00  0.00    +0.000 HD
ENDROOT
BRANCH   1  14
ATOM      9  C   UNL     1       6.140   4.598  17.964  0.00  0.00    +0.000 A 
ATOM     10  C   UNL     1       7.117   4.924  17.009  0.00  0.00    +0.000 A 
ATOM     11  C   UNL     1       6.802   4.968  15.656  0.00  0.00    +0.000 A 
ATOM     12  C   UNL     1       5.522   4.647  15.234  0.00  0.00    +0.000 A 
ATOM     13  C   UNL     1       4.553   4.264  16.170  0.00  0.00    +0.000 A 
ATOM     14  C   UNL     1       4.858   4.230  17.545  0.00  0.00    +0.000 A 
BRANCH   9  16
ATOM     15  C   UNL     1       7.476   5.557  19.644  0.00  0.00    +0.000 C 
ATOM     16  O   UNL     1       6.421   4.647  19.314  0.00  0.00    +0.000 OA
ENDBRANCH   9  16
ENDBRANCH   1  14
BRANCH   2  17
ATOM     17  N   UNL     1       3.560   5.872  19.860  0.00  0.00    +0.000 N 
ATOM     18  H   UNL     1       3.929   5.928  20.808  0.00  0.00    +0.000 HD
BRANCH  17  19
ATOM     19  C   UNL     1       2.668   6.952  19.630  0.00  0.00    +0.000 A 
ATOM     20  C   UNL     1       1.871   7.393  20.700  0.00  0.00    +0.000 A 
ATOM     21  C   UNL     1       1.068   8.531  20.581  0.00  0.00    +0.000 A 
ATOM     22  C   UNL     1       1.049   9.246  19.387  0.00  0.00    +0.000 A 
ATOM     23  C   UNL     1       1.818   8.803  18.319  0.00  0.00    +0.000 A 
ATOM     24  F   UNL     1       1.786   9.478  17.163  0.00  0.00    +0.000 F 
ATOM     25  C   UNL     1       2.627   7.676  18.431  0.00  0.00    +0.000 A 
ENDBRANCH  17  19
ENDBRANCH   2  17
TORSDOF 4
ENDMDL
MODEL 3
REMARK VINA RESULT:      -8.1      1.421      2.269
REMARK  Name = 
REMARK  5 active torsions:
REMARK  status: ('A' for Active; 'I' for Inactive)
REMARK    1  A    between atoms: C_1  and  O_2
REMARK    2  A    between atoms: O_2  and  C_3
REMARK    3  A    between atoms: C_8  and  C_9
REMARK    4  A    between atoms: C_10  and  N_11
REMARK    5  A    between atoms: N_11  and  C_12
REMARK                            x       y       z     vdW  Elec       q    Type
REMARK                         _______ _______ _______ _____ _____    ______ ____
ROOT
ATOM      1  C   UNL     1       4.046   4.795  18.466  0.00  0.00    +0.000 C 
ATOM      2  C   UNL     1       3.011   5.131  19.242  0.00  0.00    +0.000 C 
ATOM      3  C   UNL     1       1.984   4.060  19.083  0.00  0.00    +0.000 C 
ATOM      4  O   UNL     1       0.918   3.990  19.672  0.00  0.00    +0.000 OA
ATOM      5  N   UNL     1       2.473   3.173  18.191  0.00  0.00    +0.000 N 
ATOM      6  C   UNL     1       3.717   3.520  17.802  0.00  0.00    +0.000 C 
ATOM      7  O   UNL     1       4.448   2.875  17.077  0.00  0.00    +0.000 OA
ATOM      8  H   UNL     1       2.015   2.323  17.911  0.00  0.00    +0.000 HD
ENDROOT
BRANCH   1  14
ATOM      9  C   UNL     1       5.748   6.248  17.310  0.00  0.00    +0.000 A 
ATOM     10  C   UNL     1       7.009   6.867  17.327  0.00  0.00    +0.000 A 
ATOM     11  C   UNL     1       7.902   6.630  18.366  0.00  0.00    +0.000 A 
ATOM     12  C   UNL     1       7.534   5.809  19.420  0.00  0.00    +0.000 A 
ATOM     13  C   UNL     1       6.258   5.232  19.444  0.00  0.00    +0.000 A 
ATOM     14  C   UNL     1       5.351   5.454  18.388  0.00  0.00    +0.000 A 
BRANCH   9  16
ATOM     15  C   UNL     1       5.349   5.740  15.049  0.00  0.00    +0.000 C 
ATOM     16  O   UNL     1       4.897   6.403  16.235  0.00  0.00    +0.000 OA
ENDBRANCH   9  16
ENDBRANCH   1  14
BRANCH   2  17
ATOM     17  N   UNL     1       2.855   6.198  20.107  0.00  0.00    +0.000 N 
ATOM     18  H   UNL     1       2.487   5.920  21.016  0.00  0.00    +0.000 HD
BRANCH  17  19
ATOM     19  C   UNL     1       2.269   7.428  19.711  0.00  0.00    +0.000 A 
ATOM     20  C   UNL     1       2.387   7.816  18.365  0.00  0.00    +0.000 A 
ATOM     21  C   UNL     1       1.727   8.948  17.878  0.00  0.00    +0.000 A 
ATOM     22  C   UNL     1       0.936   9.711  18.732  0.00  0.00    +0.000 A 
ATOM     23  C   UNL     1       0.832   9.345  20.067  0.00  0.00    +0.000 A 
ATOM     24  F   UNL     1       0.087  10.089  20.896  0.00  0.00    +0.000 F 
ATOM     25  C   UNL     1       1.480   8.215  20.559  0.00  0.00    +0.000 A 
ENDBRANCH  17  19
ENDBRANCH   2  17
TORSDOF 4
ENDMDL
MODEL 4
REMARK VINA RESULT:      -8.0      1.673      2.655
REMARK  Name = 
REMARK  5 active torsions:
REMARK  status: ('A' for Active; 'I' for Inactive)
REMARK    1  A    between atoms: C_1  and  O_2
REMARK    2  A    between atoms: O_2  and  C_3
REMARK    3  A    between atoms: C_8  and  C_9
REMARK    4  A    between atoms: C_10  and  N_11
REMARK    5  A    between atoms: N_11  and  C_12
REMARK                            x       y       z     vdW  Elec       q    Type
REMARK                         _______ _______ _______ _____ _____    ______ ____
ROOT
ATOM      1  C   UNL     1       4.148   4.791  18.372  0.00  0.00    +0.000 C 
ATOM      2  C   UNL     1       3.105   5.024  19.174  0.00  0.00    +0.000 C 
ATOM      3  C   UNL     1       2.116   3.933  18.928  0.00  0.00    +0.000 C 
ATOM      4  O   UNL     1       1.056   3.776  19.511  0.00  0.00    +0.000 OA
ATOM      5  N   UNL     1       2.633   3.141  17.966  0.00  0.00    +0.000 N 
ATOM      6  C   UNL     1       3.862   3.564  17.604  0.00  0.00    +0.000 C 
ATOM      7  O   UNL     1       4.613   3.008  16.827  0.00  0.00    +0.000 OA
ATOM      8  H   UNL     1       2.205   2.301  17.617  0.00  0.00    +0.000 HD
ENDROOT
BRANCH   1  14
ATOM      9  C   UNL     1       5.789   6.400  17.341  0.00  0.00    +0.000 A 
ATOM     10  C   UNL     1       7.027   7.060  17.408  0.00  0.00    +0.000 A 
ATOM     11  C   UNL     1       7.935   6.766  18.418  0.00  0.00    +0.000 A 
ATOM     12  C   UNL     1       7.604   5.843  19.398  0.00  0.00    +0.000 A 
ATOM     13  C   UNL     1       6.349   5.221  19.376  0.00  0.00    +0.000 A 
ATOM     14  C   UNL     1       5.428   5.501  18.347  0.00  0.00    +0.000 A 
BRANCH   9  16
ATOM     15  C   UNL     1       5.320   5.953  15.080  0.00  0.00    +0.000 C 
ATOM     16  O   UNL     1       4.926   6.617  16.286  0.00  0.00    +0.000 OA
ENDBRANCH   9  16
ENDBRANCH   1  14
BRANCH   2  17
ATOM     17  N   UNL     1       2.914   6.009  20.125  0.00  0.00    +0.000 N 
ATOM     18  H   UNL     1       2.638   5.636  21.032  0.00  0.00    +0.000 HD
BRANCH  17  19
ATOM     19  C   UNL     1       2.192   7.202  19.860  0.00  0.00    +0.000 A 
ATOM     20  C   UNL     1       1.449   7.775  20.907  0.00  0.00    +0.000 A 
ATOM     21  C   UNL     1       0.821   9.014  20.755  0.00  0.00    +0.000 A 
ATOM     22  C   UNL     1       0.925   9.700  19.548  0.00  0.00    +0.000 A 
ATOM     23  C   UNL     1       1.639   9.130  18.503  0.00  0.00    +0.000 A 
ATOM     24  F   UNL     1       1.724   9.781  17.335  0.00  0.00    +0.000 F 
ATOM     25  C   UNL     1       2.275   7.901  18.649  0.00  0.00    +0.000 A 
ENDBRANCH  17  19
ENDBRANCH   2  17
TORSDOF 4
ENDMDL
MODEL 5
REMARK VINA RESULT:      -7.7      2.352      4.848
REMARK  Name = 
REMARK  5 active torsions:
REMARK  status: ('A' for Active; 'I' for Inactive)
REMARK    1  A    between atoms: C_1  and  O_2
REMARK    2  A    between atoms: O_2  and  C_3
REMARK    3  A    between atoms: C_8  and  C_9
REMARK    4  A    between atoms: C_10  and  N_11
REMARK    5  A    between atoms: N_11  and  C_12
REMARK                            x       y       z     vdW  Elec       q    Type
REMARK                         _______ _______ _______ _____ _____    ______ ____
ROOT
ATOM      1  C   UNL     1       2.723   3.811  18.672  0.00  0.00    +0.000 C 
ATOM      2  C   UNL     1       3.859   3.111  18.748  0.00  0.00    +0.000 C 
ATOM      3  C   UNL     1       3.562   1.745  18.226  0.00  0.00    +0.000 C 
ATOM      4  O   UNL     1       4.364   0.835  18.090  0.00  0.00    +0.000 OA
ATOM      5  N   UNL     1       2.252   1.721  17.903  0.00  0.00    +0.000 N 
ATOM      6  C   UNL     1       1.685   2.928  18.106  0.00  0.00    +0.000 C 
ATOM      7  O   UNL     1       0.545   3.241  17.826  0.00  0.00    +0.000 OA
ATOM      8  H   UNL     1       1.773   0.938  17.491  0.00  0.00    +0.000 HD
ENDROOT
BRANCH   1  14
ATOM      9  C   UNL     1       1.909   5.736  20.078  0.00  0.00    +0.000 A 
ATOM     10  C   UNL     1       1.797   7.124  20.264  0.00  0.00    +0.000 A 
ATOM     11  C   UNL     1       2.228   8.009  19.283  0.00  0.00    +0.000 A 
ATOM     12  C   UNL     1       2.813   7.525  18.124  0.00  0.00    +0.000 A 
ATOM     13  C   UNL     1       2.984   6.146  17.951  0.00  0.00    +0.000 A 
ATOM     14  C   UNL     1       2.538   5.239  18.934  0.00  0.00    +0.000 A 
BRANCH   9  16
ATOM     15  C   UNL     1       2.401   4.139  21.732  0.00  0.00    +0.000 C 
ATOM     16  O   UNL     1       1.395   4.852  21.005  0.00  0.00    +0.000 OA
ENDBRANCH   9  16
ENDBRANCH   1  14
BRANCH   2  17
ATOM     17  N   UNL     1       5.122   3.504  19.150  0.00  0.00    +0.000 N 
ATOM     18  H   UNL     1       5.161   3.759  20.136  0.00  0.00    +0.000 HD
BRANCH  17  19
ATOM     19  C   UNL     1       5.926   4.394  18.393  0.00  0.00    +0.000 A 
ATOM     20  C   UNL     1       5.812   4.364  16.993  0.00  0.00    +0.000 A 
ATOM     21  C   UNL     1       6.476   5.298  16.192  0.00  0.00    +0.000 A 
ATOM     22  C   UNL     1       7.267   6.279  16.783  0.00  0.00    +0.000 A 
ATOM     23  C   UNL     1       7.401   6.302  18.165  0.00  0.00    +0.000 A 
ATOM     24  F   UNL     1       8.178   7.234  18.734  0.00  0.00    +0.000 F 
ATOM     25  C   UNL     1       6.737   5.381  18.969  0.00  0.00    +0.000 A 
ENDBRANCH  17  19
ENDBRANCH   2  17
TORSDOF 4
ENDMDL
MODEL 6
REMARK VINA RESULT:      -7.7      1.475      2.275
REMARK  Name = 
REMARK  5 active torsions:
REMARK  status: ('A' for Active; 'I' for Inactive)
REMARK    1  A    between atoms: C_1  and  O_2
REMARK    2  A    between atoms: O_2  and  C_3
REMARK    3  A    between atoms: C_8  and  C_9
REMARK    4  A    between atoms: C_10  and  N_11
REMARK    5  A    between atoms: N_11  and  C_12
REMARK                            x       y       z     vdW  Elec       q    Type
REMARK                         _______ _______ _______ _____ _____    ______ ____
ROOT
ATOM      1  C   UNL     1       4.176   3.874  18.872  0.00  0.00    +0.000 C 
ATOM      2  C   UNL     1       2.921   4.280  18.654  0.00  0.00    +0.000 C 
ATOM      3  C   UNL     1       2.026   3.331  19.380  0.00  0.00    +0.000 C 
ATOM      4  O   UNL     1       0.810   3.403  19.458  0.00  0.00    +0.000 OA
ATOM      5  N   UNL     1       2.818   2.402  19.956  0.00  0.00    +0.000 N 
ATOM      6  C   UNL     1       4.120   2.675  19.731  0.00  0.00    +0.000 C 
ATOM      7  O   UNL     1       5.070   2.074  20.192  0.00  0.00    +0.000 OA
ATOM      8  H   UNL     1       2.497   1.651  20.542  0.00  0.00    +0.000 HD
ENDROOT
BRANCH   1  14
ATOM      9  C   UNL     1       5.942   4.519  17.196  0.00  0.00    +0.000 A 
ATOM     10  C   UNL     1       7.121   5.227  16.906  0.00  0.00    +0.000 A 
ATOM     11  C   UNL     1       7.812   5.896  17.908  0.00  0.00    +0.000 A 
ATOM     12  C   UNL     1       7.317   5.905  19.203  0.00  0.00    +0.000 A 
ATOM     13  C   UNL     1       6.113   5.252  19.495  0.00  0.00    +0.000 A 
ATOM     14  C   UNL     1       5.411   4.558  18.488  0.00  0.00    +0.000 A 
BRANCH   9  16
ATOM     15  C   UNL     1       5.983   3.779  14.965  0.00  0.00    +0.000 C 
ATOM     16  O   UNL     1       5.305   3.773  16.226  0.00  0.00    +0.000 OA
ENDBRANCH   9  16
ENDBRANCH   1  14
BRANCH   2  17
ATOM     17  N   UNL     1       2.447   5.382  17.968  0.00  0.00    +0.000 N 
ATOM     18  H   UNL     1       2.917   5.524  17.075  0.00  0.00    +0.000 HD
BRANCH  17  19
ATOM     19  C   UNL     1       2.219   6.636  18.592  0.00  0.00    +0.000 A 
ATOM     20  C   UNL     1       2.114   7.775  17.775  0.00  0.00    +0.000 A 
ATOM     21  C   UNL     1       1.763   9.018  18.309  0.00  0.00    +0.000 A 
ATOM     22  C   UNL     1       1.511   9.141  19.673  0.00  0.00    +0.000 A 
ATOM     23  C   UNL     1       1.633   8.024  20.489  0.00  0.00    +0.000 A 
ATOM     24  F   UNL     1       1.411   8.145  21.804  0.00  0.00    +0.000 F 
ATOM     25  C   UNL     1       1.975   6.781  19.964  0.00  0.00    +0.000 A 
ENDBRANCH  17  19
ENDBRANCH   2  17
TORSDOF 4
ENDMDL
MODEL 7
REMARK VINA RESULT:      -7.6      2.405      4.975
REMARK  Name = 
REMARK  5 active torsions:
REMARK  status: ('A' for Active; 'I' for Inactive)
REMARK    1  A    between atoms: C_1  and  O_2
REMARK    2  A    between atoms: O_2  and  C_3
REMARK    3  A    between atoms: C_8  and  C_9
REMARK    4  A    between atoms: C_10  and  N_11
REMARK    5  A    between atoms: N_11  and  C_12
REMARK                            x       y       z     vdW  Elec       q    Type
REMARK                         _______ _______ _______ _____ _____    ______ ____
ROOT
ATOM      1  C   UNL     1       2.522   3.839  19.050  0.00  0.00    +0.000 C 
ATOM      2  C   UNL     1       3.683   3.179  19.099  0.00  0.00    +0.000 C 
ATOM      3  C   UNL     1       3.448   1.840  18.482  0.00  0.00    +0.000 C 
ATOM      4  O   UNL     1       4.286   0.972  18.300  0.00  0.00    +0.000 OA
ATOM      5  N   UNL     1       2.144   1.787  18.137  0.00  0.00    +0.000 N 
ATOM      6  C   UNL     1       1.528   2.956  18.409  0.00  0.00    +0.000 C 
ATOM      7  O   UNL     1       0.380   3.244  18.133  0.00  0.00    +0.000 OA
ATOM      8  H   UNL     1       1.701   1.017  17.667  0.00  0.00    +0.000 HD
ENDROOT
BRANCH   1  14
ATOM      9  C   UNL     1       2.638   6.311  18.584  0.00  0.00    +0.000 A 
ATOM     10  C   UNL     1       2.342   7.624  18.987  0.00  0.00    +0.000 A 
ATOM     11  C   UNL     1       1.772   7.874  20.230  0.00  0.00    +0.000 A 
ATOM     12  C   UNL     1       1.451   6.819  21.068  0.00  0.00    +0.000 A 
ATOM     13  C   UNL     1       1.687   5.502  20.655  0.00  0.00    +0.000 A 
ATOM     14  C   UNL     1       2.278   5.238  19.403  0.00  0.00    +0.000 A 
BRANCH   9  16
ATOM     15  C   UNL     1       4.064   7.176  16.926  0.00  0.00    +0.000 C 
ATOM     16  O   UNL     1       3.292   6.064  17.394  0.00  0.00    +0.000 OA
ENDBRANCH   9  16
ENDBRANCH   1  14
BRANCH   2  17
ATOM     17  N   UNL     1       4.924   3.591  19.546  0.00  0.00    +0.000 N 
ATOM     18  H   UNL     1       4.890   4.014  20.473  0.00  0.00    +0.000 HD
BRANCH  17  19
ATOM     19  C   UNL     1       5.837   4.306  18.728  0.00  0.00    +0.000 A 
ATOM     20  C   UNL     1       5.885   3.994  17.358  0.00  0.00    +0.000 A 
ATOM     21  C   UNL     1       6.665   4.743  16.472  0.00  0.00    +0.000 A 
ATOM     22  C   UNL     1       7.411   5.818  16.945  0.00  0.00    +0.000 A 
ATOM     23  C   UNL     1       7.385   6.119  18.300  0.00  0.00    +0.000 A 
ATOM     24  F   UNL     1       8.118   7.141  18.760  0.00  0.00    +0.000 F 
ATOM     25  C   UNL     1       6.605   5.383  19.188  0.00  0.00    +0.000 A 
ENDBRANCH  17  19
ENDBRANCH   2  17
TORSDOF 4
ENDMDL
MODEL 8
REMARK VINA RESULT:      -7.6      2.570      5.017
REMARK  Name = 
REMARK  5 active torsions:
REMARK  status: ('A' for Active; 'I' for Inactive)
REMARK    1  A    between atoms: C_1  and  O_2
REMARK    2  A    between atoms: O_2  and  C_3
REMARK    3  A    between atoms: C_8  and  C_9
REMARK    4  A    between atoms: C_10  and  N_11
REMARK    5  A    between atoms: N_11  and  C_12
REMARK                            x       y       z     vdW  Elec       q    Type
REMARK                         _______ _______ _______ _____ _____    ______ ____
ROOT
ATOM      1  C   UNL     1       2.705   3.724  18.716  0.00  0.00    +0.000 C 
ATOM      2  C   UNL     1       3.849   3.032  18.745  0.00  0.00    +0.000 C 
ATOM      3  C   UNL     1       3.535   1.654  18.266  0.00  0.00    +0.000 C 
ATOM      4  O   UNL     1       4.335   0.746  18.107  0.00  0.00    +0.000 OA
ATOM      5  N   UNL     1       2.209   1.615  18.015  0.00  0.00    +0.000 N 
ATOM      6  C   UNL     1       1.645   2.823  18.223  0.00  0.00    +0.000 C 
ATOM      7  O   UNL     1       0.490   3.124  17.999  0.00  0.00    +0.000 OA
ATOM      8  H   UNL     1       1.714   0.822  17.644  0.00  0.00    +0.000 HD
ENDROOT
BRANCH   1  14
ATOM      9  C   UNL     1       1.908   5.669  20.103  0.00  0.00    +0.000 A 
ATOM     10  C   UNL     1       1.799   7.060  20.270  0.00  0.00    +0.000 A 
ATOM     11  C   UNL     1       2.221   7.931  19.272  0.00  0.00    +0.000 A 
ATOM     12  C   UNL     1       2.794   7.429  18.114  0.00  0.00    +0.000 A 
ATOM     13  C   UNL     1       2.961   6.047  17.959  0.00  0.00    +0.000 A 
ATOM     14  C   UNL     1       2.524   5.155  18.959  0.00  0.00    +0.000 A 
BRANCH   9  16
ATOM     15  C   UNL     1       2.416   4.084  21.763  0.00  0.00    +0.000 C 
ATOM     16  O   UNL     1       1.404   4.799  21.048  0.00  0.00    +0.000 OA
ENDBRANCH   9  16
ENDBRANCH   1  14
BRANCH   2  17
ATOM     17  N   UNL     1       5.129   3.440  19.072  0.00  0.00    +0.000 N 
ATOM     18  H   UNL     1       5.248   3.608  20.070  0.00  0.00    +0.000 HD
BRANCH  17  19
ATOM     19  C   UNL     1       5.831   4.428  18.334  0.00  0.00    +0.000 A 
ATOM     20  C   UNL     1       6.495   5.441  19.047  0.00  0.00    +0.000 A 
ATOM     21  C   UNL     1       7.311   6.370  18.394  0.00  0.00    +0.000 A 
ATOM     22  C   UNL     1       7.474   6.298  17.013  0.00  0.00    +0.000 A 
ATOM     23  C   UNL     1       6.805   5.313  16.300  0.00  0.00    +0.000 A 
ATOM     24  F   UNL     1       6.945   5.255  14.969  0.00  0.00    +0.000 F 
ATOM     25  C   UNL     1       5.997   4.380  16.944  0.00  0.00    +0.000 A 
ENDBRANCH  17  19
ENDBRANCH   2  17
TORSDOF 4
ENDMDL
MODEL 9
REMARK VINA RESULT:      -7.6      2.685      5.160
REMARK  Name = 
REMARK  5 active torsions:
REMARK  status: ('A' for Active; 'I' for Inactive)
REMARK    1  A    between atoms: C_1  and  O_2
REMARK    2  A    between atoms: O_2  and  C_3
REMARK    3  A    between atoms: C_8  and  C_9
REMARK    4  A    between atoms: C_10  and  N_11
REMARK    5  A    between atoms: N_11  and  C_12
REMARK                            x       y       z     vdW  Elec       q    Type
REMARK                         _______ _______ _______ _____ _____    ______ ____
ROOT
ATOM      1  C   UNL     1       2.499   3.781  19.064  0.00  0.00    +0.000 C 
ATOM      2  C   UNL     1       3.651   3.105  19.115  0.00  0.00    +0.000 C 
ATOM      3  C   UNL     1       3.388   1.755  18.538  0.00  0.00    +0.000 C 
ATOM      4  O   UNL     1       4.211   0.870  18.368  0.00  0.00    +0.000 OA
ATOM      5  N   UNL     1       2.079   1.712  18.211  0.00  0.00    +0.000 N 
ATOM      6  C   UNL     1       1.484   2.897  18.460  0.00  0.00    +0.000 C 
ATOM      7  O   UNL     1       0.337   3.194  18.191  0.00  0.00    +0.000 OA
ATOM      8  H   UNL     1       1.619   0.936  17.767  0.00  0.00    +0.000 HD
ENDROOT
BRANCH   1  14
ATOM      9  C   UNL     1       2.644   6.239  18.530  0.00  0.00    +0.000 A 
ATOM     10  C   UNL     1       2.373   7.566  18.902  0.00  0.00    +0.000 A 
ATOM     11  C   UNL     1       1.825   7.858  20.145  0.00  0.00    +0.000 A 
ATOM     12  C   UNL     1       1.500   6.829  21.016  0.00  0.00    +0.000 A 
ATOM     13  C   UNL     1       1.712   5.498  20.635  0.00  0.00    +0.000 A 
ATOM     14  C   UNL     1       2.281   5.193  19.382  0.00  0.00    +0.000 A 
BRANCH   9  16
ATOM     15  C   UNL     1       4.110   7.014  16.863  0.00  0.00    +0.000 C 
ATOM     16  O   UNL     1       3.277   5.950  17.339  0.00  0.00    +0.000 OA
ENDBRANCH   9  16
ENDBRANCH   1  14
BRANCH   2  17
ATOM     17  N   UNL     1       4.904   3.511  19.536  0.00  0.00    +0.000 N 
ATOM     18  H   UNL     1       4.908   3.849  20.498  0.00  0.00    +0.000 HD
BRANCH  17  19
ATOM     19  C   UNL     1       5.756   4.321  18.741  0.00  0.00    +0.000 A 
ATOM     20  C   UNL     1       6.392   5.415  19.353  0.00  0.00    +0.000 A 
ATOM     21  C   UNL     1       7.342   6.176  18.665  0.00  0.00    +0.000 A 
ATOM     22  C   UNL     1       7.670   5.854  17.352  0.00  0.00    +0.000 A 
ATOM     23  C   UNL     1       7.031   4.787  16.735  0.00  0.00    +0.000 A 
ATOM     24  F   UNL     1       7.331   4.488  15.464  0.00  0.00    +0.000 F 
ATOM     25  C   UNL     1       6.090   4.019  17.415  0.00  0.00    +0.000 A 
ENDBRANCH  17  19
ENDBRANCH   2  17
TORSDOF 4
ENDMDL
