MODEL 1
REMARK VINA RESULT:      -8.9      0.000      0.000
REMARK  Name = 
REMARK  6 active torsions:
REMARK  status: ('A' for Active; 'I' for Inactive)
REMARK    1  A    between atoms: C_1  and  C_2
REMARK    2  A    between atoms: C_2  and  C_3
REMARK    3  A    between atoms: N_5  and  C_6
REMARK    4  A    between atoms: N_9  and  C_10
REMARK    5  A    between atoms: C_10  and  C_11
REMARK    6  A    between atoms: C_10  and  C_17
REMARK                            x       y       z     vdW  Elec       q    Type
REMARK                         _______ _______ _______ _____ _____    ______ ____
ROOT
ATOM      1  C   UNL     1       2.654   6.109  18.706  0.00  0.00    +0.000 C 
ENDROOT
BRANCH   1   2
ATOM      2  C   UNL     1       2.108   7.449  19.260  0.00  0.00    +0.000 A 
ATOM      3  C   UNL     1       1.835   7.618  20.632  0.00  0.00    +0.000 A 
ATOM      4  C   UNL     1       1.190   8.769  21.100  0.00  0.00    +0.000 A 
ATOM      5  C   UNL     1       0.838   9.775  20.208  0.00  0.00    +0.000 A 
ATOM      6  F   UNL     1       0.156  10.841  20.645  0.00  0.00    +0.000 F 
ATOM      7  C   UNL     1       1.193   9.690  18.875  0.00  0.00    +0.000 A 
ATOM      8  C   UNL     1       1.864   8.558  18.427  0.00  0.00    +0.000 A 
ATOM      9  F   UNL     1       2.239   8.543  17.140  0.00  0.00    +0.000 F 
ENDBRANCH   1   2
BRANCH   1  13
ATOM     10  C   UNL     1       6.645   5.430  17.041  0.00  0.00    +0.000 C 
ATOM     11  C   UNL     1       6.272   4.804  18.382  0.00  0.00    +0.000 C 
ATOM     12  C   UNL     1       4.760   4.790  18.582  0.00  0.00    +0.000 C 
ATOM     13  N   UNL     1       4.157   6.128  18.494  0.00  0.00    +0.000 NA
ATOM     14  C   UNL     1       4.516   6.806  17.229  0.00  0.00    +0.000 C 
ATOM     15  C   UNL     1       6.025   6.827  16.954  0.00  0.00    +0.000 C 
BRANCH  10  18
ATOM     16  C   UNL     1       6.796   4.686  14.664  0.00  0.00    +0.000 C 
ATOM     17  O   UNL     1       7.710   5.462  14.406  0.00  0.00    +0.000 OA
ATOM     18  N   UNL     1       6.237   4.576  15.920  0.00  0.00    +0.000 N 
ATOM     19  H   UNL     1       5.369   4.062  15.990  0.00  0.00    +0.000 HD
BRANCH  16  21
ATOM     20  C   UNL     1       6.840   3.851  12.288  0.00  0.00    +0.000 C 
ATOM     21  C   UNL     1       6.175   3.751  13.650  0.00  0.00    +0.000 C 
ENDBRANCH  16  21
ENDBRANCH  10  18
ENDBRANCH   1  13
BRANCH   1  22
ATOM     22  C   UNL     1       2.189   4.855  19.480  0.00  0.00    +0.000 A 
ATOM     23  C   UNL     1       1.349   3.907  18.888  0.00  0.00    +0.000 A 
ATOM     24  N   UNL     1       0.869   2.822  19.534  0.00  0.00    +0.000 NA
ATOM     25  C   UNL     1       1.272   2.699  20.814  0.00  0.00    +0.000 A 
ATOM     26  C   UNL     1       2.087   3.634  21.429  0.00  0.00    +0.000 A 
ATOM     27  N   UNL     1       2.556   4.729  20.787  0.00  0.00    +0.000 NA
ENDBRANCH   1  22
TORSDOF 5
ENDMDL
MODEL 2
REMARK VINA RESULT:      -8.5      3.511      6.846
REMARK  Name = 
REMARK  6 active torsions:
REMARK  status: ('A' for Active; 'I' for Inactive)
REMARK    1  A    between atoms: C_1  and  C_2
REMARK    2  A    between atoms: C_2  and  C_3
REMARK    3  A    between atoms: N_5  and  C_6
REMARK    4  A    between atoms: N_9  and  C_10
REMARK    5  A    between atoms: C_10  and  C_11
REMARK    6  A    between atoms: C_10  and  C_17
REMARK                            x       y       z     vdW  Elec       q    Type
REMARK                         _______ _______ _______ _____ _____    ______ ____
ROOT
ATOM      1  C   UNL     1       2.894   6.371  18.261  0.00  0.00    +0.000 C 
ENDROOT
BRANCH   1   2
ATOM      2  C   UNL     1       2.318   5.284  19.203  0.00  0.00    +0.000 A 
ATOM      3  C   UNL     1       2.598   5.287  20.583  0.00  0.00    +0.000 A 
ATOM      4  C   UNL     1       2.214   4.216  21.397  0.00  0.00    +0.000 A 
ATOM      5  C   UNL     1       1.520   3.144  20.848  0.00  0.00    +0.000 A 
ATOM      6  F   UNL     1       1.217   2.087  21.611  0.00  0.00    +0.000 F 
ATOM      7  C   UNL     1       1.131   3.163  19.522  0.00  0.00    +0.000 A 
ATOM      8  C   UNL     1       1.489   4.248  18.730  0.00  0.00    +0.000 A 
ATOM      9  F   UNL     1       1.042   4.252  17.466  0.00  0.00    +0.000 F 
ENDBRANCH   1   2
BRANCH   1  13
ATOM     10  C   UNL     1       0.778  10.108  19.105  0.00  0.00    +0.000 C 
ATOM     11  C   UNL     1       1.900  10.095  18.070  0.00  0.00    +0.000 C 
ATOM     12  C   UNL     1       2.212   8.675  17.613  0.00  0.00    +0.000 C 
ATOM     13  N   UNL     1       2.574   7.781  18.724  0.00  0.00    +0.000 NA
ATOM     14  C   UNL     1       1.540   7.780  19.782  0.00  0.00    +0.000 C 
ATOM     15  C   UNL     1       1.159   9.186  20.265  0.00  0.00    +0.000 C 
BRANCH  10  18
ATOM     16  C   UNL     1      -1.413  10.673  18.055  0.00  0.00    +0.000 C 
ATOM     17  O   UNL     1      -1.190  11.879  18.071  0.00  0.00    +0.000 OA
ATOM     18  N   UNL     1      -0.507   9.736  18.505  0.00  0.00    +0.000 N 
ATOM     19  H   UNL     1      -0.851   8.794  18.637  0.00  0.00    +0.000 HD
BRANCH  16  21
ATOM     20  C   UNL     1      -2.736  10.000  16.019  0.00  0.00    +0.000 C 
ATOM     21  C   UNL     1      -2.697  10.062  17.537  0.00  0.00    +0.000 C 
ENDBRANCH  16  21
ENDBRANCH  10  18
ENDBRANCH   1  13
BRANCH   1  22
ATOM     22  C   UNL     1       4.389   6.196  17.913  0.00  0.00    +0.000 A 
ATOM     23  C   UNL     1       4.904   6.625  16.686  0.00  0.00    +0.000 A 
ATOM     24  N   UNL     1       6.189   6.448  16.308  0.00  0.00    +0.000 NA
ATOM     25  C   UNL     1       6.968   5.829  17.217  0.00  0.00    +0.000 A 
ATOM     26  C   UNL     1       6.478   5.377  18.431  0.00  0.00    +0.000 A 
ATOM     27  N   UNL     1       5.187   5.540  18.803  0.00  0.00    +0.000 NA
ENDBRANCH   1  22
TORSDOF 5
ENDMDL
MODEL 3
REMARK VINA RESULT:      -8.4      2.281      4.370
REMARK  Name = 
REMARK  6 active torsions:
REMARK  status: ('A' for Active; 'I' for Inactive)
REMARK    1  A    between atoms: C_1  and  C_2
REMARK    2  A    between atoms: C_2  and  C_3
REMARK    3  A    between atoms: N_5  and  C_6
REMARK    4  A    between atoms: N_9  and  C_10
REMARK    5  A    between atoms: C_10  and  C_11
REMARK    6  A    between atoms: C_10  and  C_17
REMARK                            x       y       z     vdW  Elec       q    Type
REMARK                         _______ _______ _______ _____ _____    ______ ____
ROOT
ATOM      1  C   UNL     1       3.242   6.250  19.549  0.00  0.00    +0.000 C 
ENDROOT
BRANCH   1   2
ATOM      2  C   UNL     1       2.540   4.905  19.237  0.00  0.00    +0.000 A 
ATOM      3  C   UNL     1       2.399   4.440  17.915  0.00  0.00    +0.000 A 
ATOM      4  C   UNL     1       1.623   3.312  17.628  0.00  0.00    +0.000 A 
ATOM      5  C   UNL     1       1.004   2.618  18.660  0.00  0.00    +0.000 A 
ATOM      6  F   UNL     1       0.202   1.583  18.378  0.00  0.00    +0.000 F 
ATOM      7  C   UNL     1       1.214   2.980  19.977  0.00  0.00    +0.000 A 
ATOM      8  C   UNL     1       2.015   4.082  20.253  0.00  0.00    +0.000 A 
ATOM      9  F   UNL     1       2.239   4.363  21.545  0.00  0.00    +0.000 F 
ENDBRANCH   1   2
BRANCH   1  13
ATOM     10  C   UNL     1       6.824   5.622  17.113  0.00  0.00    +0.000 C 
ATOM     11  C   UNL     1       6.760   5.039  18.523  0.00  0.00    +0.000 C 
ATOM     12  C   UNL     1       5.325   4.989  19.034  0.00  0.00    +0.000 C 
ATOM     13  N   UNL     1       4.667   6.305  19.028  0.00  0.00    +0.000 NA
ATOM     14  C   UNL     1       4.731   6.941  17.695  0.00  0.00    +0.000 C 
ATOM     15  C   UNL     1       6.149   6.995  17.111  0.00  0.00    +0.000 C 
BRANCH  10  18
ATOM     16  C   UNL     1       6.652   4.653  14.821  0.00  0.00    +0.000 C 
ATOM     17  O   UNL     1       7.595   5.311  14.396  0.00  0.00    +0.000 OA
ATOM     18  N   UNL     1       6.226   4.712  16.131  0.00  0.00    +0.000 N 
ATOM     19  H   UNL     1       5.330   4.292  16.339  0.00  0.00    +0.000 HD
BRANCH  16  21
ATOM     20  C   UNL     1       6.351   3.622  12.542  0.00  0.00    +0.000 C 
ATOM     21  C   UNL     1       5.847   3.692  13.974  0.00  0.00    +0.000 C 
ENDBRANCH  16  21
ENDBRANCH  10  18
ENDBRANCH   1  13
BRANCH   1  22
ATOM     22  C   UNL     1       2.430   7.505  19.161  0.00  0.00    +0.000 A 
ATOM     23  C   UNL     1       2.491   8.039  17.870  0.00  0.00    +0.000 A 
ATOM     24  N   UNL     1       1.846   9.164  17.491  0.00  0.00    +0.000 NA
ATOM     25  C   UNL     1       1.109   9.748  18.456  0.00  0.00    +0.000 A 
ATOM     26  C   UNL     1       1.047   9.251  19.747  0.00  0.00    +0.000 A 
ATOM     27  N   UNL     1       1.706   8.133  20.131  0.00  0.00    +0.000 NA
ENDBRANCH   1  22
TORSDOF 5
ENDMDL
MODEL 4
REMARK VINA RESULT:      -8.1      3.475      6.892
REMARK  Name = 
REMARK  6 active torsions:
REMARK  status: ('A' for Active; 'I' for Inactive)
REMARK    1  A    between atoms: C_1  and  C_2
REMARK    2  A    between atoms: C_2  and  C_3
REMARK    3  A    between atoms: N_5  and  C_6
REMARK    4  A    between atoms: N_9  and  C_10
REMARK    5  A    between atoms: C_10  and  C_11
REMARK    6  A    between atoms: C_10  and  C_17
REMARK                            x       y       z     vdW  Elec       q    Type
REMARK                         _______ _______ _______ _____ _____    ______ ____
ROOT
ATOM      1  C   UNL     1       2.813   5.987  17.938  0.00  0.00    +0.000 C 
ENDROOT
BRANCH   1   2
ATOM      2  C   UNL     1       2.403   4.886  18.949  0.00  0.00    +0.000 A 
ATOM      3  C   UNL     1       1.240   4.115  18.761  0.00  0.00    +0.000 A 
ATOM      4  C   UNL     1       0.788   3.241  19.756  0.00  0.00    +0.000 A 
ATOM      5  C   UNL     1       1.508   3.106  20.937  0.00  0.00    +0.000 A 
ATOM      6  F   UNL     1       1.037   2.326  21.918  0.00  0.00    +0.000 F 
ATOM      7  C   UNL     1       2.713   3.762  21.105  0.00  0.00    +0.000 A 
ATOM      8  C   UNL     1       3.170   4.602  20.096  0.00  0.00    +0.000 A 
ATOM      9  F   UNL     1       4.370   5.172  20.276  0.00  0.00    +0.000 F 
ENDBRANCH   1   2
BRANCH   1  13
ATOM     10  C   UNL     1       1.120   9.817  19.211  0.00  0.00    +0.000 C 
ATOM     11  C   UNL     1       2.105   9.779  18.044  0.00  0.00    +0.000 C 
ATOM     12  C   UNL     1       2.245   8.367  17.488  0.00  0.00    +0.000 C 
ATOM     13  N   UNL     1       2.665   7.389  18.502  0.00  0.00    +0.000 NA
ATOM     14  C   UNL     1       1.770   7.406  19.680  0.00  0.00    +0.000 C 
ATOM     15  C   UNL     1       1.563   8.807  20.270  0.00  0.00    +0.000 C 
BRANCH  10  18
ATOM     16  C   UNL     1      -1.089  10.592  18.350  0.00  0.00    +0.000 C 
ATOM     17  O   UNL     1      -0.731  11.763  18.280  0.00  0.00    +0.000 OA
ATOM     18  N   UNL     1      -0.254   9.575  18.758  0.00  0.00    +0.000 N 
ATOM     19  H   UNL     1      -0.687   8.686  18.972  0.00  0.00    +0.000 HD
BRANCH  16  21
ATOM     20  C   UNL     1      -2.665   9.948  16.493  0.00  0.00    +0.000 C 
ATOM     21  C   UNL     1      -2.480  10.116  17.991  0.00  0.00    +0.000 C 
ENDBRANCH  16  21
ENDBRANCH  10  18
ENDBRANCH   1  13
BRANCH   1  22
ATOM     22  C   UNL     1       4.190   5.768  17.272  0.00  0.00    +0.000 A 
ATOM     23  C   UNL     1       5.131   6.799  17.195  0.00  0.00    +0.000 A 
ATOM     24  N   UNL     1       6.326   6.680  16.577  0.00  0.00    +0.000 NA
ATOM     25  C   UNL     1       6.568   5.469  16.037  0.00  0.00    +0.000 A 
ATOM     26  C   UNL     1       5.644   4.438  16.082  0.00  0.00    +0.000 A 
ATOM     27  N   UNL     1       4.441   4.562  16.688  0.00  0.00    +0.000 NA
ENDBRANCH   1  22
TORSDOF 5
ENDMDL
MODEL 5
REMARK VINA RESULT:      -8.0      1.099      1.646
REMARK  Name = 
REMARK  6 active torsions:
REMARK  status: ('A' for Active; 'I' for Inactive)
REMARK    1  A    between atoms: C_1  and  C_2
REMARK    2  A    between atoms: C_2  and  C_3
REMARK    3  A    between atoms: N_5  and  C_6
REMARK    4  A    between atoms: N_9  and  C_10
REMARK    5  A    between atoms: C_10  and  C_11
REMARK    6  A    between atoms: C_10  and  C_17
REMARK                            x       y       z     vdW  Elec       q    Type
REMARK                         _______ _______ _______ _____ _____    ______ ____
ROOT
ATOM      1  C   UNL     1       2.687   5.894  18.460  0.00  0.00    +0.000 C 
ENDROOT
BRANCH   1   2
ATOM      2  C   UNL     1       2.105   7.297  18.763  0.00  0.00    +0.000 A 
ATOM      3  C   UNL     1       2.018   8.286  17.764  0.00  0.00    +0.000 A 
ATOM      4  C   UNL     1       1.648   9.598  18.081  0.00  0.00    +0.000 A 
ATOM      5  C   UNL     1       1.330   9.929  19.393  0.00  0.00    +0.000 A 
ATOM      6  F   UNL     1       1.047  11.199  19.709  0.00  0.00    +0.000 F 
ATOM      7  C   UNL     1       1.296   8.957  20.375  0.00  0.00    +0.000 A 
ATOM      8  C   UNL     1       1.633   7.650  20.042  0.00  0.00    +0.000 A 
ATOM      9  F   UNL     1       1.530   6.730  21.011  0.00  0.00    +0.000 F 
ENDBRANCH   1   2
BRANCH   1  13
ATOM     10  C   UNL     1       6.741   5.265  16.932  0.00  0.00    +0.000 C 
ATOM     11  C   UNL     1       6.296   4.550  18.205  0.00  0.00    +0.000 C 
ATOM     12  C   UNL     1       4.778   4.549  18.336  0.00  0.00    +0.000 C 
ATOM     13  N   UNL     1       4.199   5.901  18.318  0.00  0.00    +0.000 NA
ATOM     14  C   UNL     1       4.626   6.662  17.124  0.00  0.00    +0.000 C 
ATOM     15  C   UNL     1       6.147   6.675  16.919  0.00  0.00    +0.000 C 
BRANCH  10  18
ATOM     16  C   UNL     1       6.956   4.727  14.506  0.00  0.00    +0.000 C 
ATOM     17  O   UNL     1       7.859   5.538  14.334  0.00  0.00    +0.000 OA
ATOM     18  N   UNL     1       6.374   4.502  15.735  0.00  0.00    +0.000 N 
ATOM     19  H   UNL     1       5.514   3.968  15.742  0.00  0.00    +0.000 HD
BRANCH  16  21
ATOM     20  C   UNL     1       7.075   4.085  12.072  0.00  0.00    +0.000 C 
ATOM     21  C   UNL     1       6.374   3.869  13.403  0.00  0.00    +0.000 C 
ENDBRANCH  16  21
ENDBRANCH  10  18
ENDBRANCH   1  13
BRANCH   1  22
ATOM     22  C   UNL     1       2.194   4.775  19.404  0.00  0.00    +0.000 A 
ATOM     23  C   UNL     1       2.855   4.495  20.604  0.00  0.00    +0.000 A 
ATOM     24  N   UNL     1       2.501   3.494  21.440  0.00  0.00    +0.000 NA
ATOM     25  C   UNL     1       1.435   2.772  21.042  0.00  0.00    +0.000 A 
ATOM     26  C   UNL     1       0.775   3.017  19.849  0.00  0.00    +0.000 A 
ATOM     27  N   UNL     1       1.139   4.010  19.004  0.00  0.00    +0.000 NA
ENDBRANCH   1  22
TORSDOF 5
ENDMDL
MODEL 6
REMARK VINA RESULT:      -7.9      3.592      7.040
REMARK  Name = 
REMARK  6 active torsions:
REMARK  status: ('A' for Active; 'I' for Inactive)
REMARK    1  A    between atoms: C_1  and  C_2
REMARK    2  A    between atoms: C_2  and  C_3
REMARK    3  A    between atoms: N_5  and  C_6
REMARK    4  A    between atoms: N_9  and  C_10
REMARK    5  A    between atoms: C_10  and  C_11
REMARK    6  A    between atoms: C_10  and  C_17
REMARK                            x       y       z     vdW  Elec       q    Type
REMARK                         _______ _______ _______ _____ _____    ______ ____
ROOT
ATOM      1  C   UNL     1       5.921   4.772  16.445  0.00  0.00    +0.000 C 
ENDROOT
BRANCH   1   2
ATOM      2  C   UNL     1       6.667   5.872  17.241  0.00  0.00    +0.000 A 
ATOM      3  C   UNL     1       6.635   7.221  16.834  0.00  0.00    +0.000 A 
ATOM      4  C   UNL     1       7.442   8.179  17.458  0.00  0.00    +0.000 A 
ATOM      5  C   UNL     1       8.265   7.808  18.514  0.00  0.00    +0.000 A 
ATOM      6  F   UNL     1       9.090   8.708  19.062  0.00  0.00    +0.000 F 
ATOM      7  C   UNL     1       8.236   6.518  19.011  0.00  0.00    +0.000 A 
ATOM      8  C   UNL     1       7.405   5.582  18.405  0.00  0.00    +0.000 A 
ATOM      9  F   UNL     1       7.364   4.360  18.954  0.00  0.00    +0.000 F 
ENDBRANCH   1   2
BRANCH   1  13
ATOM     10  C   UNL     1       1.886   4.633  18.135  0.00  0.00    +0.000 C 
ATOM     11  C   UNL     1       2.289   3.623  17.063  0.00  0.00    +0.000 C 
ATOM     12  C   UNL     1       3.804   3.551  16.916  0.00  0.00    +0.000 C 
ATOM     13  N   UNL     1       4.413   4.853  16.601  0.00  0.00    +0.000 NA
ATOM     14  C   UNL     1       4.026   5.888  17.585  0.00  0.00    +0.000 C 
ATOM     15  C   UNL     1       2.510   5.989  17.801  0.00  0.00    +0.000 C 
BRANCH  10  18
ATOM     16  C   UNL     1       1.407   3.429  20.266  0.00  0.00    +0.000 C 
ATOM     17  O   UNL     1       0.300   3.057  19.890  0.00  0.00    +0.000 OA
ATOM     18  N   UNL     1       2.259   4.168  19.475  0.00  0.00    +0.000 N 
ATOM     19  H   UNL     1       3.055   4.593  19.933  0.00  0.00    +0.000 HD
BRANCH  16  21
ATOM     20  C   UNL     1       3.206   2.227  21.557  0.00  0.00    +0.000 C 
ATOM     21  C   UNL     1       1.978   3.119  21.632  0.00  0.00    +0.000 C 
ENDBRANCH  16  21
ENDBRANCH  10  18
ENDBRANCH   1  13
BRANCH   1  22
ATOM     22  C   UNL     1       6.349   4.645  14.966  0.00  0.00    +0.000 A 
ATOM     23  C   UNL     1       5.635   3.843  14.070  0.00  0.00    +0.000 A 
ATOM     24  N   UNL     1       5.995   3.653  12.782  0.00  0.00    +0.000 NA
ATOM     25  C   UNL     1       7.106   4.313  12.399  0.00  0.00    +0.000 A 
ATOM     26  C   UNL     1       7.842   5.097  13.272  0.00  0.00    +0.000 A 
ATOM     27  N   UNL     1       7.490   5.276  14.567  0.00  0.00    +0.000 NA
ENDBRANCH   1  22
TORSDOF 5
ENDMDL
MODEL 7
REMARK VINA RESULT:      -7.9      1.120      1.499
REMARK  Name = 
REMARK  6 active torsions:
REMARK  status: ('A' for Active; 'I' for Inactive)
REMARK    1  A    between atoms: C_1  and  C_2
REMARK    2  A    between atoms: C_2  and  C_3
REMARK    3  A    between atoms: N_5  and  C_6
REMARK    4  A    between atoms: N_9  and  C_10
REMARK    5  A    between atoms: C_10  and  C_11
REMARK    6  A    between atoms: C_10  and  C_17
REMARK                            x       y       z     vdW  Elec       q    Type
REMARK                         _______ _______ _______ _____ _____    ______ ____
ROOT
ATOM      1  C   UNL     1       2.900   5.709  18.179  0.00  0.00    +0.000 C 
ENDROOT
BRANCH   1   2
ATOM      2  C   UNL     1       2.264   7.053  18.614  0.00  0.00    +0.000 A 
ATOM      3  C   UNL     1       2.030   8.087  17.688  0.00  0.00    +0.000 A 
ATOM      4  C   UNL     1       1.610   9.353  18.114  0.00  0.00    +0.000 A 
ATOM      5  C   UNL     1       1.391   9.590  19.466  0.00  0.00    +0.000 A 
ATOM      6  F   UNL     1       1.061  10.819  19.880  0.00  0.00    +0.000 F 
ATOM      7  C   UNL     1       1.502   8.565  20.387  0.00  0.00    +0.000 A 
ATOM      8  C   UNL     1       1.886   7.303  19.948  0.00  0.00    +0.000 A 
ATOM      9  F   UNL     1       1.925   6.326  20.865  0.00  0.00    +0.000 F 
ENDBRANCH   1   2
BRANCH   1  13
ATOM     10  C   UNL     1       6.986   5.287  16.667  0.00  0.00    +0.000 C 
ATOM     11  C   UNL     1       6.569   4.537  17.930  0.00  0.00    +0.000 C 
ATOM     12  C   UNL     1       5.051   4.464  18.052  0.00  0.00    +0.000 C 
ATOM     13  N   UNL     1       4.411   5.788  18.046  0.00  0.00    +0.000 NA
ATOM     14  C   UNL     1       4.808   6.582  16.863  0.00  0.00    +0.000 C 
ATOM     15  C   UNL     1       6.328   6.668  16.668  0.00  0.00    +0.000 C 
BRANCH  10  18
ATOM     16  C   UNL     1       7.231   4.796  14.234  0.00  0.00    +0.000 C 
ATOM     17  O   UNL     1       8.089   5.657  14.074  0.00  0.00    +0.000 OA
ATOM     18  N   UNL     1       6.661   4.522  15.459  0.00  0.00    +0.000 N 
ATOM     19  H   UNL     1       5.832   3.942  15.459  0.00  0.00    +0.000 HD
BRANCH  16  21
ATOM     20  C   UNL     1       5.182   3.815  13.144  0.00  0.00    +0.000 C 
ATOM     21  C   UNL     1       6.697   3.924  13.119  0.00  0.00    +0.000 C 
ENDBRANCH  16  21
ENDBRANCH  10  18
ENDBRANCH   1  13
BRANCH   1  22
ATOM     22  C   UNL     1       2.450   4.485  19.007  0.00  0.00    +0.000 A 
ATOM     23  C   UNL     1       1.266   3.803  18.710  0.00  0.00    +0.000 A 
ATOM     24  N   UNL     1       0.797   2.763  19.433  0.00  0.00    +0.000 NA
ATOM     25  C   UNL     1       1.569   2.404  20.478  0.00  0.00    +0.000 A 
ATOM     26  C   UNL     1       2.736   3.075  20.805  0.00  0.00    +0.000 A 
ATOM     27  N   UNL     1       3.197   4.127  20.090  0.00  0.00    +0.000 NA
ENDBRANCH   1  22
TORSDOF 5
ENDMDL
MODEL 8
REMARK VINA RESULT:      -7.8      2.096      3.162
REMARK  Name = 
REMARK  6 active torsions:
REMARK  status: ('A' for Active; 'I' for Inactive)
REMARK    1  A    between atoms: C_1  and  C_2
REMARK    2  A    between atoms: C_2  and  C_3
REMARK    3  A    between atoms: N_5  and  C_6
REMARK    4  A    between atoms: N_9  and  C_10
REMARK    5  A    between atoms: C_10  and  C_11
REMARK    6  A    between atoms: C_10  and  C_17
REMARK                            x       y       z     vdW  Elec       q    Type
REMARK                         _______ _______ _______ _____ _____    ______ ____
ROOT
ATOM      1  C   UNL     1       3.207   5.066  17.843  0.00  0.00    +0.000 C 
ENDROOT
BRANCH   1   2
ATOM      2  C   UNL     1       2.802   6.442  18.430  0.00  0.00    +0.000 A 
ATOM      3  C   UNL     1       2.305   6.561  19.743  0.00  0.00    +0.000 A 
ATOM      4  C   UNL     1       1.788   7.775  20.208  0.00  0.00    +0.000 A 
ATOM      5  C   UNL     1       1.790   8.891  19.379  0.00  0.00    +0.000 A 
ATOM      6  F   UNL     1       1.229  10.032  19.798  0.00  0.00    +0.000 F 
ATOM      7  C   UNL     1       2.374   8.836  18.127  0.00  0.00    +0.000 A 
ATOM      8  C   UNL     1       2.915   7.633  17.688  0.00  0.00    +0.000 A 
ATOM      9  F   UNL     1       3.522   7.640  16.493  0.00  0.00    +0.000 F 
ENDBRANCH   1   2
BRANCH   1  13
ATOM     10  C   UNL     1       7.524   5.749  17.598  0.00  0.00    +0.000 C 
ATOM     11  C   UNL     1       6.829   4.924  16.518  0.00  0.00    +0.000 C 
ATOM     12  C   UNL     1       5.322   5.151  16.535  0.00  0.00    +0.000 C 
ATOM     13  N   UNL     1       4.710   4.848  17.837  0.00  0.00    +0.000 NA
ATOM     14  C   UNL     1       5.368   5.590  18.935  0.00  0.00    +0.000 C 
ATOM     15  C   UNL     1       6.894   5.426  18.955  0.00  0.00    +0.000 C 
BRANCH  10  18
ATOM     16  C   UNL     1       8.097   8.130  18.075  0.00  0.00    +0.000 C 
ATOM     17  O   UNL     1       8.789   7.842  19.045  0.00  0.00    +0.000 OA
ATOM     18  N   UNL     1       7.470   7.182  17.293  0.00  0.00    +0.000 N 
ATOM     19  H   UNL     1       6.769   7.516  16.645  0.00  0.00    +0.000 HD
BRANCH  16  21
ATOM     20  C   UNL     1       8.877  10.524  18.156  0.00  0.00    +0.000 C 
ATOM     21  C   UNL     1       7.850   9.547  17.608  0.00  0.00    +0.000 C 
ENDBRANCH  16  21
ENDBRANCH  10  18
ENDBRANCH   1  13
BRANCH   1  22
ATOM     22  C   UNL     1       2.445   3.862  18.439  0.00  0.00    +0.000 A 
ATOM     23  C   UNL     1       1.162   3.524  17.997  0.00  0.00    +0.000 A 
ATOM     24  N   UNL     1       0.429   2.516  18.519  0.00  0.00    +0.000 NA
ATOM     25  C   UNL     1       1.033   1.830  19.510  0.00  0.00    +0.000 A 
ATOM     26  C   UNL     1       2.293   2.158  19.981  0.00  0.00    +0.000 A 
ATOM     27  N   UNL     1       3.021   3.177  19.467  0.00  0.00    +0.000 NA
ENDBRANCH   1  22
TORSDOF 5
ENDMDL
MODEL 9
REMARK VINA RESULT:      -7.7      2.094      4.218
REMARK  Name = 
REMARK  6 active torsions:
REMARK  status: ('A' for Active; 'I' for Inactive)
REMARK    1  A    between atoms: C_1  and  C_2
REMARK    2  A    between atoms: C_2  and  C_3
REMARK    3  A    between atoms: N_5  and  C_6
REMARK    4  A    between atoms: N_9  and  C_10
REMARK    5  A    between atoms: C_10  and  C_11
REMARK    6  A    between atoms: C_10  and  C_17
REMARK                            x       y       z     vdW  Elec       q    Type
REMARK                         _______ _______ _______ _____ _____    ______ ____
ROOT
ATOM      1  C   UNL     1       2.970   6.327  19.654  0.00  0.00    +0.000 C 
ENDROOT
BRANCH   1   2
ATOM      2  C   UNL     1       2.181   5.031  19.339  0.00  0.00    +0.000 A 
ATOM      3  C   UNL     1       1.442   4.363  20.334  0.00  0.00    +0.000 A 
ATOM      4  C   UNL     1       0.870   3.110  20.085  0.00  0.00    +0.000 A 
ATOM      5  C   UNL     1       1.003   2.526  18.831  0.00  0.00    +0.000 A 
ATOM      6  F   UNL     1       0.519   1.296  18.615  0.00  0.00    +0.000 F 
ATOM      7  C   UNL     1       1.624   3.206  17.800  0.00  0.00    +0.000 A 
ATOM      8  C   UNL     1       2.160   4.465  18.049  0.00  0.00    +0.000 A 
ATOM      9  F   UNL     1       2.701   5.112  17.008  0.00  0.00    +0.000 F 
ENDBRANCH   1   2
BRANCH   1  13
ATOM     10  C   UNL     1       6.584   5.479  17.334  0.00  0.00    +0.000 C 
ATOM     11  C   UNL     1       6.384   4.806  18.690  0.00  0.00    +0.000 C 
ATOM     12  C   UNL     1       4.927   4.880  19.133  0.00  0.00    +0.000 C 
ATOM     13  N   UNL     1       4.418   6.258  19.202  0.00  0.00    +0.000 NA
ATOM     14  C   UNL     1       4.620   6.979  17.926  0.00  0.00    +0.000 C 
ATOM     15  C   UNL     1       6.064   6.916  17.410  0.00  0.00    +0.000 C 
BRANCH  10  18
ATOM     16  C   UNL     1       6.454   4.666  14.980  0.00  0.00    +0.000 C 
ATOM     17  O   UNL     1       7.508   5.205  14.661  0.00  0.00    +0.000 OA
ATOM     18  N   UNL     1       5.943   4.716  16.259  0.00  0.00    +0.000 N 
ATOM     19  H   UNL     1       4.984   4.417  16.380  0.00  0.00    +0.000 HD
BRANCH  16  21
ATOM     20  C   UNL     1       6.277   3.636  12.687  0.00  0.00    +0.000 C 
ATOM     21  C   UNL     1       5.590   3.876  14.021  0.00  0.00    +0.000 C 
ENDBRANCH  16  21
ENDBRANCH  10  18
ENDBRANCH   1  13
BRANCH   1  22
ATOM     22  C   UNL     1       2.277   7.630  19.199  0.00  0.00    +0.000 A 
ATOM     23  C   UNL     1       2.417   8.109  17.893  0.00  0.00    +0.000 A 
ATOM     24  N   UNL     1       1.880   9.269  17.456  0.00  0.00    +0.000 NA
ATOM     25  C   UNL     1       1.168   9.947  18.379  0.00  0.00    +0.000 A 
ATOM     26  C   UNL     1       1.031   9.505  19.684  0.00  0.00    +0.000 A 
ATOM     27  N   UNL     1       1.583   8.350  20.125  0.00  0.00    +0.000 NA
ENDBRANCH   1  22
TORSDOF 5
ENDMDL
