MODEL 1
REMARK VINA RESULT:      -7.3      0.000      0.000
REMARK  Name = 
REMARK  5 active torsions:
REMARK  status: ('A' for Active; 'I' for Inactive)
REMARK    1  A    between atoms: C_1  and  C_2
REMARK    2  A    between atoms: C_5  and  C_6
REMARK    3  A    between atoms: C_6  and  O_8
REMARK    4  A    between atoms: C_9  and  C_10
REMARK    5  A    between atoms: C_9  and  C_11
REMARK                            x       y       z     vdW  Elec       q    Type
REMARK                         _______ _______ _______ _____ _____    ______ ____
ROOT
ATOM      1  C   UNL     1       5.634   5.125  14.038  0.00  0.00    +0.000 C 
ATOM      2  C   UNL     1       5.658   4.250  15.297  0.00  0.00    +0.000 C 
ATOM      3  C   UNL     1       7.090   3.989  15.769  0.00  0.00    +0.000 C 
ATOM      4  C   UNL     1       7.483   4.560  17.084  0.00  0.00    +0.000 C 
ATOM      5  C   UNL     1       6.671   5.188  17.957  0.00  0.00    +0.000 C 
ATOM      6  C   UNL     1       5.181   5.392  17.687  0.00  0.00    +0.000 C 
ATOM      7  C   UNL     1       4.991   6.932  17.584  0.00  0.00    +0.000 C 
ATOM      8  C   UNL     1       4.660   4.762  16.349  0.00  0.00    +0.000 C 
ENDROOT
BRANCH   6   9
ATOM      9  C   UNL     1       4.298   4.740  18.785  0.00  0.00    +0.000 A 
ATOM     10  C   UNL     1       3.332   5.471  19.496  0.00  0.00    +0.000 A 
ATOM     11  C   UNL     1       2.530   4.855  20.465  0.00  0.00    +0.000 A 
ATOM     12  C   UNL     1       2.680   3.499  20.736  0.00  0.00    +0.000 A 
ATOM     13 CL   UNL     1       1.700   2.749  21.933  0.00  0.00    +0.000 Cl
ATOM     14  C   UNL     1       3.612   2.746  20.033  0.00  0.00    +0.000 A 
ATOM     15  C   UNL     1       4.400   3.356  19.053  0.00  0.00    +0.000 A 
ENDBRANCH   6   9
BRANCH   5  16
ATOM     16  C   UNL     1       7.385   5.751  19.145  0.00  0.00    +0.000 C 
ATOM     17  O   UNL     1       7.254   5.298  20.275  0.00  0.00    +0.000 OA
BRANCH  16  18
ATOM     18  O   UNL     1       8.204   6.795  18.923  0.00  0.00    +0.000 OA
ATOM     19  H   UNL     1       9.161   6.634  18.967  0.00  0.00    +0.000 HD
ENDBRANCH  16  18
ENDBRANCH   5  16
TORSDOF 3
ENDMDL
MODEL 2
REMARK VINA RESULT:      -7.2      0.130      1.142
REMARK  Name = 
REMARK  5 active torsions:
REMARK  status: ('A' for Active; 'I' for Inactive)
REMARK    1  A    between atoms: C_1  and  C_2
REMARK    2  A    between atoms: C_5  and  C_6
REMARK    3  A    between atoms: C_6  and  O_8
REMARK    4  A    between atoms: C_9  and  C_10
REMARK    5  A    between atoms: C_9  and  C_11
REMARK                            x       y       z     vdW  Elec       q    Type
REMARK                         _______ _______ _______ _____ _____    ______ ____
ROOT
ATOM      1  C   UNL     1       5.744   5.060  13.983  0.00  0.00    +0.000 C 
ATOM      2  C   UNL     1       5.776   4.184  15.241  0.00  0.00    +0.000 C 
ATOM      3  C   UNL     1       7.206   3.991  15.750  0.00  0.00    +0.000 C 
ATOM      4  C   UNL     1       7.535   4.577  17.077  0.00  0.00    +0.000 C 
ATOM      5  C   UNL     1       6.671   5.162  17.929  0.00  0.00    +0.000 C 
ATOM      6  C   UNL     1       5.181   5.295  17.619  0.00  0.00    +0.000 C 
ATOM      7  C   UNL     1       4.920   6.824  17.513  0.00  0.00    +0.000 C 
ATOM      8  C   UNL     1       4.727   4.644  16.267  0.00  0.00    +0.000 C 
ENDROOT
BRANCH   6   9
ATOM      9  C   UNL     1       4.301   4.598  18.692  0.00  0.00    +0.000 A 
ATOM     10  C   UNL     1       4.380   3.217  18.939  0.00  0.00    +0.000 A 
ATOM     11  C   UNL     1       3.594   2.615  19.929  0.00  0.00    +0.000 A 
ATOM     12  C   UNL     1       2.718   3.385  20.688  0.00  0.00    +0.000 A 
ATOM     13 CL   UNL     1       1.748   2.640  21.896  0.00  0.00    +0.000 Cl
ATOM     14  C   UNL     1       2.635   4.757  20.481  0.00  0.00    +0.000 A 
ATOM     15  C   UNL     1       3.433   5.360  19.505  0.00  0.00    +0.000 A 
ENDBRANCH   6   9
BRANCH   5  16
ATOM     16  C   UNL     1       7.325   5.756  19.136  0.00  0.00    +0.000 C 
ATOM     17  O   UNL     1       7.162   5.313  20.265  0.00  0.00    +0.000 OA
BRANCH  16  18
ATOM     18  O   UNL     1       8.127   6.817  18.932  0.00  0.00    +0.000 OA
ATOM     19  H   UNL     1       9.007   6.802  19.345  0.00  0.00    +0.000 HD
ENDBRANCH  16  18
ENDBRANCH   5  16
TORSDOF 3
ENDMDL
MODEL 3
REMARK VINA RESULT:      -7.0      3.396      4.575
REMARK  Name = 
REMARK  5 active torsions:
REMARK  status: ('A' for Active; 'I' for Inactive)
REMARK    1  A    between atoms: C_1  and  C_2
REMARK    2  A    between atoms: C_5  and  C_6
REMARK    3  A    between atoms: C_6  and  O_8
REMARK    4  A    between atoms: C_9  and  C_10
REMARK    5  A    between atoms: C_9  and  C_11
REMARK                            x       y       z     vdW  Elec       q    Type
REMARK                         _______ _______ _______ _____ _____    ______ ____
ROOT
ATOM      1  C   UNL     1       7.578   4.562  17.424  0.00  0.00    +0.000 C 
ATOM      2  C   UNL     1       6.346   5.321  16.919  0.00  0.00    +0.000 C 
ATOM      3  C   UNL     1       5.603   4.526  15.842  0.00  0.00    +0.000 C 
ATOM      4  C   UNL     1       4.232   4.056  16.174  0.00  0.00    +0.000 C 
ATOM      5  C   UNL     1       3.532   4.357  17.286  0.00  0.00    +0.000 C 
ATOM      6  C   UNL     1       4.088   5.262  18.383  0.00  0.00    +0.000 C 
ATOM      7  C   UNL     1       4.216   4.352  19.638  0.00  0.00    +0.000 C 
ATOM      8  C   UNL     1       5.507   5.861  18.089  0.00  0.00    +0.000 C 
ENDROOT
BRANCH   6   9
ATOM      9  C   UNL     1       3.190   6.506  18.620  0.00  0.00    +0.000 A 
ATOM     10  C   UNL     1       2.493   6.704  19.824  0.00  0.00    +0.000 A 
ATOM     11  C   UNL     1       1.709   7.846  20.024  0.00  0.00    +0.000 A 
ATOM     12  C   UNL     1       1.611   8.809  19.024  0.00  0.00    +0.000 A 
ATOM     13 CL   UNL     1       0.638  10.205  19.270  0.00  0.00    +0.000 Cl
ATOM     14  C   UNL     1       2.306   8.651  17.832  0.00  0.00    +0.000 A 
ATOM     15  C   UNL     1       3.104   7.520  17.640  0.00  0.00    +0.000 A 
ENDBRANCH   6   9
BRANCH   5  16
ATOM     16  C   UNL     1       2.223   3.639  17.384  0.00  0.00    +0.000 C 
ATOM     17  O   UNL     1       1.144   4.217  17.347  0.00  0.00    +0.000 OA
BRANCH  16  18
ATOM     18  O   UNL     1       2.272   2.300  17.510  0.00  0.00    +0.000 OA
ATOM     19  H   UNL     1       2.655   1.939  18.327  0.00  0.00    +0.000 HD
ENDBRANCH  16  18
ENDBRANCH   5  16
TORSDOF 3
ENDMDL
MODEL 4
REMARK VINA RESULT:      -7.0      3.394      4.570
REMARK  Name = 
REMARK  5 active torsions:
REMARK  status: ('A' for Active; 'I' for Inactive)
REMARK    1  A    between atoms: C_1  and  C_2
REMARK    2  A    between atoms: C_5  and  C_6
REMARK    3  A    between atoms: C_6  and  O_8
REMARK    4  A    between atoms: C_9  and  C_10
REMARK    5  A    between atoms: C_9  and  C_11
REMARK                            x       y       z     vdW  Elec       q    Type
REMARK                         _______ _______ _______ _____ _____    ______ ____
ROOT
ATOM      1  C   UNL     1       7.596   4.511  17.452  0.00  0.00    +0.000 C 
ATOM      2  C   UNL     1       6.383   5.291  16.930  0.00  0.00    +0.000 C 
ATOM      3  C   UNL     1       5.631   4.502  15.856  0.00  0.00    +0.000 C 
ATOM      4  C   UNL     1       4.248   4.064  16.183  0.00  0.00    +0.000 C 
ATOM      5  C   UNL     1       3.547   4.391  17.287  0.00  0.00    +0.000 C 
ATOM      6  C   UNL     1       4.115   5.294  18.379  0.00  0.00    +0.000 C 
ATOM      7  C   UNL     1       4.215   4.394  19.644  0.00  0.00    +0.000 C 
ATOM      8  C   UNL     1       5.548   5.861  18.090  0.00  0.00    +0.000 C 
ENDROOT
BRANCH   6   9
ATOM      9  C   UNL     1       3.242   6.559  18.598  0.00  0.00    +0.000 A 
ATOM     10  C   UNL     1       3.090   7.541  17.605  0.00  0.00    +0.000 A 
ATOM     11  C   UNL     1       2.278   8.662  17.816  0.00  0.00    +0.000 A 
ATOM     12  C   UNL     1       1.604   8.817  19.024  0.00  0.00    +0.000 A 
ATOM     13 CL   UNL     1       0.615  10.199  19.283  0.00  0.00    +0.000 Cl
ATOM     14  C   UNL     1       1.718   7.851  20.016  0.00  0.00    +0.000 A 
ATOM     15  C   UNL     1       2.514   6.724  19.798  0.00  0.00    +0.000 A 
ENDBRANCH   6   9
BRANCH   5  16
ATOM     16  C   UNL     1       2.222   3.702  17.383  0.00  0.00    +0.000 C 
ATOM     17  O   UNL     1       1.157   4.304  17.354  0.00  0.00    +0.000 OA
BRANCH  16  18
ATOM     18  O   UNL     1       2.241   2.361  17.498  0.00  0.00    +0.000 OA
ATOM     19  H   UNL     1       3.081   1.943  17.750  0.00  0.00    +0.000 HD
ENDBRANCH  16  18
ENDBRANCH   5  16
TORSDOF 3
ENDMDL
MODEL 5
REMARK VINA RESULT:      -6.8      3.414      5.547
REMARK  Name = 
REMARK  5 active torsions:
REMARK  status: ('A' for Active; 'I' for Inactive)
REMARK    1  A    between atoms: C_1  and  C_2
REMARK    2  A    between atoms: C_5  and  C_6
REMARK    3  A    between atoms: C_6  and  O_8
REMARK    4  A    between atoms: C_9  and  C_10
REMARK    5  A    between atoms: C_9  and  C_11
REMARK                            x       y       z     vdW  Elec       q    Type
REMARK                         _______ _______ _______ _____ _____    ______ ____
ROOT
ATOM      1  C   UNL     1       2.258   1.748  19.475  0.00  0.00    +0.000 C 
ATOM      2  C   UNL     1       2.422   2.491  18.144  0.00  0.00    +0.000 C 
ATOM      3  C   UNL     1       1.354   3.573  17.973  0.00  0.00    +0.000 C 
ATOM      4  C   UNL     1       1.820   4.984  17.943  0.00  0.00    +0.000 C 
ATOM      5  C   UNL     1       3.101   5.403  17.936  0.00  0.00    +0.000 C 
ATOM      6  C   UNL     1       4.278   4.430  17.955  0.00  0.00    +0.000 C 
ATOM      7  C   UNL     1       5.005   4.693  19.304  0.00  0.00    +0.000 C 
ATOM      8  C   UNL     1       3.884   2.913  17.919  0.00  0.00    +0.000 C 
ENDROOT
BRANCH   6   9
ATOM      9  C   UNL     1       5.201   4.613  16.719  0.00  0.00    +0.000 A 
ATOM     10  C   UNL     1       6.529   5.055  16.839  0.00  0.00    +0.000 A 
ATOM     11  C   UNL     1       7.350   5.188  15.713  0.00  0.00    +0.000 A 
ATOM     12  C   UNL     1       6.856   4.880  14.449  0.00  0.00    +0.000 A 
ATOM     13 CL   UNL     1       7.864   5.055  13.067  0.00  0.00    +0.000 Cl
ATOM     14  C   UNL     1       5.553   4.419  14.302  0.00  0.00    +0.000 A 
ATOM     15  C   UNL     1       4.740   4.269  15.429  0.00  0.00    +0.000 A 
ENDBRANCH   6   9
BRANCH   5  16
ATOM     16  C   UNL     1       3.249   6.889  18.018  0.00  0.00    +0.000 C 
ATOM     17  O   UNL     1       3.984   7.526  17.275  0.00  0.00    +0.000 OA
BRANCH  16  18
ATOM     18  O   UNL     1       2.521   7.521  18.957  0.00  0.00    +0.000 OA
ATOM     19  H   UNL     1       2.098   6.976  19.641  0.00  0.00    +0.000 HD
ENDBRANCH  16  18
ENDBRANCH   5  16
TORSDOF 3
ENDMDL
MODEL 6
REMARK VINA RESULT:      -6.8      3.408      5.553
REMARK  Name = 
REMARK  5 active torsions:
REMARK  status: ('A' for Active; 'I' for Inactive)
REMARK    1  A    between atoms: C_1  and  C_2
REMARK    2  A    between atoms: C_5  and  C_6
REMARK    3  A    between atoms: C_6  and  O_8
REMARK    4  A    between atoms: C_9  and  C_10
REMARK    5  A    between atoms: C_9  and  C_11
REMARK                            x       y       z     vdW  Elec       q    Type
REMARK                         _______ _______ _______ _____ _____    ______ ____
ROOT
ATOM      1  C   UNL     1       2.207   1.713  19.415  0.00  0.00    +0.000 C 
ATOM      2  C   UNL     1       2.379   2.466  18.091  0.00  0.00    +0.000 C 
ATOM      3  C   UNL     1       1.347   3.585  17.947  0.00  0.00    +0.000 C 
ATOM      4  C   UNL     1       1.860   4.981  17.928  0.00  0.00    +0.000 C 
ATOM      5  C   UNL     1       3.155   5.356  17.909  0.00  0.00    +0.000 C 
ATOM      6  C   UNL     1       4.298   4.343  17.901  0.00  0.00    +0.000 C 
ATOM      7  C   UNL     1       5.050   4.565  19.244  0.00  0.00    +0.000 C 
ATOM      8  C   UNL     1       3.852   2.841  17.852  0.00  0.00    +0.000 C 
ENDROOT
BRANCH   6   9
ATOM      9  C   UNL     1       5.211   4.510  16.656  0.00  0.00    +0.000 A 
ATOM     10  C   UNL     1       4.745   4.271  15.352  0.00  0.00    +0.000 A 
ATOM     11  C   UNL     1       5.579   4.452  14.243  0.00  0.00    +0.000 A 
ATOM     12  C   UNL     1       6.893   4.875  14.420  0.00  0.00    +0.000 A 
ATOM     13 CL   UNL     1       7.917   5.086  13.055  0.00  0.00    +0.000 Cl
ATOM     14  C   UNL     1       7.375   5.140  15.695  0.00  0.00    +0.000 A 
ATOM     15  C   UNL     1       6.536   4.978  16.801  0.00  0.00    +0.000 A 
ENDBRANCH   6   9
BRANCH   5  16
ATOM     16  C   UNL     1       3.354   6.835  18.007  0.00  0.00    +0.000 C 
ATOM     17  O   UNL     1       4.178   7.440  17.335  0.00  0.00    +0.000 OA
BRANCH  16  18
ATOM     18  O   UNL     1       2.571   7.497  18.878  0.00  0.00    +0.000 OA
ATOM     19  H   UNL     1       2.816   8.412  19.098  0.00  0.00    +0.000 HD
ENDBRANCH  16  18
ENDBRANCH   5  16
TORSDOF 3
ENDMDL
MODEL 7
REMARK VINA RESULT:      -6.7      2.953      4.108
REMARK  Name = 
REMARK  5 active torsions:
REMARK  status: ('A' for Active; 'I' for Inactive)
REMARK    1  A    between atoms: C_1  and  C_2
REMARK    2  A    between atoms: C_5  and  C_6
REMARK    3  A    between atoms: C_6  and  O_8
REMARK    4  A    between atoms: C_9  and  C_10
REMARK    5  A    between atoms: C_9  and  C_11
REMARK                            x       y       z     vdW  Elec       q    Type
REMARK                         _______ _______ _______ _____ _____    ______ ____
ROOT
ATOM      1  C   UNL     1       7.805   4.454  17.773  0.00  0.00    +0.000 C 
ATOM      2  C   UNL     1       6.498   5.212  17.512  0.00  0.00    +0.000 C 
ATOM      3  C   UNL     1       5.814   4.724  16.234  0.00  0.00    +0.000 C 
ATOM      4  C   UNL     1       4.498   4.048  16.388  0.00  0.00    +0.000 C 
ATOM      5  C   UNL     1       3.793   3.923  17.529  0.00  0.00    +0.000 C 
ATOM      6  C   UNL     1       4.282   4.492  18.859  0.00  0.00    +0.000 C 
ATOM      7  C   UNL     1       4.516   3.255  19.772  0.00  0.00    +0.000 C 
ATOM      8  C   UNL     1       5.634   5.283  18.782  0.00  0.00    +0.000 C 
ENDROOT
BRANCH   6   9
ATOM      9  C   UNL     1       3.277   5.512  19.459  0.00  0.00    +0.000 A 
ATOM     10  C   UNL     1       3.099   6.794  18.911  0.00  0.00    +0.000 A 
ATOM     11  C   UNL     1       2.168   7.687  19.455  0.00  0.00    +0.000 A 
ATOM     12  C   UNL     1       1.401   7.313  20.553  0.00  0.00    +0.000 A 
ATOM     13 CL   UNL     1       0.266   8.418  21.223  0.00  0.00    +0.000 Cl
ATOM     14  C   UNL     1       1.539   6.044  21.102  0.00  0.00    +0.000 A 
ATOM     15  C   UNL     1       2.455   5.146  20.548  0.00  0.00    +0.000 A 
ENDBRANCH   6   9
BRANCH   5  16
ATOM     16  C   UNL     1       2.558   3.091  17.384  0.00  0.00    +0.000 C 
ATOM     17  O   UNL     1       1.460   3.570  17.132  0.00  0.00    +0.000 OA
BRANCH  16  18
ATOM     18  O   UNL     1       2.699   1.762  17.537  0.00  0.00    +0.000 OA
ATOM     19  H   UNL     1       3.585   1.426  17.757  0.00  0.00    +0.000 HD
ENDBRANCH  16  18
ENDBRANCH   5  16
TORSDOF 3
ENDMDL
MODEL 8
REMARK VINA RESULT:      -6.3      3.182      4.285
REMARK  Name = 
REMARK  5 active torsions:
REMARK  status: ('A' for Active; 'I' for Inactive)
REMARK    1  A    between atoms: C_1  and  C_2
REMARK    2  A    between atoms: C_5  and  C_6
REMARK    3  A    between atoms: C_6  and  O_8
REMARK    4  A    between atoms: C_9  and  C_10
REMARK    5  A    between atoms: C_9  and  C_11
REMARK                            x       y       z     vdW  Elec       q    Type
REMARK                         _______ _______ _______ _____ _____    ______ ____
ROOT
ATOM      1  C   UNL     1       7.135   5.147  15.813  0.00  0.00    +0.000 C 
ATOM      2  C   UNL     1       5.643   5.499  15.815  0.00  0.00    +0.000 C 
ATOM      3  C   UNL     1       4.780   4.280  15.484  0.00  0.00    +0.000 C 
ATOM      4  C   UNL     1       3.881   3.777  16.556  0.00  0.00    +0.000 C 
ATOM      5  C   UNL     1       3.665   4.355  17.754  0.00  0.00    +0.000 C 
ATOM      6  C   UNL     1       4.345   5.658  18.167  0.00  0.00    +0.000 C 
ATOM      7  C   UNL     1       5.251   5.282  19.374  0.00  0.00    +0.000 C 
ATOM      8  C   UNL     1       5.263   6.302  17.071  0.00  0.00    +0.000 C 
ENDROOT
BRANCH   6   9
ATOM      9  C   UNL     1       3.314   6.770  18.502  0.00  0.00    +0.000 A 
ATOM     10  C   UNL     1       2.676   6.845  19.751  0.00  0.00    +0.000 A 
ATOM     11  C   UNL     1       1.768   7.871  20.038  0.00  0.00    +0.000 A 
ATOM     12  C   UNL     1       1.486   8.840  19.081  0.00  0.00    +0.000 A 
ATOM     13 CL   UNL     1       0.362  10.093  19.434  0.00  0.00    +0.000 Cl
ATOM     14  C   UNL     1       2.118   8.805  17.844  0.00  0.00    +0.000 A 
ATOM     15  C   UNL     1       3.038   7.791  17.565  0.00  0.00    +0.000 A 
ENDBRANCH   6   9
BRANCH   5  16
ATOM     16  C   UNL     1       2.792   3.548  18.662  0.00  0.00    +0.000 C 
ATOM     17  O   UNL     1       3.239   2.756  19.481  0.00  0.00    +0.000 OA
BRANCH  16  18
ATOM     18  O   UNL     1       1.463   3.732  18.551  0.00  0.00    +0.000 OA
ATOM     19  H   UNL     1       0.941   3.744  19.370  0.00  0.00    +0.000 HD
ENDBRANCH  16  18
ENDBRANCH   5  16
TORSDOF 3
ENDMDL
MODEL 9
REMARK VINA RESULT:      -6.1      2.683      3.754
REMARK  Name = 
REMARK  5 active torsions:
REMARK  status: ('A' for Active; 'I' for Inactive)
REMARK    1  A    between atoms: C_1  and  C_2
REMARK    2  A    between atoms: C_5  and  C_6
REMARK    3  A    between atoms: C_6  and  O_8
REMARK    4  A    between atoms: C_9  and  C_10
REMARK    5  A    between atoms: C_9  and  C_11
REMARK                            x       y       z     vdW  Elec       q    Type
REMARK                         _______ _______ _______ _____ _____    ______ ____
ROOT
ATOM      1  C   UNL     1       7.106   5.023  14.888  0.00  0.00    +0.000 C 
ATOM      2  C   UNL     1       5.620   5.143  15.244  0.00  0.00    +0.000 C 
ATOM      3  C   UNL     1       4.946   3.771  15.301  0.00  0.00    +0.000 C 
ATOM      4  C   UNL     1       4.442   3.319  16.625  0.00  0.00    +0.000 C 
ATOM      5  C   UNL     1       4.417   4.045  17.760  0.00  0.00    +0.000 C 
ATOM      6  C   UNL     1       4.922   5.485  17.821  0.00  0.00    +0.000 C 
ATOM      7  C   UNL     1       6.146   5.449  18.779  0.00  0.00    +0.000 C 
ATOM      8  C   UNL     1       5.411   6.072  16.452  0.00  0.00    +0.000 C 
ENDROOT
BRANCH   6   9
ATOM      9  C   UNL     1       3.813   6.469  18.283  0.00  0.00    +0.000 A 
ATOM     10  C   UNL     1       3.155   6.325  19.516  0.00  0.00    +0.000 A 
ATOM     11  C   UNL     1       2.175   7.239  19.922  0.00  0.00    +0.000 A 
ATOM     12  C   UNL     1       1.840   8.312  19.102  0.00  0.00    +0.000 A 
ATOM     13 CL   UNL     1       0.629   9.427  19.601  0.00  0.00    +0.000 Cl
ATOM     14  C   UNL     1       2.489   8.492  17.888  0.00  0.00    +0.000 A 
ATOM     15  C   UNL     1       3.480   7.590  17.491  0.00  0.00    +0.000 A 
ENDBRANCH   6   9
BRANCH   5  16
ATOM     16  C   UNL     1       3.955   3.274  18.956  0.00  0.00    +0.000 C 
ATOM     17  O   UNL     1       2.781   3.218  19.298  0.00  0.00    +0.000 OA
BRANCH  16  18
ATOM     18  O   UNL     1       4.899   2.620  19.659  0.00  0.00    +0.000 OA
ATOM     19  H   UNL     1       5.569   2.124  19.160  0.00  0.00    +0.000 HD
ENDBRANCH  16  18
ENDBRANCH   5  16
TORSDOF 3
ENDMDL
