MODEL 1
REMARK VINA RESULT:      -8.0      0.000      0.000
REMARK  Name = 
REMARK  5 active torsions:
REMARK  status: ('A' for Active; 'I' for Inactive)
REMARK    1  A    between atoms: C_1  and  O_2
REMARK    2  A    between atoms: O_2  and  C_3
REMARK    3  A    between atoms: C_14  and  C_15
REMARK    4  A    between atoms: C_15  and  O_16
REMARK    5  A    between atoms: O_16  and  C_17
REMARK                            x       y       z     vdW  Elec       q    Type
REMARK                         _______ _______ _______ _____ _____    ______ ____
ROOT
ATOM      1  C   UNL     1       0.706   9.111  20.053  0.00  0.00    +0.000 A 
ATOM      2  C   UNL     1       0.843   9.827  18.835  0.00  0.00    +0.000 A 
ATOM      3  C   UNL     1       1.750   9.400  17.845  0.00  0.00    +0.000 A 
ATOM      4  C   UNL     1       2.499   8.261  18.112  0.00  0.00    +0.000 A 
ATOM      5  N   UNL     1       3.386   7.639  17.321  0.00  0.00    +0.000 NA
ATOM      6  C   UNL     1       3.814   6.613  18.099  0.00  0.00    +0.000 A 
ATOM      7  N   UNL     1       4.764   5.649  17.673  0.00  0.00    +0.000 N 
ATOM      8  C   UNL     1       5.038   5.444  16.260  0.00  0.00    +0.000 C 
ATOM      9  C   UNL     1       6.521   5.702  16.007  0.00  0.00    +0.000 C 
ATOM     10  N   UNL     1       7.337   4.876  16.913  0.00  0.00    +0.000 NA
ATOM     11  C   UNL     1       7.045   5.200  18.322  0.00  0.00    +0.000 C 
ATOM     12  C   UNL     1       5.565   4.906  18.642  0.00  0.00    +0.000 C 
ATOM     13  O   UNL     1       3.235   6.585  19.288  0.00  0.00    +0.000 OA
ATOM     14  C   UNL     1       2.404   7.592  19.293  0.00  0.00    +0.000 A 
ATOM     15  C   UNL     1       1.519   7.970  20.287  0.00  0.00    +0.000 A 
ATOM     16  H   UNL     1       8.346   5.083  16.726  0.00  0.00    +0.000 HD
ENDROOT
BRANCH   1  18
ATOM     17  C   UNL     1      -0.240  10.790  21.524  0.00  0.00    +0.000 C 
ATOM     18  O   UNL     1      -0.214   9.532  20.956  0.00  0.00    +0.000 OA
ENDBRANCH   1  18
BRANCH  12  19
ATOM     19  C   UNL     1       5.253   3.404  18.584  0.00  0.00    +0.000 C 
BRANCH  19  20
ATOM     20  O   UNL     1       3.890   3.196  18.481  0.00  0.00    +0.000 OA
BRANCH  20  21
ATOM     21  C   UNL     1       3.042   3.085  19.536  0.00  0.00    +0.000 A 
ATOM     22  C   UNL     1       1.685   3.455  19.456  0.00  0.00    +0.000 A 
ATOM     23  C   UNL     1       0.857   3.320  20.568  0.00  0.00    +0.000 A 
ATOM     24  C   UNL     1       1.386   2.818  21.757  0.00  0.00    +0.000 A 
ATOM     25  N   UNL     1       2.697   2.462  21.823  0.00  0.00    +0.000 NA
ATOM     26  C   UNL     1       3.525   2.583  20.751  0.00  0.00    +0.000 A 
ENDBRANCH  20  21
ENDBRANCH  19  20
ENDBRANCH  12  19
TORSDOF 4
ENDMDL
MODEL 2
REMARK VINA RESULT:      -7.9      1.929      4.347
REMARK  Name = 
REMARK  5 active torsions:
REMARK  status: ('A' for Active; 'I' for Inactive)
REMARK    1  A    between atoms: C_1  and  O_2
REMARK    2  A    between atoms: O_2  and  C_3
REMARK    3  A    between atoms: C_14  and  C_15
REMARK    4  A    between atoms: C_15  and  O_16
REMARK    5  A    between atoms: O_16  and  C_17
REMARK                            x       y       z     vdW  Elec       q    Type
REMARK                         _______ _______ _______ _____ _____    ______ ____
ROOT
ATOM      1  C   UNL     1       1.191   9.926  19.270  0.00  0.00    +0.000 A 
ATOM      2  C   UNL     1       0.926   9.532  20.608  0.00  0.00    +0.000 A 
ATOM      3  C   UNL     1       1.221   8.226  21.047  0.00  0.00    +0.000 A 
ATOM      4  C   UNL     1       1.774   7.349  20.122  0.00  0.00    +0.000 A 
ATOM      5  N   UNL     1       2.177   6.084  20.307  0.00  0.00    +0.000 NA
ATOM      6  C   UNL     1       2.606   5.722  19.071  0.00  0.00    +0.000 A 
ATOM      7  N   UNL     1       3.152   4.447  18.772  0.00  0.00    +0.000 N 
ATOM      8  C   UNL     1       3.668   3.590  19.828  0.00  0.00    +0.000 C 
ATOM      9  C   UNL     1       2.900   2.272  19.806  0.00  0.00    +0.000 C 
ATOM     10  N   UNL     1       2.952   1.680  18.458  0.00  0.00    +0.000 NA
ATOM     11  C   UNL     1       2.344   2.586  17.465  0.00  0.00    +0.000 C 
ATOM     12  C   UNL     1       3.121   3.918  17.412  0.00  0.00    +0.000 C 
ATOM     13  O   UNL     1       2.490   6.689  18.176  0.00  0.00    +0.000 OA
ATOM     14  C   UNL     1       1.994   7.707  18.828  0.00  0.00    +0.000 A 
ATOM     15  C   UNL     1       1.730   8.980  18.357  0.00  0.00    +0.000 A 
ATOM     16  H   UNL     1       2.407   0.786  18.471  0.00  0.00    +0.000 HD
ENDROOT
BRANCH   1  18
ATOM     17  C   UNL     1      -0.322  11.713  18.641  0.00  0.00    +0.000 C 
ATOM     18  O   UNL     1       0.935  11.208  18.906  0.00  0.00    +0.000 OA
ENDBRANCH   1  18
BRANCH  12  19
ATOM     19  C   UNL     1       4.540   3.733  16.855  0.00  0.00    +0.000 C 
BRANCH  19  20
ATOM     20  O   UNL     1       5.100   4.957  16.541  0.00  0.00    +0.000 OA
BRANCH  20  21
ATOM     21  C   UNL     1       6.099   5.554  17.242  0.00  0.00    +0.000 A 
ATOM     22  C   UNL     1       6.520   6.873  16.981  0.00  0.00    +0.000 A 
ATOM     23  C   UNL     1       7.549   7.439  17.730  0.00  0.00    +0.000 A 
ATOM     24  C   UNL     1       8.155   6.687  18.737  0.00  0.00    +0.000 A 
ATOM     25  N   UNL     1       7.739   5.416  18.982  0.00  0.00    +0.000 NA
ATOM     26  C   UNL     1       6.737   4.841  18.265  0.00  0.00    +0.000 A 
ENDBRANCH  20  21
ENDBRANCH  19  20
ENDBRANCH  12  19
TORSDOF 4
ENDMDL
MODEL 3
REMARK VINA RESULT:      -7.9      1.037      1.218
REMARK  Name = 
REMARK  5 active torsions:
REMARK  status: ('A' for Active; 'I' for Inactive)
REMARK    1  A    between atoms: C_1  and  O_2
REMARK    2  A    between atoms: O_2  and  C_3
REMARK    3  A    between atoms: C_14  and  C_15
REMARK    4  A    between atoms: C_15  and  O_16
REMARK    5  A    between atoms: O_16  and  C_17
REMARK                            x       y       z     vdW  Elec       q    Type
REMARK                         _______ _______ _______ _____ _____    ______ ____
ROOT
ATOM      1  C   UNL     1       0.768   9.119  20.031  0.00  0.00    +0.000 A 
ATOM      2  C   UNL     1       0.855   9.772  18.774  0.00  0.00    +0.000 A 
ATOM      3  C   UNL     1       1.740   9.311  17.779  0.00  0.00    +0.000 A 
ATOM      4  C   UNL     1       2.520   8.202  18.082  0.00  0.00    +0.000 A 
ATOM      5  N   UNL     1       3.395   7.556  17.298  0.00  0.00    +0.000 NA
ATOM      6  C   UNL     1       3.866   6.580  18.114  0.00  0.00    +0.000 A 
ATOM      7  N   UNL     1       4.823   5.613  17.711  0.00  0.00    +0.000 N 
ATOM      8  C   UNL     1       5.059   5.339  16.302  0.00  0.00    +0.000 C 
ATOM      9  C   UNL     1       6.528   5.611  15.991  0.00  0.00    +0.000 C 
ATOM     10  N   UNL     1       7.387   4.848  16.913  0.00  0.00    +0.000 NA
ATOM     11  C   UNL     1       7.130   5.241  18.312  0.00  0.00    +0.000 C 
ATOM     12  C   UNL     1       5.666   4.936  18.692  0.00  0.00    +0.000 C 
ATOM     13  O   UNL     1       3.324   6.603  19.321  0.00  0.00    +0.000 OA
ATOM     14  C   UNL     1       2.473   7.594  19.299  0.00  0.00    +0.000 A 
ATOM     15  C   UNL     1       1.610   8.006  20.298  0.00  0.00    +0.000 A 
ATOM     16  H   UNL     1       8.385   5.064  16.685  0.00  0.00    +0.000 HD
ENDROOT
BRANCH   1  18
ATOM     17  C   UNL     1      -0.333   9.017  22.188  0.00  0.00    +0.000 C 
ATOM     18  O   UNL     1      -0.134   9.569  20.939  0.00  0.00    +0.000 OA
ENDBRANCH   1  18
BRANCH  12  19
ATOM     19  C   UNL     1       5.383   3.428  18.721  0.00  0.00    +0.000 C 
BRANCH  19  20
ATOM     20  O   UNL     1       4.482   3.124  19.725  0.00  0.00    +0.000 OA
BRANCH  20  21
ATOM     21  C   UNL     1       3.138   3.020  19.553  0.00  0.00    +0.000 A 
ATOM     22  C   UNL     1       2.217   3.438  20.534  0.00  0.00    +0.000 A 
ATOM     23  C   UNL     1       0.849   3.310  20.306  0.00  0.00    +0.000 A 
ATOM     24  C   UNL     1       0.404   2.765  19.102  0.00  0.00    +0.000 A 
ATOM     25  N   UNL     1       1.301   2.368  18.161  0.00  0.00    +0.000 NA
ATOM     26  C   UNL     1       2.642   2.482  18.358  0.00  0.00    +0.000 A 
ENDBRANCH  20  21
ENDBRANCH  19  20
ENDBRANCH  12  19
TORSDOF 4
ENDMDL
MODEL 4
REMARK VINA RESULT:      -7.7      1.900      4.478
REMARK  Name = 
REMARK  5 active torsions:
REMARK  status: ('A' for Active; 'I' for Inactive)
REMARK    1  A    between atoms: C_1  and  O_2
REMARK    2  A    between atoms: O_2  and  C_3
REMARK    3  A    between atoms: C_14  and  C_15
REMARK    4  A    between atoms: C_15  and  O_16
REMARK    5  A    between atoms: O_16  and  C_17
REMARK                            x       y       z     vdW  Elec       q    Type
REMARK                         _______ _______ _______ _____ _____    ______ ____
ROOT
ATOM      1  C   UNL     1       1.166   9.985  19.452  0.00  0.00    +0.000 A 
ATOM      2  C   UNL     1       0.897   9.607  20.794  0.00  0.00    +0.000 A 
ATOM      3  C   UNL     1       1.167   8.299  21.243  0.00  0.00    +0.000 A 
ATOM      4  C   UNL     1       1.697   7.403  20.323  0.00  0.00    +0.000 A 
ATOM      5  N   UNL     1       2.074   6.131  20.517  0.00  0.00    +0.000 NA
ATOM      6  C   UNL     1       2.491   5.750  19.283  0.00  0.00    +0.000 A 
ATOM      7  N   UNL     1       3.008   4.461  18.992  0.00  0.00    +0.000 N 
ATOM      8  C   UNL     1       3.510   3.602  20.053  0.00  0.00    +0.000 C 
ATOM      9  C   UNL     1       2.714   2.300  20.044  0.00  0.00    +0.000 C 
ATOM     10  N   UNL     1       2.749   1.697  18.701  0.00  0.00    +0.000 NA
ATOM     11  C   UNL     1       2.157   2.608  17.703  0.00  0.00    +0.000 C 
ATOM     12  C   UNL     1       2.961   3.922  17.636  0.00  0.00    +0.000 C 
ATOM     13  O   UNL     1       2.391   6.712  18.380  0.00  0.00    +0.000 OA
ATOM     14  C   UNL     1       1.920   7.746  19.025  0.00  0.00    +0.000 A 
ATOM     15  C   UNL     1       1.681   9.021  18.546  0.00  0.00    +0.000 A 
ATOM     16  H   UNL     1       2.185   0.815  18.723  0.00  0.00    +0.000 HD
ENDROOT
BRANCH   1  18
ATOM     17  C   UNL     1      -0.180  12.001  19.432  0.00  0.00    +0.000 C 
ATOM     18  O   UNL     1       0.936  11.268  19.079  0.00  0.00    +0.000 OA
ENDBRANCH   1  18
BRANCH  12  19
ATOM     19  C   UNL     1       4.373   3.702  17.076  0.00  0.00    +0.000 C 
BRANCH  19  20
ATOM     20  O   UNL     1       4.901   4.894  16.613  0.00  0.00    +0.000 OA
BRANCH  20  21
ATOM     21  C   UNL     1       5.915   5.575  17.210  0.00  0.00    +0.000 A 
ATOM     22  C   UNL     1       6.640   5.050  18.297  0.00  0.00    +0.000 A 
ATOM     23  C   UNL     1       7.670   5.790  18.872  0.00  0.00    +0.000 A 
ATOM     24  C   UNL     1       7.974   7.052  18.360  0.00  0.00    +0.000 A 
ATOM     25  N   UNL     1       7.268   7.548  17.309  0.00  0.00    +0.000 NA
ATOM     26  C   UNL     1       6.258   6.845  16.730  0.00  0.00    +0.000 A 
ENDBRANCH  20  21
ENDBRANCH  19  20
ENDBRANCH  12  19
TORSDOF 4
ENDMDL
MODEL 5
REMARK VINA RESULT:      -7.6      1.945      4.831
REMARK  Name = 
REMARK  5 active torsions:
REMARK  status: ('A' for Active; 'I' for Inactive)
REMARK    1  A    between atoms: C_1  and  O_2
REMARK    2  A    between atoms: O_2  and  C_3
REMARK    3  A    between atoms: C_14  and  C_15
REMARK    4  A    between atoms: C_15  and  O_16
REMARK    5  A    between atoms: O_16  and  C_17
REMARK                            x       y       z     vdW  Elec       q    Type
REMARK                         _______ _______ _______ _____ _____    ______ ____
ROOT
ATOM      1  C   UNL     1       1.308  10.798  19.084  0.00  0.00    +0.000 A 
ATOM      2  C   UNL     1       0.733  10.718  20.380  0.00  0.00    +0.000 A 
ATOM      3  C   UNL     1       0.712   9.499  21.087  0.00  0.00    +0.000 A 
ATOM      4  C   UNL     1       1.270   8.389  20.465  0.00  0.00    +0.000 A 
ATOM      5  N   UNL     1       1.408   7.145  20.944  0.00  0.00    +0.000 NA
ATOM      6  C   UNL     1       1.993   6.489  19.910  0.00  0.00    +0.000 A 
ATOM      7  N   UNL     1       2.358   5.118  19.956  0.00  0.00    +0.000 N 
ATOM      8  C   UNL     1       2.512   4.429  21.227  0.00  0.00    +0.000 C 
ATOM      9  C   UNL     1       1.547   3.248  21.262  0.00  0.00    +0.000 C 
ATOM     10  N   UNL     1       1.750   2.396  20.078  0.00  0.00    +0.000 NA
ATOM     11  C   UNL     1       1.504   3.158  18.839  0.00  0.00    +0.000 C 
ATOM     12  C   UNL     1       2.493   4.336  18.731  0.00  0.00    +0.000 C 
ATOM     13  O   UNL     1       2.214   7.263  18.861  0.00  0.00    +0.000 OA
ATOM     14  C   UNL     1       1.787   8.448  19.208  0.00  0.00    +0.000 A 
ATOM     15  C   UNL     1       1.839   9.625  18.484  0.00  0.00    +0.000 A 
ATOM     16  H   UNL     1       1.067   1.604  20.123  0.00  0.00    +0.000 HD
ENDROOT
BRANCH   1  18
ATOM     17  C   UNL     1       2.275  12.992  18.727  0.00  0.00    +0.000 C 
ATOM     18  O   UNL     1       1.349  12.002  18.463  0.00  0.00    +0.000 OA
ENDBRANCH   1  18
BRANCH  12  19
ATOM     19  C   UNL     1       3.938   3.856  18.534  0.00  0.00    +0.000 C 
BRANCH  19  20
ATOM     20  O   UNL     1       4.736   4.893  18.087  0.00  0.00    +0.000 OA
BRANCH  20  21
ATOM     21  C   UNL     1       5.436   4.884  16.923  0.00  0.00    +0.000 A 
ATOM     22  C   UNL     1       5.001   4.176  15.786  0.00  0.00    +0.000 A 
ATOM     23  C   UNL     1       5.756   4.201  14.616  0.00  0.00    +0.000 A 
ATOM     24  C   UNL     1       6.944   4.932  14.584  0.00  0.00    +0.000 A 
ATOM     25  N   UNL     1       7.354   5.614  15.687  0.00  0.00    +0.000 NA
ATOM     26  C   UNL     1       6.634   5.606  16.841  0.00  0.00    +0.000 A 
ENDBRANCH  20  21
ENDBRANCH  19  20
ENDBRANCH  12  19
TORSDOF 4
ENDMDL
MODEL 6
REMARK VINA RESULT:      -7.5      1.934      4.475
REMARK  Name = 
REMARK  5 active torsions:
REMARK  status: ('A' for Active; 'I' for Inactive)
REMARK    1  A    between atoms: C_1  and  O_2
REMARK    2  A    between atoms: O_2  and  C_3
REMARK    3  A    between atoms: C_14  and  C_15
REMARK    4  A    between atoms: C_15  and  O_16
REMARK    5  A    between atoms: O_16  and  C_17
REMARK                            x       y       z     vdW  Elec       q    Type
REMARK                         _______ _______ _______ _____ _____    ______ ____
ROOT
ATOM      1  C   UNL     1       1.836  10.372  18.510  0.00  0.00    +0.000 A 
ATOM      2  C   UNL     1       1.233  10.362  19.795  0.00  0.00    +0.000 A 
ATOM      3  C   UNL     1       1.105   9.163  20.523  0.00  0.00    +0.000 A 
ATOM      4  C   UNL     1       1.586   8.001  19.932  0.00  0.00    +0.000 A 
ATOM      5  N   UNL     1       1.619   6.759  20.435  0.00  0.00    +0.000 NA
ATOM      6  C   UNL     1       2.169   6.040  19.425  0.00  0.00    +0.000 A 
ATOM      7  N   UNL     1       2.426   4.646  19.501  0.00  0.00    +0.000 N 
ATOM      8  C   UNL     1       2.503   3.972  20.788  0.00  0.00    +0.000 C 
ATOM      9  C   UNL     1       1.448   2.870  20.825  0.00  0.00    +0.000 C 
ATOM     10  N   UNL     1       1.606   1.983  19.659  0.00  0.00    +0.000 NA
ATOM     11  C   UNL     1       1.441   2.737  18.403  0.00  0.00    +0.000 C 
ATOM     12  C   UNL     1       2.521   3.833  18.293  0.00  0.00    +0.000 C 
ATOM     13  O   UNL     1       2.469   6.775  18.366  0.00  0.00    +0.000 OA
ATOM     14  C   UNL     1       2.129   7.995  18.684  0.00  0.00    +0.000 A 
ATOM     15  C   UNL     1       2.284   9.151  17.940  0.00  0.00    +0.000 A 
ATOM     16  H   UNL     1       0.863   1.247  19.705  0.00  0.00    +0.000 HD
ENDROOT
BRANCH   1  18
ATOM     17  C   UNL     1       2.166  12.774  18.496  0.00  0.00    +0.000 C 
ATOM     18  O   UNL     1       1.981  11.558  17.868  0.00  0.00    +0.000 OA
ENDBRANCH   1  18
BRANCH  12  19
ATOM     19  C   UNL     1       3.928   3.239  18.133  0.00  0.00    +0.000 C 
BRANCH  19  20
ATOM     20  O   UNL     1       4.716   4.064  17.353  0.00  0.00    +0.000 OA
BRANCH  20  21
ATOM     21  C   UNL     1       5.736   4.831  17.821  0.00  0.00    +0.000 A 
ATOM     22  C   UNL     1       6.444   5.729  16.999  0.00  0.00    +0.000 A 
ATOM     23  C   UNL     1       7.481   6.492  17.530  0.00  0.00    +0.000 A 
ATOM     24  C   UNL     1       7.809   6.356  18.880  0.00  0.00    +0.000 A 
ATOM     25  N   UNL     1       7.117   5.488  19.664  0.00  0.00    +0.000 NA
ATOM     26  C   UNL     1       6.100   4.732  19.170  0.00  0.00    +0.000 A 
ENDBRANCH  20  21
ENDBRANCH  19  20
ENDBRANCH  12  19
TORSDOF 4
ENDMDL
MODEL 7
REMARK VINA RESULT:      -7.3      2.380      5.158
REMARK  Name = 
REMARK  5 active torsions:
REMARK  status: ('A' for Active; 'I' for Inactive)
REMARK    1  A    between atoms: C_1  and  O_2
REMARK    2  A    between atoms: O_2  and  C_3
REMARK    3  A    between atoms: C_14  and  C_15
REMARK    4  A    between atoms: C_15  and  O_16
REMARK    5  A    between atoms: O_16  and  C_17
REMARK                            x       y       z     vdW  Elec       q    Type
REMARK                         _______ _______ _______ _____ _____    ______ ____
ROOT
ATOM      1  C   UNL     1       0.540  10.340  19.072  0.00  0.00    +0.000 A 
ATOM      2  C   UNL     1       0.394   9.838  20.392  0.00  0.00    +0.000 A 
ATOM      3  C   UNL     1       1.038   8.649  20.788  0.00  0.00    +0.000 A 
ATOM      4  C   UNL     1       1.813   7.995  19.839  0.00  0.00    +0.000 A 
ATOM      5  N   UNL     1       2.551   6.884  19.983  0.00  0.00    +0.000 NA
ATOM      6  C   UNL     1       3.065   6.702  18.741  0.00  0.00    +0.000 A 
ATOM      7  N   UNL     1       3.942   5.639  18.402  0.00  0.00    +0.000 N 
ATOM      8  C   UNL     1       4.674   4.920  19.432  0.00  0.00    +0.000 C 
ATOM      9  C   UNL     1       4.301   3.442  19.355  0.00  0.00    +0.000 C 
ATOM     10  N   UNL     1       4.517   2.939  17.988  0.00  0.00    +0.000 NA
ATOM     11  C   UNL     1       3.683   3.678  17.021  0.00  0.00    +0.000 C 
ATOM     12  C   UNL     1       4.060   5.173  17.024  0.00  0.00    +0.000 C 
ATOM     13  O   UNL     1       2.686   7.631  17.879  0.00  0.00    +0.000 OA
ATOM     14  C   UNL     1       1.927   8.447  18.560  0.00  0.00    +0.000 A 
ATOM     15  C   UNL     1       1.321   9.615  18.133  0.00  0.00    +0.000 A 
ATOM     16  H   UNL     1       4.241   1.929  17.963  0.00  0.00    +0.000 HD
ENDROOT
BRANCH   1  18
ATOM     17  C   UNL     1      -1.289  11.623  18.132  0.00  0.00    +0.000 C 
ATOM     18  O   UNL     1      -0.060  11.513  18.751  0.00  0.00    +0.000 OA
ENDBRANCH   1  18
BRANCH  12  19
ATOM     19  C   UNL     1       5.475   5.408  16.477  0.00  0.00    +0.000 C 
BRANCH  19  20
ATOM     20  O   UNL     1       5.908   4.305  15.765  0.00  0.00    +0.000 OA
BRANCH  20  21
ATOM     21  C   UNL     1       6.380   4.343  14.491  0.00  0.00    +0.000 A 
ATOM     22  C   UNL     1       7.465   5.157  14.112  0.00  0.00    +0.000 A 
ATOM     23  C   UNL     1       7.910   5.157  12.792  0.00  0.00    +0.000 A 
ATOM     24  C   UNL     1       7.270   4.345  11.854  0.00  0.00    +0.000 A 
ATOM     25  N   UNL     1       6.225   3.562  12.232  0.00  0.00    +0.000 NA
ATOM     26  C   UNL     1       5.773   3.543  13.514  0.00  0.00    +0.000 A 
ENDBRANCH  20  21
ENDBRANCH  19  20
ENDBRANCH  12  19
TORSDOF 4
ENDMDL
MODEL 8
REMARK VINA RESULT:      -7.3      2.470      5.221
REMARK  Name = 
REMARK  5 active torsions:
REMARK  status: ('A' for Active; 'I' for Inactive)
REMARK    1  A    between atoms: C_1  and  O_2
REMARK    2  A    between atoms: O_2  and  C_3
REMARK    3  A    between atoms: C_14  and  C_15
REMARK    4  A    between atoms: C_15  and  O_16
REMARK    5  A    between atoms: O_16  and  C_17
REMARK                            x       y       z     vdW  Elec       q    Type
REMARK                         _______ _______ _______ _____ _____    ______ ____
ROOT
ATOM      1  C   UNL     1       1.325   9.637  18.788  0.00  0.00    +0.000 A 
ATOM      2  C   UNL     1       1.114   9.280  20.146  0.00  0.00    +0.000 A 
ATOM      3  C   UNL     1       1.549   8.034  20.641  0.00  0.00    +0.000 A 
ATOM      4  C   UNL     1       2.183   7.178  19.749  0.00  0.00    +0.000 A 
ATOM      5  N   UNL     1       2.719   5.972  19.985  0.00  0.00    +0.000 NA
ATOM      6  C   UNL     1       3.173   5.599  18.762  0.00  0.00    +0.000 A 
ATOM      7  N   UNL     1       3.847   4.375  18.514  0.00  0.00    +0.000 N 
ATOM      8  C   UNL     1       4.460   3.628  19.600  0.00  0.00    +0.000 C 
ATOM      9  C   UNL     1       3.834   2.237  19.649  0.00  0.00    +0.000 C 
ATOM     10  N   UNL     1       3.937   1.592  18.329  0.00  0.00    +0.000 NA
ATOM     11  C   UNL     1       3.228   2.382  17.305  0.00  0.00    +0.000 C 
ATOM     12  C   UNL     1       3.859   3.783  17.180  0.00  0.00    +0.000 C 
ATOM     13  O   UNL     1       2.947   6.506  17.825  0.00  0.00    +0.000 OA
ATOM     14  C   UNL     1       2.353   7.496  18.437  0.00  0.00    +0.000 A 
ATOM     15  C   UNL     1       1.952   8.711  17.913  0.00  0.00    +0.000 A 
ATOM     16  H   UNL     1       3.489   0.647  18.390  0.00  0.00    +0.000 HD
ENDROOT
BRANCH   1  18
ATOM     17  C   UNL     1       1.165  12.041  19.056  0.00  0.00    +0.000 C 
ATOM     18  O   UNL     1       0.932  10.866  18.370  0.00  0.00    +0.000 OA
ENDBRANCH   1  18
BRANCH  12  19
ATOM     19  C   UNL     1       5.285   3.722  16.613  0.00  0.00    +0.000 C 
BRANCH  19  20
ATOM     20  O   UNL     1       5.478   4.724  15.680  0.00  0.00    +0.000 OA
BRANCH  20  21
ATOM     21  C   UNL     1       6.058   4.548  14.464  0.00  0.00    +0.000 A 
ATOM     22  C   UNL     1       7.238   5.218  14.086  0.00  0.00    +0.000 A 
ATOM     23  C   UNL     1       7.792   5.001  12.827  0.00  0.00    +0.000 A 
ATOM     24  C   UNL     1       7.166   4.117  11.948  0.00  0.00    +0.000 A 
ATOM     25  N   UNL     1       6.029   3.474  12.323  0.00  0.00    +0.000 NA
ATOM     26  C   UNL     1       5.469   3.668  13.547  0.00  0.00    +0.000 A 
ENDBRANCH  20  21
ENDBRANCH  19  20
ENDBRANCH  12  19
TORSDOF 4
ENDMDL
MODEL 9
REMARK VINA RESULT:      -7.1      3.546      8.025
REMARK  Name = 
REMARK  5 active torsions:
REMARK  status: ('A' for Active; 'I' for Inactive)
REMARK    1  A    between atoms: C_1  and  O_2
REMARK    2  A    between atoms: O_2  and  C_3
REMARK    3  A    between atoms: C_14  and  C_15
REMARK    4  A    between atoms: C_15  and  O_16
REMARK    5  A    between atoms: O_16  and  C_17
REMARK                            x       y       z     vdW  Elec       q    Type
REMARK                         _______ _______ _______ _____ _____    ______ ____
ROOT
ATOM      1  C   UNL     1       4.055   5.700  17.631  0.00  0.00    +0.000 A 
ATOM      2  C   UNL     1       3.994   4.865  18.777  0.00  0.00    +0.000 A 
ATOM      3  C   UNL     1       3.229   5.236  19.901  0.00  0.00    +0.000 A 
ATOM      4  C   UNL     1       2.546   6.444  19.840  0.00  0.00    +0.000 A 
ATOM      5  N   UNL     1       1.727   6.989  20.751  0.00  0.00    +0.000 NA
ATOM      6  C   UNL     1       1.371   8.162  20.171  0.00  0.00    +0.000 A 
ATOM      7  N   UNL     1       0.480   9.093  20.765  0.00  0.00    +0.000 N 
ATOM      8  C   UNL     1      -0.426   8.685  21.828  0.00  0.00    +0.000 C 
ATOM      9  C   UNL     1      -0.139   9.532  23.065  0.00  0.00    +0.000 C 
ATOM     10  N   UNL     1      -0.205  10.963  22.722  0.00  0.00    +0.000 NA
ATOM     11  C   UNL     1       0.794  11.299  21.691  0.00  0.00    +0.000 C 
ATOM     12  C   UNL     1       0.515  10.505  20.398  0.00  0.00    +0.000 C 
ATOM     13  O   UNL     1       1.918   8.341  18.980  0.00  0.00    +0.000 OA
ATOM     14  C   UNL     1       2.630   7.269  18.760  0.00  0.00    +0.000 A 
ATOM     15  C   UNL     1       3.360   6.939  17.633  0.00  0.00    +0.000 A 
ATOM     16  H   UNL     1       0.008  11.516  23.585  0.00  0.00    +0.000 HD
ENDROOT
BRANCH   1  18
ATOM     17  C   UNL     1       5.842   4.417  16.613  0.00  0.00    +0.000 C 
ATOM     18  O   UNL     1       4.765   5.279  16.555  0.00  0.00    +0.000 OA
ENDBRANCH   1  18
BRANCH  12  19
ATOM     19  C   UNL     1      -0.798  10.939  19.731  0.00  0.00    +0.000 C 
BRANCH  19  20
ATOM     20  O   UNL     1      -0.970  10.279  18.528  0.00  0.00    +0.000 OA
BRANCH  20  21
ATOM     21  C   UNL     1      -2.002  10.492  17.669  0.00  0.00    +0.000 A 
ATOM     22  C   UNL     1      -2.113   9.812  16.441  0.00  0.00    +0.000 A 
ATOM     23  C   UNL     1      -3.192  10.066  15.597  0.00  0.00    +0.000 A 
ATOM     24  C   UNL     1      -4.156  10.998  15.982  0.00  0.00    +0.000 A 
ATOM     25  N   UNL     1      -4.040  11.647  17.171  0.00  0.00    +0.000 NA
ATOM     26  C   UNL     1      -2.996  11.416  18.012  0.00  0.00    +0.000 A 
ENDBRANCH  20  21
ENDBRANCH  19  20
ENDBRANCH  12  19
TORSDOF 4
ENDMDL
