MODEL 1
REMARK VINA RESULT:      -7.8      0.000      0.000
REMARK  Name = 
REMARK  13 active torsions:
REMARK  status: ('A' for Active; 'I' for Inactive)
REMARK    1  A    between atoms: C_1  and  C_2
REMARK    2  A    between atoms: C_2  and  C_3
REMARK    3  A    between atoms: C_6  and  O_7
REMARK    4  A    between atoms: O_7  and  C_8
REMARK    5  A    between atoms: C_8  and  C_9
REMARK    6  A    between atoms: C_9  and  C_10
REMARK    7  A    between atoms: C_14  and  O_15
REMARK    8  A    between atoms: O_15  and  C_16
REMARK    9  A    between atoms: C_22  and  N_23
REMARK   10  A    between atoms: N_23  and  C_24
REMARK   11  A    between atoms: C_25  and  C_27
REMARK   12  A    between atoms: C_30  and  O_31
REMARK   13  A    between atoms: O_31  and  C_32
REMARK                            x       y       z     vdW  Elec       q    Type
REMARK                         _______ _______ _______ _____ _____    ______ ____
ROOT
ATOM      1  C   UNL     1       0.541   9.421  21.724  0.00  0.00    +0.000 A 
ATOM      2  N   UNL     1       1.151   8.207  21.565  0.00  0.00    +0.000 NA
ATOM      3  C   UNL     1       1.559   8.157  20.321  0.00  0.00    +0.000 A 
ATOM      4  C   UNL     1       2.216   7.089  19.622  0.00  0.00    +0.000 A 
ATOM      5  C   UNL     1       2.524   7.249  18.319  0.00  0.00    +0.000 A 
ATOM      6  C   UNL     1       2.173   8.464  17.606  0.00  0.00    +0.000 A 
ATOM      7  C   UNL     1       1.536   9.449  18.259  0.00  0.00    +0.000 A 
ATOM      8  N   UNL     1       1.251   9.339  19.627  0.00  0.00    +0.000 N 
ATOM      9  C   UNL     1       0.581  10.188  20.543  0.00  0.00    +0.000 A 
ENDROOT
BRANCH   9  10
ATOM     10  N   UNL     1      -0.022  11.468  20.297  0.00  0.00    +0.000 N 
ATOM     11  C   UNL     1      -1.348  11.484  19.674  0.00  0.00    +0.000 C 
ATOM     12  C   UNL     1       0.571  12.680  20.753  0.00  0.00    +0.000 C 
ATOM     13  O   UNL     1       1.627  12.769  21.378  0.00  0.00    +0.000 OA
BRANCH  12  14
ATOM     14  C   UNL     1      -0.114  14.005  20.507  0.00  0.00    +0.000 A 
ATOM     15  C   UNL     1      -1.013  14.562  21.424  0.00  0.00    +0.000 A 
ATOM     16  C   UNL     1      -1.685  15.752  21.135  0.00  0.00    +0.000 A 
ATOM     17  C   UNL     1      -1.383  16.474  19.983  0.00  0.00    +0.000 A 
ATOM     18  C   UNL     1      -0.426  15.981  19.096  0.00  0.00    +0.000 A 
ATOM     19  C   UNL     1       0.201  14.746  19.354  0.00  0.00    +0.000 A 
BRANCH  17  20
ATOM     20  O   UNL     1      -2.118  17.609  19.800  0.00  0.00    +0.000 OA
ATOM     21  C   UNL     1      -3.466  17.537  20.265  0.00  0.00    +0.000 C 
ENDBRANCH  17  20
ENDBRANCH  12  14
ENDBRANCH   9  10
BRANCH   1  23
ATOM     22  C   UNL     1      -1.152  10.654  23.118  0.00  0.00    +0.000 C 
ATOM     23  C   UNL     1       0.005   9.668  23.102  0.00  0.00    +0.000 C 
ENDBRANCH   1  23
BRANCH   4  24
ATOM     24  O   UNL     1       2.455   5.962  20.389  0.00  0.00    +0.000 OA
BRANCH  24  25
ATOM     25  C   UNL     1       1.776   4.772  19.986  0.00  0.00    +0.000 C 
BRANCH  25  26
ATOM     26  C   UNL     1       2.772   3.616  19.857  0.00  0.00    +0.000 C 
BRANCH  26  27
ATOM     27  C   UNL     1       3.832   3.943  18.829  0.00  0.00    +0.000 A 
ATOM     28  C   UNL     1       3.548   3.822  17.465  0.00  0.00    +0.000 A 
ATOM     29  C   UNL     1       4.543   4.060  16.516  0.00  0.00    +0.000 A 
ATOM     30  C   UNL     1       5.826   4.409  16.930  0.00  0.00    +0.000 A 
ATOM     31  C   UNL     1       6.132   4.528  18.288  0.00  0.00    +0.000 A 
ATOM     32  C   UNL     1       5.130   4.296  19.233  0.00  0.00    +0.000 A 
BRANCH  31  33
ATOM     33  O   UNL     1       7.432   4.858  18.554  0.00  0.00    +0.000 OA
ATOM     34  C   UNL     1       7.752   6.244  18.575  0.00  0.00    +0.000 C 
ENDBRANCH  31  33
ENDBRANCH  26  27
ENDBRANCH  25  26
ENDBRANCH  24  25
ENDBRANCH   4  24
TORSDOF 9
ENDMDL
MODEL 2
REMARK VINA RESULT:      -7.7      0.729      1.139
REMARK  Name = 
REMARK  13 active torsions:
REMARK  status: ('A' for Active; 'I' for Inactive)
REMARK    1  A    between atoms: C_1  and  C_2
REMARK    2  A    between atoms: C_2  and  C_3
REMARK    3  A    between atoms: C_6  and  O_7
REMARK    4  A    between atoms: O_7  and  C_8
REMARK    5  A    between atoms: C_8  and  C_9
REMARK    6  A    between atoms: C_9  and  C_10
REMARK    7  A    between atoms: C_14  and  O_15
REMARK    8  A    between atoms: O_15  and  C_16
REMARK    9  A    between atoms: C_22  and  N_23
REMARK   10  A    between atoms: N_23  and  C_24
REMARK   11  A    between atoms: C_25  and  C_27
REMARK   12  A    between atoms: C_30  and  O_31
REMARK   13  A    between atoms: O_31  and  C_32
REMARK                            x       y       z     vdW  Elec       q    Type
REMARK                         _______ _______ _______ _____ _____    ______ ____
ROOT
ATOM      1  C   UNL     1       0.225   9.917  21.256  0.00  0.00    +0.000 A 
ATOM      2  N   UNL     1       0.754   8.655  21.270  0.00  0.00    +0.000 NA
ATOM      3  C   UNL     1       1.378   8.500  20.129  0.00  0.00    +0.000 A 
ATOM      4  C   UNL     1       2.063   7.348  19.615  0.00  0.00    +0.000 A 
ATOM      5  C   UNL     1       2.616   7.407  18.387  0.00  0.00    +0.000 A 
ATOM      6  C   UNL     1       2.501   8.598  17.565  0.00  0.00    +0.000 A 
ATOM      7  C   UNL     1       1.838   9.663  18.041  0.00  0.00    +0.000 A 
ATOM      8  N   UNL     1       1.299   9.657  19.335  0.00  0.00    +0.000 N 
ATOM      9  C   UNL     1       0.543  10.605  20.069  0.00  0.00    +0.000 A 
ENDROOT
BRANCH   9  10
ATOM     10  N   UNL     1       0.100  11.907  19.654  0.00  0.00    +0.000 N 
ATOM     11  C   UNL     1      -0.950  11.974  18.636  0.00  0.00    +0.000 C 
ATOM     12  C   UNL     1       0.558  13.096  20.292  0.00  0.00    +0.000 C 
ATOM     13  O   UNL     1       1.357  13.145  21.227  0.00  0.00    +0.000 OA
BRANCH  12  14
ATOM     14  C   UNL     1       0.039  14.446  19.852  0.00  0.00    +0.000 A 
ATOM     15  C   UNL     1       0.651  15.186  18.833  0.00  0.00    +0.000 A 
ATOM     16  C   UNL     1       0.191  16.462  18.499  0.00  0.00    +0.000 A 
ATOM     17  C   UNL     1      -0.962  16.975  19.089  0.00  0.00    +0.000 A 
ATOM     18  C   UNL     1      -1.639  16.219  20.046  0.00  0.00    +0.000 A 
ATOM     19  C   UNL     1      -1.135  14.961  20.432  0.00  0.00    +0.000 A 
BRANCH  17  20
ATOM     20  O   UNL     1      -1.301  18.238  18.697  0.00  0.00    +0.000 OA
ATOM     21  C   UNL     1      -2.672  18.584  18.895  0.00  0.00    +0.000 C 
ENDBRANCH  17  20
ENDBRANCH  12  14
ENDBRANCH   9  10
BRANCH   1  23
ATOM     22  C   UNL     1      -0.106   9.473  23.709  0.00  0.00    +0.000 C 
ATOM     23  C   UNL     1      -0.532  10.283  22.495  0.00  0.00    +0.000 C 
ENDBRANCH   1  23
BRANCH   4  24
ATOM     24  O   UNL     1       2.066   6.256  20.465  0.00  0.00    +0.000 OA
BRANCH  24  25
ATOM     25  C   UNL     1       1.724   5.000  19.876  0.00  0.00    +0.000 C 
BRANCH  25  26
ATOM     26  C   UNL     1       2.876   4.007  20.050  0.00  0.00    +0.000 C 
BRANCH  26  27
ATOM     27  C   UNL     1       3.882   4.162  18.931  0.00  0.00    +0.000 A 
ATOM     28  C   UNL     1       3.490   3.965  17.602  0.00  0.00    +0.000 A 
ATOM     29  C   UNL     1       4.429   4.043  16.573  0.00  0.00    +0.000 A 
ATOM     30  C   UNL     1       5.764   4.307  16.872  0.00  0.00    +0.000 A 
ATOM     31  C   UNL     1       6.177   4.499  18.193  0.00  0.00    +0.000 A 
ATOM     32  C   UNL     1       5.231   4.428  19.217  0.00  0.00    +0.000 A 
BRANCH  31  33
ATOM     33  O   UNL     1       7.516   4.732  18.344  0.00  0.00    +0.000 OA
ATOM     34  C   UNL     1       7.888   5.856  19.132  0.00  0.00    +0.000 C 
ENDBRANCH  31  33
ENDBRANCH  26  27
ENDBRANCH  25  26
ENDBRANCH  24  25
ENDBRANCH   4  24
TORSDOF 9
ENDMDL
MODEL 3
REMARK VINA RESULT:      -7.5      0.987      1.205
REMARK  Name = 
REMARK  13 active torsions:
REMARK  status: ('A' for Active; 'I' for Inactive)
REMARK    1  A    between atoms: C_1  and  C_2
REMARK    2  A    between atoms: C_2  and  C_3
REMARK    3  A    between atoms: C_6  and  O_7
REMARK    4  A    between atoms: O_7  and  C_8
REMARK    5  A    between atoms: C_8  and  C_9
REMARK    6  A    between atoms: C_9  and  C_10
REMARK    7  A    between atoms: C_14  and  O_15
REMARK    8  A    between atoms: O_15  and  C_16
REMARK    9  A    between atoms: C_22  and  N_23
REMARK   10  A    between atoms: N_23  and  C_24
REMARK   11  A    between atoms: C_25  and  C_27
REMARK   12  A    between atoms: C_30  and  O_31
REMARK   13  A    between atoms: O_31  and  C_32
REMARK                            x       y       z     vdW  Elec       q    Type
REMARK                         _______ _______ _______ _____ _____    ______ ____
ROOT
ATOM      1  C   UNL     1       0.514   9.180  21.561  0.00  0.00    +0.000 A 
ATOM      2  N   UNL     1       1.144   7.979  21.378  0.00  0.00    +0.000 NA
ATOM      3  C   UNL     1       1.618   7.991  20.158  0.00  0.00    +0.000 A 
ATOM      4  C   UNL     1       2.322   6.961  19.446  0.00  0.00    +0.000 A 
ATOM      5  C   UNL     1       2.698   7.185  18.170  0.00  0.00    +0.000 A 
ATOM      6  C   UNL     1       2.374   8.430  17.497  0.00  0.00    +0.000 A 
ATOM      7  C   UNL     1       1.695   9.379  18.160  0.00  0.00    +0.000 A 
ATOM      8  N   UNL     1       1.337   9.202  19.504  0.00  0.00    +0.000 N 
ATOM      9  C   UNL     1       0.611  10.002  20.421  0.00  0.00    +0.000 A 
ENDROOT
BRANCH   9  10
ATOM     10  N   UNL     1       0.009  11.288  20.203  0.00  0.00    +0.000 N 
ATOM     11  C   UNL     1      -1.357  11.317  19.676  0.00  0.00    +0.000 C 
ATOM     12  C   UNL     1       0.651  12.496  20.600  0.00  0.00    +0.000 C 
ATOM     13  O   UNL     1       1.750  12.576  21.147  0.00  0.00    +0.000 OA
BRANCH  12  14
ATOM     14  C   UNL     1      -0.031  13.828  20.387  0.00  0.00    +0.000 A 
ATOM     15  C   UNL     1      -0.846  14.415  21.363  0.00  0.00    +0.000 A 
ATOM     16  C   UNL     1      -1.521  15.611  21.108  0.00  0.00    +0.000 A 
ATOM     17  C   UNL     1      -1.300  16.309  19.924  0.00  0.00    +0.000 A 
ATOM     18  C   UNL     1      -0.424  15.788  18.972  0.00  0.00    +0.000 A 
ATOM     19  C   UNL     1       0.203  14.546  19.200  0.00  0.00    +0.000 A 
BRANCH  17  20
ATOM     20  O   UNL     1      -2.030  17.454  19.780  0.00  0.00    +0.000 OA
ATOM     21  C   UNL     1      -1.428  18.627  20.329  0.00  0.00    +0.000 C 
ENDBRANCH  17  20
ENDBRANCH  12  14
ENDBRANCH   9  10
BRANCH   1  23
ATOM     22  C   UNL     1      -0.939  10.619  23.025  0.00  0.00    +0.000 C 
ATOM     23  C   UNL     1      -0.097   9.358  22.917  0.00  0.00    +0.000 C 
ENDBRANCH   1  23
BRANCH   4  24
ATOM     24  O   UNL     1       2.530   5.802  20.171  0.00  0.00    +0.000 OA
BRANCH  24  25
ATOM     25  C   UNL     1       3.118   4.712  19.459  0.00  0.00    +0.000 C 
BRANCH  25  26
ATOM     26  C   UNL     1       4.638   4.721  19.645  0.00  0.00    +0.000 C 
BRANCH  26  27
ATOM     27  C   UNL     1       5.333   4.944  18.320  0.00  0.00    +0.000 A 
ATOM     28  C   UNL     1       5.206   4.003  17.293  0.00  0.00    +0.000 A 
ATOM     29  C   UNL     1       5.897   4.174  16.093  0.00  0.00    +0.000 A 
ATOM     30  C   UNL     1       6.726   5.281  15.923  0.00  0.00    +0.000 A 
ATOM     31  C   UNL     1       6.872   6.228  16.939  0.00  0.00    +0.000 A 
ATOM     32  C   UNL     1       6.171   6.056  18.134  0.00  0.00    +0.000 A 
BRANCH  31  33
ATOM     33  O   UNL     1       7.728   7.253  16.645  0.00  0.00    +0.000 OA
ATOM     34  C   UNL     1       7.940   8.226  17.661  0.00  0.00    +0.000 C 
ENDBRANCH  31  33
ENDBRANCH  26  27
ENDBRANCH  25  26
ENDBRANCH  24  25
ENDBRANCH   4  24
TORSDOF 9
ENDMDL
MODEL 4
REMARK VINA RESULT:      -7.4      1.227      1.890
REMARK  Name = 
REMARK  13 active torsions:
REMARK  status: ('A' for Active; 'I' for Inactive)
REMARK    1  A    between atoms: C_1  and  C_2
REMARK    2  A    between atoms: C_2  and  C_3
REMARK    3  A    between atoms: C_6  and  O_7
REMARK    4  A    between atoms: O_7  and  C_8
REMARK    5  A    between atoms: C_8  and  C_9
REMARK    6  A    between atoms: C_9  and  C_10
REMARK    7  A    between atoms: C_14  and  O_15
REMARK    8  A    between atoms: O_15  and  C_16
REMARK    9  A    between atoms: C_22  and  N_23
REMARK   10  A    between atoms: N_23  and  C_24
REMARK   11  A    between atoms: C_25  and  C_27
REMARK   12  A    between atoms: C_30  and  O_31
REMARK   13  A    between atoms: O_31  and  C_32
REMARK                            x       y       z     vdW  Elec       q    Type
REMARK                         _______ _______ _______ _____ _____    ______ ____
ROOT
ATOM      1  C   UNL     1       0.748   9.398  21.738  0.00  0.00    +0.000 A 
ATOM      2  N   UNL     1       1.113   8.110  21.454  0.00  0.00    +0.000 NA
ATOM      3  C   UNL     1       1.584   8.118  20.232  0.00  0.00    +0.000 A 
ATOM      4  C   UNL     1       2.059   7.024  19.433  0.00  0.00    +0.000 A 
ATOM      5  C   UNL     1       2.478   7.264  18.174  0.00  0.00    +0.000 A 
ATOM      6  C   UNL     1       2.424   8.599  17.604  0.00  0.00    +0.000 A 
ATOM      7  C   UNL     1       1.956   9.613  18.347  0.00  0.00    +0.000 A 
ATOM      8  N   UNL     1       1.565   9.410  19.678  0.00  0.00    +0.000 N 
ATOM      9  C   UNL     1       1.019  10.269  20.664  0.00  0.00    +0.000 A 
ENDROOT
BRANCH   9  10
ATOM     10  N   UNL     1       0.700  11.665  20.554  0.00  0.00    +0.000 N 
ATOM     11  C   UNL     1       1.703  12.627  21.016  0.00  0.00    +0.000 C 
ATOM     12  C   UNL     1      -0.484  12.118  19.903  0.00  0.00    +0.000 C 
ATOM     13  O   UNL     1      -1.337  11.397  19.388  0.00  0.00    +0.000 OA
BRANCH  12  14
ATOM     14  C   UNL     1      -0.765  13.597  19.774  0.00  0.00    +0.000 A 
ATOM     15  C   UNL     1      -0.213  14.376  18.750  0.00  0.00    +0.000 A 
ATOM     16  C   UNL     1      -0.434  15.754  18.700  0.00  0.00    +0.000 A 
ATOM     17  C   UNL     1      -1.308  16.364  19.597  0.00  0.00    +0.000 A 
ATOM     18  C   UNL     1      -1.938  15.593  20.574  0.00  0.00    +0.000 A 
ATOM     19  C   UNL     1      -1.661  14.214  20.667  0.00  0.00    +0.000 A 
BRANCH  17  20
ATOM     20  O   UNL     1      -1.427  17.717  19.462  0.00  0.00    +0.000 OA
ATOM     21  C   UNL     1      -2.756  18.185  19.227  0.00  0.00    +0.000 C 
ENDBRANCH  17  20
ENDBRANCH  12  14
ENDBRANCH   9  10
BRANCH   1  23
ATOM     22  C   UNL     1      -1.010  10.532  23.132  0.00  0.00    +0.000 C 
ATOM     23  C   UNL     1       0.183   9.592  23.112  0.00  0.00    +0.000 C 
ENDBRANCH   1  23
BRANCH   4  24
ATOM     24  O   UNL     1       2.018   5.793  20.063  0.00  0.00    +0.000 OA
BRANCH  24  25
ATOM     25  C   UNL     1       2.027   4.649  19.208  0.00  0.00    +0.000 C 
BRANCH  25  26
ATOM     26  C   UNL     1       3.226   3.756  19.538  0.00  0.00    +0.000 C 
BRANCH  26  27
ATOM     27  C   UNL     1       4.428   4.157  18.712  0.00  0.00    +0.000 A 
ATOM     28  C   UNL     1       5.386   5.028  19.244  0.00  0.00    +0.000 A 
ATOM     29  C   UNL     1       6.462   5.451  18.463  0.00  0.00    +0.000 A 
ATOM     30  C   UNL     1       6.576   5.014  17.146  0.00  0.00    +0.000 A 
ATOM     31  C   UNL     1       5.627   4.150  16.594  0.00  0.00    +0.000 A 
ATOM     32  C   UNL     1       4.557   3.723  17.383  0.00  0.00    +0.000 A 
BRANCH  31  33
ATOM     33  O   UNL     1       5.852   3.814  15.288  0.00  0.00    +0.000 OA
ATOM     34  C   UNL     1       6.757   4.633  14.558  0.00  0.00    +0.000 C 
ENDBRANCH  31  33
ENDBRANCH  26  27
ENDBRANCH  25  26
ENDBRANCH  24  25
ENDBRANCH   4  24
TORSDOF 9
ENDMDL
MODEL 5
REMARK VINA RESULT:      -7.2      1.079      1.522
REMARK  Name = 
REMARK  13 active torsions:
REMARK  status: ('A' for Active; 'I' for Inactive)
REMARK    1  A    between atoms: C_1  and  C_2
REMARK    2  A    between atoms: C_2  and  C_3
REMARK    3  A    between atoms: C_6  and  O_7
REMARK    4  A    between atoms: O_7  and  C_8
REMARK    5  A    between atoms: C_8  and  C_9
REMARK    6  A    between atoms: C_9  and  C_10
REMARK    7  A    between atoms: C_14  and  O_15
REMARK    8  A    between atoms: O_15  and  C_16
REMARK    9  A    between atoms: C_22  and  N_23
REMARK   10  A    between atoms: N_23  and  C_24
REMARK   11  A    between atoms: C_25  and  C_27
REMARK   12  A    between atoms: C_30  and  O_31
REMARK   13  A    between atoms: O_31  and  C_32
REMARK                            x       y       z     vdW  Elec       q    Type
REMARK                         _______ _______ _______ _____ _____    ______ ____
ROOT
ATOM      1  C   UNL     1       0.689   9.489  21.698  0.00  0.00    +0.000 A 
ATOM      2  N   UNL     1       1.050   8.206  21.386  0.00  0.00    +0.000 NA
ATOM      3  C   UNL     1       1.524   8.240  20.166  0.00  0.00    +0.000 A 
ATOM      4  C   UNL     1       1.998   7.162  19.344  0.00  0.00    +0.000 A 
ATOM      5  C   UNL     1       2.421   7.428  18.092  0.00  0.00    +0.000 A 
ATOM      6  C   UNL     1       2.373   8.775  17.551  0.00  0.00    +0.000 A 
ATOM      7  C   UNL     1       1.905   9.774  18.315  0.00  0.00    +0.000 A 
ATOM      8  N   UNL     1       1.510   9.543  19.641  0.00  0.00    +0.000 N 
ATOM      9  C   UNL     1       0.964  10.382  20.644  0.00  0.00    +0.000 A 
ENDROOT
BRANCH   9  10
ATOM     10  N   UNL     1       0.650  11.781  20.563  0.00  0.00    +0.000 N 
ATOM     11  C   UNL     1       1.633  12.728  21.092  0.00  0.00    +0.000 C 
ATOM     12  C   UNL     1      -0.508  12.254  19.881  0.00  0.00    +0.000 C 
ATOM     13  O   UNL     1      -1.341  11.550  19.311  0.00  0.00    +0.000 OA
BRANCH  12  14
ATOM     14  C   UNL     1      -0.784  13.737  19.785  0.00  0.00    +0.000 A 
ATOM     15  C   UNL     1      -0.221  14.539  18.785  0.00  0.00    +0.000 A 
ATOM     16  C   UNL     1      -0.438  15.919  18.767  0.00  0.00    +0.000 A 
ATOM     17  C   UNL     1      -1.319  16.509  19.671  0.00  0.00    +0.000 A 
ATOM     18  C   UNL     1      -1.960  15.716  20.622  0.00  0.00    +0.000 A 
ATOM     19  C   UNL     1      -1.687  14.334  20.684  0.00  0.00    +0.000 A 
BRANCH  17  20
ATOM     20  O   UNL     1      -1.434  17.865  19.568  0.00  0.00    +0.000 OA
ATOM     21  C   UNL     1      -2.550  18.430  20.256  0.00  0.00    +0.000 C 
ENDBRANCH  17  20
ENDBRANCH  12  14
ENDBRANCH   9  10
BRANCH   1  23
ATOM     22  C   UNL     1      -1.064  10.606  23.113  0.00  0.00    +0.000 C 
ATOM     23  C   UNL     1       0.121   9.654  23.074  0.00  0.00    +0.000 C 
ENDBRANCH   1  23
BRANCH   4  24
ATOM     24  O   UNL     1       1.952   5.917  19.947  0.00  0.00    +0.000 OA
BRANCH  24  25
ATOM     25  C   UNL     1       3.196   5.224  20.055  0.00  0.00    +0.000 C 
BRANCH  25  26
ATOM     26  C   UNL     1       3.318   4.184  18.939  0.00  0.00    +0.000 C 
BRANCH  26  27
ATOM     27  C   UNL     1       4.521   4.476  18.071  0.00  0.00    +0.000 A 
ATOM     28  C   UNL     1       4.683   3.814  16.849  0.00  0.00    +0.000 A 
ATOM     29  C   UNL     1       5.824   4.033  16.076  0.00  0.00    +0.000 A 
ATOM     30  C   UNL     1       6.810   4.906  16.530  0.00  0.00    +0.000 A 
ATOM     31  C   UNL     1       6.672   5.571  17.750  0.00  0.00    +0.000 A 
ATOM     32  C   UNL     1       5.524   5.354  18.515  0.00  0.00    +0.000 A 
BRANCH  31  33
ATOM     33  O   UNL     1       7.721   6.383  18.081  0.00  0.00    +0.000 OA
ATOM     34  C   UNL     1       7.672   7.723  17.606  0.00  0.00    +0.000 C 
ENDBRANCH  31  33
ENDBRANCH  26  27
ENDBRANCH  25  26
ENDBRANCH  24  25
ENDBRANCH   4  24
TORSDOF 9
ENDMDL
MODEL 6
REMARK VINA RESULT:      -7.2      1.030      1.249
REMARK  Name = 
REMARK  13 active torsions:
REMARK  status: ('A' for Active; 'I' for Inactive)
REMARK    1  A    between atoms: C_1  and  C_2
REMARK    2  A    between atoms: C_2  and  C_3
REMARK    3  A    between atoms: C_6  and  O_7
REMARK    4  A    between atoms: O_7  and  C_8
REMARK    5  A    between atoms: C_8  and  C_9
REMARK    6  A    between atoms: C_9  and  C_10
REMARK    7  A    between atoms: C_14  and  O_15
REMARK    8  A    between atoms: O_15  and  C_16
REMARK    9  A    between atoms: C_22  and  N_23
REMARK   10  A    between atoms: N_23  and  C_24
REMARK   11  A    between atoms: C_25  and  C_27
REMARK   12  A    between atoms: C_30  and  O_31
REMARK   13  A    between atoms: O_31  and  C_32
REMARK                            x       y       z     vdW  Elec       q    Type
REMARK                         _______ _______ _______ _____ _____    ______ ____
ROOT
ATOM      1  C   UNL     1       0.576   9.384  21.671  0.00  0.00    +0.000 A 
ATOM      2  N   UNL     1       0.928   8.095  21.376  0.00  0.00    +0.000 NA
ATOM      3  C   UNL     1       1.445   8.117  20.173  0.00  0.00    +0.000 A 
ATOM      4  C   UNL     1       1.930   7.030  19.371  0.00  0.00    +0.000 A 
ATOM      5  C   UNL     1       2.400   7.285  18.133  0.00  0.00    +0.000 A 
ATOM      6  C   UNL     1       2.392   8.631  17.587  0.00  0.00    +0.000 A 
ATOM      7  C   UNL     1       1.914   9.640  18.333  0.00  0.00    +0.000 A 
ATOM      8  N   UNL     1       1.469   9.419  19.644  0.00  0.00    +0.000 N 
ATOM      9  C   UNL     1       0.902  10.270  20.625  0.00  0.00    +0.000 A 
ENDROOT
BRANCH   9  10
ATOM     10  N   UNL     1       0.613  11.673  20.531  0.00  0.00    +0.000 N 
ATOM     11  C   UNL     1       1.651  12.610  20.967  0.00  0.00    +0.000 C 
ATOM     12  C   UNL     1      -0.578  12.157  19.916  0.00  0.00    +0.000 C 
ATOM     13  O   UNL     1      -1.463  11.458  19.422  0.00  0.00    +0.000 OA
BRANCH  12  14
ATOM     14  C   UNL     1      -0.829  13.643  19.801  0.00  0.00    +0.000 A 
ATOM     15  C   UNL     1      -1.641  14.336  20.706  0.00  0.00    +0.000 A 
ATOM     16  C   UNL     1      -1.911  15.695  20.531  0.00  0.00    +0.000 A 
ATOM     17  C   UNL     1      -1.279  16.418  19.522  0.00  0.00    +0.000 A 
ATOM     18  C   UNL     1      -0.396  15.767  18.661  0.00  0.00    +0.000 A 
ATOM     19  C   UNL     1      -0.178  14.381  18.796  0.00  0.00    +0.000 A 
BRANCH  17  20
ATOM     20  O   UNL     1      -1.637  17.733  19.438  0.00  0.00    +0.000 OA
ATOM     21  C   UNL     1      -0.571  18.630  19.127  0.00  0.00    +0.000 C 
ENDBRANCH  17  20
ENDBRANCH  12  14
ENDBRANCH   9  10
BRANCH   1  23
ATOM     22  C   UNL     1      -1.058  10.688  23.069  0.00  0.00    +0.000 C 
ATOM     23  C   UNL     1      -0.037   9.563  23.027  0.00  0.00    +0.000 C 
ENDBRANCH   1  23
BRANCH   4  24
ATOM     24  O   UNL     1       1.843   5.788  19.975  0.00  0.00    +0.000 OA
BRANCH  24  25
ATOM     25  C   UNL     1       3.081   5.117  20.214  0.00  0.00    +0.000 C 
BRANCH  25  26
ATOM     26  C   UNL     1       3.206   3.902  19.291  0.00  0.00    +0.000 C 
BRANCH  26  27
ATOM     27  C   UNL     1       4.274   4.138  18.246  0.00  0.00    +0.000 A 
ATOM     28  C   UNL     1       4.021   3.837  16.903  0.00  0.00    +0.000 A 
ATOM     29  C   UNL     1       5.024   3.993  15.946  0.00  0.00    +0.000 A 
ATOM     30  C   UNL     1       6.286   4.439  16.333  0.00  0.00    +0.000 A 
ATOM     31  C   UNL     1       6.561   4.738  17.669  0.00  0.00    +0.000 A 
ATOM     32  C   UNL     1       5.550   4.589  18.621  0.00  0.00    +0.000 A 
BRANCH  31  33
ATOM     33  O   UNL     1       7.843   5.149  17.910  0.00  0.00    +0.000 OA
ATOM     34  C   UNL     1       8.052   5.967  19.055  0.00  0.00    +0.000 C 
ENDBRANCH  31  33
ENDBRANCH  26  27
ENDBRANCH  25  26
ENDBRANCH  24  25
ENDBRANCH   4  24
TORSDOF 9
ENDMDL
MODEL 7
REMARK VINA RESULT:      -7.1      1.404      1.907
REMARK  Name = 
REMARK  13 active torsions:
REMARK  status: ('A' for Active; 'I' for Inactive)
REMARK    1  A    between atoms: C_1  and  C_2
REMARK    2  A    between atoms: C_2  and  C_3
REMARK    3  A    between atoms: C_6  and  O_7
REMARK    4  A    between atoms: O_7  and  C_8
REMARK    5  A    between atoms: C_8  and  C_9
REMARK    6  A    between atoms: C_9  and  C_10
REMARK    7  A    between atoms: C_14  and  O_15
REMARK    8  A    between atoms: O_15  and  C_16
REMARK    9  A    between atoms: C_22  and  N_23
REMARK   10  A    between atoms: N_23  and  C_24
REMARK   11  A    between atoms: C_25  and  C_27
REMARK   12  A    between atoms: C_30  and  O_31
REMARK   13  A    between atoms: O_31  and  C_32
REMARK                            x       y       z     vdW  Elec       q    Type
REMARK                         _______ _______ _______ _____ _____    ______ ____
ROOT
ATOM      1  C   UNL     1       0.787   9.408  21.688  0.00  0.00    +0.000 A 
ATOM      2  N   UNL     1       1.151   8.128  21.371  0.00  0.00    +0.000 NA
ATOM      3  C   UNL     1       1.592   8.162  20.138  0.00  0.00    +0.000 A 
ATOM      4  C   UNL     1       2.053   7.087  19.307  0.00  0.00    +0.000 A 
ATOM      5  C   UNL     1       2.440   7.353  18.043  0.00  0.00    +0.000 A 
ATOM      6  C   UNL     1       2.365   8.698  17.500  0.00  0.00    +0.000 A 
ATOM      7  C   UNL     1       1.910   9.695  18.274  0.00  0.00    +0.000 A 
ATOM      8  N   UNL     1       1.552   9.464  19.610  0.00  0.00    +0.000 N 
ATOM      9  C   UNL     1       1.026  10.301  20.625  0.00  0.00    +0.000 A 
ENDROOT
BRANCH   9  10
ATOM     10  N   UNL     1       0.697  11.697  20.550  0.00  0.00    +0.000 N 
ATOM     11  C   UNL     1       1.697  12.656  21.026  0.00  0.00    +0.000 C 
ATOM     12  C   UNL     1      -0.494  12.157  19.918  0.00  0.00    +0.000 C 
ATOM     13  O   UNL     1      -1.347  11.442  19.393  0.00  0.00    +0.000 OA
BRANCH  12  14
ATOM     14  C   UNL     1      -0.786  13.637  19.825  0.00  0.00    +0.000 A 
ATOM     15  C   UNL     1      -1.613  14.295  20.743  0.00  0.00    +0.000 A 
ATOM     16  C   UNL     1      -1.922  15.648  20.588  0.00  0.00    +0.000 A 
ATOM     17  C   UNL     1      -1.315  16.402  19.587  0.00  0.00    +0.000 A 
ATOM     18  C   UNL     1      -0.419  15.787  18.712  0.00  0.00    +0.000 A 
ATOM     19  C   UNL     1      -0.161  14.406  18.827  0.00  0.00    +0.000 A 
BRANCH  17  20
ATOM     20  O   UNL     1      -1.710  17.707  19.523  0.00  0.00    +0.000 OA
ATOM     21  C   UNL     1      -3.064  17.947  19.906  0.00  0.00    +0.000 C 
ENDBRANCH  17  20
ENDBRANCH  12  14
ENDBRANCH   9  10
BRANCH   1  23
ATOM     22  C   UNL     1      -1.012  10.411  23.131  0.00  0.00    +0.000 C 
ATOM     23  C   UNL     1       0.254   9.573  23.079  0.00  0.00    +0.000 C 
ENDBRANCH   1  23
BRANCH   4  24
ATOM     24  O   UNL     1       2.034   5.844  19.914  0.00  0.00    +0.000 OA
BRANCH  24  25
ATOM     25  C   UNL     1       3.302   5.209  20.088  0.00  0.00    +0.000 C 
BRANCH  25  26
ATOM     26  C   UNL     1       3.487   4.107  19.042  0.00  0.00    +0.000 C 
BRANCH  26  27
ATOM     27  C   UNL     1       4.535   4.510  18.028  0.00  0.00    +0.000 A 
ATOM     28  C   UNL     1       5.608   5.321  18.412  0.00  0.00    +0.000 A 
ATOM     29  C   UNL     1       6.541   5.747  17.466  0.00  0.00    +0.000 A 
ATOM     30  C   UNL     1       6.396   5.373  16.133  0.00  0.00    +0.000 A 
ATOM     31  C   UNL     1       5.327   4.570  15.727  0.00  0.00    +0.000 A 
ATOM     32  C   UNL     1       4.401   4.139  16.680  0.00  0.00    +0.000 A 
BRANCH  31  33
ATOM     33  O   UNL     1       5.296   4.293  14.388  0.00  0.00    +0.000 OA
ATOM     34  C   UNL     1       6.544   4.045  13.753  0.00  0.00    +0.000 C 
ENDBRANCH  31  33
ENDBRANCH  26  27
ENDBRANCH  25  26
ENDBRANCH  24  25
ENDBRANCH   4  24
TORSDOF 9
ENDMDL
MODEL 8
REMARK VINA RESULT:      -7.0      0.847      1.356
REMARK  Name = 
REMARK  13 active torsions:
REMARK  status: ('A' for Active; 'I' for Inactive)
REMARK    1  A    between atoms: C_1  and  C_2
REMARK    2  A    between atoms: C_2  and  C_3
REMARK    3  A    between atoms: C_6  and  O_7
REMARK    4  A    between atoms: O_7  and  C_8
REMARK    5  A    between atoms: C_8  and  C_9
REMARK    6  A    between atoms: C_9  and  C_10
REMARK    7  A    between atoms: C_14  and  O_15
REMARK    8  A    between atoms: O_15  and  C_16
REMARK    9  A    between atoms: C_22  and  N_23
REMARK   10  A    between atoms: N_23  and  C_24
REMARK   11  A    between atoms: C_25  and  C_27
REMARK   12  A    between atoms: C_30  and  O_31
REMARK   13  A    between atoms: O_31  and  C_32
REMARK                            x       y       z     vdW  Elec       q    Type
REMARK                         _______ _______ _______ _____ _____    ______ ____
ROOT
ATOM      1  C   UNL     1       0.634   9.487  21.772  0.00  0.00    +0.000 A 
ATOM      2  N   UNL     1       1.217   8.253  21.674  0.00  0.00    +0.000 NA
ATOM      3  C   UNL     1       1.610   8.126  20.431  0.00  0.00    +0.000 A 
ATOM      4  C   UNL     1       2.236   7.007  19.785  0.00  0.00    +0.000 A 
ATOM      5  C   UNL     1       2.532   7.089  18.472  0.00  0.00    +0.000 A 
ATOM      6  C   UNL     1       2.197   8.270  17.696  0.00  0.00    +0.000 A 
ATOM      7  C   UNL     1       1.589   9.302  18.300  0.00  0.00    +0.000 A 
ATOM      8  N   UNL     1       1.318   9.274  19.676  0.00  0.00    +0.000 N 
ATOM      9  C   UNL     1       0.676  10.186  20.550  0.00  0.00    +0.000 A 
ENDROOT
BRANCH   9  10
ATOM     10  N   UNL     1       0.095  11.462  20.240  0.00  0.00    +0.000 N 
ATOM     11  C   UNL     1      -1.242  11.472  19.642  0.00  0.00    +0.000 C 
ATOM     12  C   UNL     1       0.724  12.686  20.612  0.00  0.00    +0.000 C 
ATOM     13  O   UNL     1       1.794  12.787  21.211  0.00  0.00    +0.000 OA
BRANCH  12  14
ATOM     14  C   UNL     1       0.063  14.009  20.301  0.00  0.00    +0.000 A 
ATOM     15  C   UNL     1       0.214  14.648  19.064  0.00  0.00    +0.000 A 
ATOM     16  C   UNL     1      -0.351  15.904  18.833  0.00  0.00    +0.000 A 
ATOM     17  C   UNL     1      -1.179  16.494  19.785  0.00  0.00    +0.000 A 
ATOM     18  C   UNL     1      -1.415  15.836  20.992  0.00  0.00    +0.000 A 
ATOM     19  C   UNL     1      -0.789  14.600  21.252  0.00  0.00    +0.000 A 
BRANCH  17  20
ATOM     20  O   UNL     1      -1.655  17.729  19.454  0.00  0.00    +0.000 OA
ATOM     21  C   UNL     1      -0.780  18.518  18.647  0.00  0.00    +0.000 C 
ENDBRANCH  17  20
ENDBRANCH  12  14
ENDBRANCH   9  10
BRANCH   1  23
ATOM     22  C   UNL     1      -1.160  10.639  23.106  0.00  0.00    +0.000 C 
ATOM     23  C   UNL     1       0.120   9.820  23.140  0.00  0.00    +0.000 C 
ENDBRANCH   1  23
BRANCH   4  24
ATOM     24  O   UNL     1       2.462   5.920  20.611  0.00  0.00    +0.000 OA
BRANCH  24  25
ATOM     25  C   UNL     1       2.458   4.639  19.979  0.00  0.00    +0.000 C 
BRANCH  25  26
ATOM     26  C   UNL     1       3.886   4.094  19.887  0.00  0.00    +0.000 C 
BRANCH  26  27
ATOM     27  C   UNL     1       4.366   4.106  18.452  0.00  0.00    +0.000 A 
ATOM     28  C   UNL     1       3.536   3.630  17.431  0.00  0.00    +0.000 A 
ATOM     29  C   UNL     1       3.999   3.579  16.115  0.00  0.00    +0.000 A 
ATOM     30  C   UNL     1       5.297   3.992  15.822  0.00  0.00    +0.000 A 
ATOM     31  C   UNL     1       6.143   4.462  16.828  0.00  0.00    +0.000 A 
ATOM     32  C   UNL     1       5.671   4.520  18.141  0.00  0.00    +0.000 A 
BRANCH  31  33
ATOM     33  O   UNL     1       7.393   4.818  16.403  0.00  0.00    +0.000 OA
ATOM     34  C   UNL     1       7.568   5.009  15.005  0.00  0.00    +0.000 C 
ENDBRANCH  31  33
ENDBRANCH  26  27
ENDBRANCH  25  26
ENDBRANCH  24  25
ENDBRANCH   4  24
TORSDOF 9
ENDMDL
MODEL 9
REMARK VINA RESULT:      -6.9      2.692     10.620
REMARK  Name = 
REMARK  13 active torsions:
REMARK  status: ('A' for Active; 'I' for Inactive)
REMARK    1  A    between atoms: C_1  and  C_2
REMARK    2  A    between atoms: C_2  and  C_3
REMARK    3  A    between atoms: C_6  and  O_7
REMARK    4  A    between atoms: O_7  and  C_8
REMARK    5  A    between atoms: C_8  and  C_9
REMARK    6  A    between atoms: C_9  and  C_10
REMARK    7  A    between atoms: C_14  and  O_15
REMARK    8  A    between atoms: O_15  and  C_16
REMARK    9  A    between atoms: C_22  and  N_23
REMARK   10  A    between atoms: N_23  and  C_24
REMARK   11  A    between atoms: C_25  and  C_27
REMARK   12  A    between atoms: C_30  and  O_31
REMARK   13  A    between atoms: O_31  and  C_32
REMARK                            x       y       z     vdW  Elec       q    Type
REMARK                         _______ _______ _______ _____ _____    ______ ____
ROOT
ATOM      1  C   UNL     1       2.038   6.071  20.420  0.00  0.00    +0.000 A 
ATOM      2  N   UNL     1       1.453   7.060  21.164  0.00  0.00    +0.000 NA
ATOM      3  C   UNL     1       1.364   8.108  20.383  0.00  0.00    +0.000 A 
ATOM      4  C   UNL     1       0.870   9.423  20.679  0.00  0.00    +0.000 A 
ATOM      5  C   UNL     1       0.899  10.367  19.716  0.00  0.00    +0.000 A 
ATOM      6  C   UNL     1       1.448  10.086  18.402  0.00  0.00    +0.000 A 
ATOM      7  C   UNL     1       1.930   8.861  18.139  0.00  0.00    +0.000 A 
ATOM      8  N   UNL     1       1.866   7.840  19.098  0.00  0.00    +0.000 N 
ATOM      9  C   UNL     1       2.312   6.495  19.106  0.00  0.00    +0.000 A 
ENDROOT
BRANCH   9  10
ATOM     10  N   UNL     1       2.993   5.775  18.066  0.00  0.00    +0.000 N 
ATOM     11  C   UNL     1       2.275   4.672  17.423  0.00  0.00    +0.000 C 
ATOM     12  C   UNL     1       4.265   6.186  17.575  0.00  0.00    +0.000 C 
ATOM     13  O   UNL     1       4.905   7.159  17.971  0.00  0.00    +0.000 OA
BRANCH  12  14
ATOM     14  C   UNL     1       4.933   5.423  16.453  0.00  0.00    +0.000 A 
ATOM     15  C   UNL     1       5.259   6.025  15.232  0.00  0.00    +0.000 A 
ATOM     16  C   UNL     1       5.809   5.275  14.189  0.00  0.00    +0.000 A 
ATOM     17  C   UNL     1       6.159   3.942  14.384  0.00  0.00    +0.000 A 
ATOM     18  C   UNL     1       5.923   3.344  15.622  0.00  0.00    +0.000 A 
ATOM     19  C   UNL     1       5.305   4.081  16.651  0.00  0.00    +0.000 A 
BRANCH  17  20
ATOM     20  O   UNL     1       6.669   3.309  13.287  0.00  0.00    +0.000 OA
ATOM     21  C   UNL     1       5.771   3.198  12.182  0.00  0.00    +0.000 C 
ENDBRANCH  17  20
ENDBRANCH  12  14
ENDBRANCH   9  10
BRANCH   1  23
ATOM     22  C   UNL     1       1.218   3.715  20.736  0.00  0.00    +0.000 C 
ATOM     23  C   UNL     1       2.223   4.776  21.151  0.00  0.00    +0.000 C 
ENDBRANCH   1  23
BRANCH   4  24
ATOM     24  O   UNL     1       0.418   9.588  21.976  0.00  0.00    +0.000 OA
BRANCH  24  25
ATOM     25  C   UNL     1      -0.015  10.903  22.328  0.00  0.00    +0.000 C 
BRANCH  25  26
ATOM     26  C   UNL     1      -1.326  10.831  23.116  0.00  0.00    +0.000 C 
BRANCH  26  27
ATOM     27  C   UNL     1      -2.265  11.936  22.683  0.00  0.00    +0.000 A 
ATOM     28  C   UNL     1      -2.235  12.406  21.366  0.00  0.00    +0.000 A 
ATOM     29  C   UNL     1      -3.054  13.468  20.980  0.00  0.00    +0.000 A 
ATOM     30  C   UNL     1      -3.894  14.069  21.914  0.00  0.00    +0.000 A 
ATOM     31  C   UNL     1      -3.933  13.620  23.236  0.00  0.00    +0.000 A 
ATOM     32  C   UNL     1      -3.118  12.551  23.614  0.00  0.00    +0.000 A 
BRANCH  31  33
ATOM     33  O   UNL     1      -4.788  14.309  24.050  0.00  0.00    +0.000 OA
ATOM     34  C   UNL     1      -6.091  14.570  23.541  0.00  0.00    +0.000 C 
ENDBRANCH  31  33
ENDBRANCH  26  27
ENDBRANCH  25  26
ENDBRANCH  24  25
ENDBRANCH   4  24
TORSDOF 9
ENDMDL
