MODEL 1
REMARK VINA RESULT:      -7.1      0.000      0.000
REMARK  Name = 
REMARK  6 active torsions:
REMARK  status: ('A' for Active; 'I' for Inactive)
REMARK    1  A    between atoms: C_1  and  O_2
REMARK    2  A    between atoms: O_2  and  C_3
REMARK    3  A    between atoms: C_6  and  O_7
REMARK    4  A    between atoms: O_7  and  C_8
REMARK    5  A    between atoms: C_12  and  C_13
REMARK    6  A    between atoms: N_21  and  C_22
REMARK                            x       y       z     vdW  Elec       q    Type
REMARK                         _______ _______ _______ _____ _____    ______ ____
ROOT
ATOM      1  C   UNL     1       2.521   4.309  20.456  0.00  0.00    +0.000 A 
ATOM      2  C   UNL     1       3.224   3.410  19.645  0.00  0.00    +0.000 A 
ATOM      3  C   UNL     1       3.706   3.800  18.402  0.00  0.00    +0.000 A 
ATOM      4  C   UNL     1       3.519   5.103  17.927  0.00  0.00    +0.000 A 
ATOM      5  C   UNL     1       2.815   6.023  18.745  0.00  0.00    +0.000 A 
ATOM      6  C   UNL     1       2.304   5.636  19.998  0.00  0.00    +0.000 A 
ATOM      7  C   UNL     1       1.710   6.799  20.561  0.00  0.00    +0.000 A 
ATOM      8  C   UNL     1       1.718   7.832  19.645  0.00  0.00    +0.000 A 
ATOM      9  N   UNL     1       2.585   7.392  18.646  0.00  0.00    +0.000 N 
ATOM     10  C   UNL     1       3.235   8.255  17.684  0.00  0.00    +0.000 C 
ENDROOT
BRANCH   8  11
ATOM     11  C   UNL     1       1.117   9.175  19.722  0.00  0.00    +0.000 C 
ATOM     12  O   UNL     1       0.807   9.780  18.694  0.00  0.00    +0.000 OA
ATOM     13  N   UNL     1       0.872   9.777  20.957  0.00  0.00    +0.000 N 
ATOM     14  C   UNL     1       1.021   9.208  22.303  0.00  0.00    +0.000 C 
ATOM     15  C   UNL     1      -0.132   9.608  23.241  0.00  0.00    +0.000 C 
ATOM     16  O   UNL     1      -0.401  11.013  23.214  0.00  0.00    +0.000 OA
ATOM     17  C   UNL     1      -0.705  11.436  21.876  0.00  0.00    +0.000 C 
ATOM     18  C   UNL     1       0.497  11.198  20.969  0.00  0.00    +0.000 C 
ENDBRANCH   8  11
BRANCH   1  20
ATOM     19  C   UNL     1       1.600   2.540  21.764  0.00  0.00    +0.000 C 
ATOM     20  O   UNL     1       2.241   3.806  21.720  0.00  0.00    +0.000 OA
ENDBRANCH   1  20
BRANCH   4  21
ATOM     21  O   UNL     1       4.282   5.416  16.812  0.00  0.00    +0.000 OA
ATOM     22  C   UNL     1       4.999   4.338  16.220  0.00  0.00    +0.000 C 
ENDBRANCH   4  21
TORSDOF 3
ENDMDL
MODEL 2
REMARK VINA RESULT:      -7.0      1.535      1.774
REMARK  Name = 
REMARK  6 active torsions:
REMARK  status: ('A' for Active; 'I' for Inactive)
REMARK    1  A    between atoms: C_1  and  O_2
REMARK    2  A    between atoms: O_2  and  C_3
REMARK    3  A    between atoms: C_6  and  O_7
REMARK    4  A    between atoms: O_7  and  C_8
REMARK    5  A    between atoms: C_12  and  C_13
REMARK    6  A    between atoms: N_21  and  C_22
REMARK                            x       y       z     vdW  Elec       q    Type
REMARK                         _______ _______ _______ _____ _____    ______ ____
ROOT
ATOM      1  C   UNL     1       2.204   3.165  19.110  0.00  0.00    +0.000 A 
ATOM      2  C   UNL     1       3.062   2.180  18.606  0.00  0.00    +0.000 A 
ATOM      3  C   UNL     1       4.106   2.515  17.754  0.00  0.00    +0.000 A 
ATOM      4  C   UNL     1       4.345   3.845  17.387  0.00  0.00    +0.000 A 
ATOM      5  C   UNL     1       3.487   4.850  17.900  0.00  0.00    +0.000 A 
ATOM      6  C   UNL     1       2.412   4.522  18.748  0.00  0.00    +0.000 A 
ATOM      7  C   UNL     1       1.801   5.754  19.109  0.00  0.00    +0.000 A 
ATOM      8  C   UNL     1       2.373   6.796  18.406  0.00  0.00    +0.000 A 
ATOM      9  N   UNL     1       3.526   6.240  17.854  0.00  0.00    +0.000 N 
ATOM     10  C   UNL     1       4.659   7.003  17.378  0.00  0.00    +0.000 C 
ENDROOT
BRANCH   8  11
ATOM     11  C   UNL     1       2.003   8.221  18.351  0.00  0.00    +0.000 C 
ATOM     12  O   UNL     1       2.078   8.845  17.291  0.00  0.00    +0.000 OA
ATOM     13  N   UNL     1       1.543   8.883  19.490  0.00  0.00    +0.000 N 
ATOM     14  C   UNL     1       1.237   8.329  20.815  0.00  0.00    +0.000 C 
ATOM     15  C   UNL     1      -0.041   8.934  21.424  0.00  0.00    +0.000 C 
ATOM     16  O   UNL     1      -0.058  10.364  21.357  0.00  0.00    +0.000 OA
ATOM     17  C   UNL     1       0.075  10.799  19.996  0.00  0.00    +0.000 C 
ATOM     18  C   UNL     1       1.418  10.347  19.432  0.00  0.00    +0.000 C 
ENDBRANCH   8  11
BRANCH   1  20
ATOM     19  C   UNL     1       1.696   2.826  21.416  0.00  0.00    +0.000 C 
ATOM     20  O   UNL     1       1.310   2.681  20.058  0.00  0.00    +0.000 OA
ENDBRANCH   1  20
BRANCH   4  21
ATOM     21  O   UNL     1       5.569   4.051  16.766  0.00  0.00    +0.000 OA
ATOM     22  C   UNL     1       5.556   4.060  15.343  0.00  0.00    +0.000 C 
ENDBRANCH   4  21
TORSDOF 3
ENDMDL
MODEL 3
REMARK VINA RESULT:      -6.8      1.428      1.578
REMARK  Name = 
REMARK  6 active torsions:
REMARK  status: ('A' for Active; 'I' for Inactive)
REMARK    1  A    between atoms: C_1  and  O_2
REMARK    2  A    between atoms: O_2  and  C_3
REMARK    3  A    between atoms: C_6  and  O_7
REMARK    4  A    between atoms: O_7  and  C_8
REMARK    5  A    between atoms: C_12  and  C_13
REMARK    6  A    between atoms: N_21  and  C_22
REMARK                            x       y       z     vdW  Elec       q    Type
REMARK                         _______ _______ _______ _____ _____    ______ ____
ROOT
ATOM      1  C   UNL     1       2.698   4.065  20.362  0.00  0.00    +0.000 A 
ATOM      2  C   UNL     1       3.523   3.001  19.978  0.00  0.00    +0.000 A 
ATOM      3  C   UNL     1       4.359   3.111  18.875  0.00  0.00    +0.000 A 
ATOM      4  C   UNL     1       4.418   4.290  18.123  0.00  0.00    +0.000 A 
ATOM      5  C   UNL     1       3.593   5.377  18.510  0.00  0.00    +0.000 A 
ATOM      6  C   UNL     1       2.725   5.271  19.613  0.00  0.00    +0.000 A 
ATOM      7  C   UNL     1       2.096   6.540  19.746  0.00  0.00    +0.000 A 
ATOM      8  C   UNL     1       2.440   7.358  18.688  0.00  0.00    +0.000 A 
ATOM      9  N   UNL     1       3.511   6.699  18.085  0.00  0.00    +0.000 N 
ATOM     10  C   UNL     1       4.470   7.327  17.203  0.00  0.00    +0.000 C 
ENDROOT
BRANCH   8  11
ATOM     11  C   UNL     1       1.953   8.700  18.328  0.00  0.00    +0.000 C 
ATOM     12  O   UNL     1       2.030   9.102  17.165  0.00  0.00    +0.000 OA
ATOM     13  N   UNL     1       1.380   9.534  19.290  0.00  0.00    +0.000 N 
ATOM     14  C   UNL     1       1.053   9.232  20.689  0.00  0.00    +0.000 C 
ATOM     15  C   UNL     1      -0.301   9.825  21.117  0.00  0.00    +0.000 C 
ATOM     16  O   UNL     1      -0.437  11.204  20.756  0.00  0.00    +0.000 OA
ATOM     17  C   UNL     1      -0.271  11.365  19.339  0.00  0.00    +0.000 C 
ATOM     18  C   UNL     1       1.133  10.937  18.927  0.00  0.00    +0.000 C 
ENDBRANCH   8  11
BRANCH   1  20
ATOM     19  C   UNL     1       1.661   2.502  21.836  0.00  0.00    +0.000 C 
ATOM     20  O   UNL     1       2.039   3.843  21.565  0.00  0.00    +0.000 OA
ENDBRANCH   1  20
BRANCH   4  21
ATOM     21  O   UNL     1       5.483   4.346  17.237  0.00  0.00    +0.000 OA
ATOM     22  C   UNL     1       6.759   4.617  17.806  0.00  0.00    +0.000 C 
ENDBRANCH   4  21
TORSDOF 3
ENDMDL
MODEL 4
REMARK VINA RESULT:      -6.8      2.009      7.337
REMARK  Name = 
REMARK  6 active torsions:
REMARK  status: ('A' for Active; 'I' for Inactive)
REMARK    1  A    between atoms: C_1  and  O_2
REMARK    2  A    between atoms: O_2  and  C_3
REMARK    3  A    between atoms: C_6  and  O_7
REMARK    4  A    between atoms: O_7  and  C_8
REMARK    5  A    between atoms: C_12  and  C_13
REMARK    6  A    between atoms: N_21  and  C_22
REMARK                            x       y       z     vdW  Elec       q    Type
REMARK                         _______ _______ _______ _____ _____    ______ ____
ROOT
ATOM      1  C   UNL     1       1.744  10.523  18.569  0.00  0.00    +0.000 A 
ATOM      2  C   UNL     1       1.048  11.175  19.595  0.00  0.00    +0.000 A 
ATOM      3  C   UNL     1       0.557  10.466  20.683  0.00  0.00    +0.000 A 
ATOM      4  C   UNL     1       0.754   9.085  20.799  0.00  0.00    +0.000 A 
ATOM      5  C   UNL     1       1.465   8.418  19.770  0.00  0.00    +0.000 A 
ATOM      6  C   UNL     1       1.951   9.121  18.651  0.00  0.00    +0.000 A 
ATOM      7  C   UNL     1       2.646   8.169  17.855  0.00  0.00    +0.000 A 
ATOM      8  C   UNL     1       2.481   6.900  18.373  0.00  0.00    +0.000 A 
ATOM      9  N   UNL     1       1.948   7.119  19.643  0.00  0.00    +0.000 N 
ATOM     10  C   UNL     1       1.974   6.156  20.722  0.00  0.00    +0.000 C 
ENDROOT
BRANCH   8  11
ATOM     11  C   UNL     1       2.904   5.594  17.841  0.00  0.00    +0.000 C 
ATOM     12  O   UNL     1       2.068   4.733  17.558  0.00  0.00    +0.000 OA
ATOM     13  N   UNL     1       4.255   5.313  17.629  0.00  0.00    +0.000 N 
ATOM     14  C   UNL     1       5.411   6.211  17.753  0.00  0.00    +0.000 C 
ATOM     15  C   UNL     1       6.436   6.008  16.623  0.00  0.00    +0.000 C 
ATOM     16  O   UNL     1       6.770   4.631  16.425  0.00  0.00    +0.000 OA
ATOM     17  C   UNL     1       5.587   3.869  16.138  0.00  0.00    +0.000 C 
ATOM     18  C   UNL     1       4.631   3.925  17.325  0.00  0.00    +0.000 C 
ENDBRANCH   8  11
BRANCH   1  20
ATOM     19  C   UNL     1       2.615  12.695  18.106  0.00  0.00    +0.000 C 
ATOM     20  O   UNL     1       2.291  11.396  17.636  0.00  0.00    +0.000 OA
ENDBRANCH   1  20
BRANCH   4  21
ATOM     21  O   UNL     1       0.454   8.572  22.052  0.00  0.00    +0.000 OA
ATOM     22  C   UNL     1      -0.054   9.500  23.005  0.00  0.00    +0.000 C 
ENDBRANCH   4  21
TORSDOF 3
ENDMDL
MODEL 5
REMARK VINA RESULT:      -6.8      1.891      3.860
REMARK  Name = 
REMARK  6 active torsions:
REMARK  status: ('A' for Active; 'I' for Inactive)
REMARK    1  A    between atoms: C_1  and  O_2
REMARK    2  A    between atoms: O_2  and  C_3
REMARK    3  A    between atoms: C_6  and  O_7
REMARK    4  A    between atoms: O_7  and  C_8
REMARK    5  A    between atoms: C_12  and  C_13
REMARK    6  A    between atoms: N_21  and  C_22
REMARK                            x       y       z     vdW  Elec       q    Type
REMARK                         _______ _______ _______ _____ _____    ______ ____
ROOT
ATOM      1  C   UNL     1       4.524   5.274  16.995  0.00  0.00    +0.000 A 
ATOM      2  C   UNL     1       4.788   3.901  16.928  0.00  0.00    +0.000 A 
ATOM      3  C   UNL     1       4.209   3.020  17.833  0.00  0.00    +0.000 A 
ATOM      4  C   UNL     1       3.334   3.473  18.828  0.00  0.00    +0.000 A 
ATOM      5  C   UNL     1       3.054   4.861  18.897  0.00  0.00    +0.000 A 
ATOM      6  C   UNL     1       3.650   5.767  17.999  0.00  0.00    +0.000 A 
ATOM      7  C   UNL     1       3.118   7.048  18.316  0.00  0.00    +0.000 A 
ATOM      8  C   UNL     1       2.338   6.975  19.453  0.00  0.00    +0.000 A 
ATOM      9  N   UNL     1       2.148   5.607  19.645  0.00  0.00    +0.000 N 
ATOM     10  C   UNL     1       1.090   5.029  20.446  0.00  0.00    +0.000 C 
ENDROOT
BRANCH   8  11
ATOM     11  C   UNL     1       1.683   8.043  20.226  0.00  0.00    +0.000 C 
ATOM     12  O   UNL     1       1.504   7.917  21.439  0.00  0.00    +0.000 OA
ATOM     13  N   UNL     1       1.273   9.224  19.605  0.00  0.00    +0.000 N 
ATOM     14  C   UNL     1       1.501   9.663  18.222  0.00  0.00    +0.000 C 
ATOM     15  C   UNL     1       1.848  11.159  18.131  0.00  0.00    +0.000 C 
ATOM     16  O   UNL     1       0.943  11.981  18.875  0.00  0.00    +0.000 OA
ATOM     17  C   UNL     1       0.926  11.578  20.253  0.00  0.00    +0.000 C 
ATOM     18  C   UNL     1       0.420  10.145  20.371  0.00  0.00    +0.000 C 
ENDBRANCH   8  11
BRANCH   1  20
ATOM     19  C   UNL     1       5.671   5.222  14.904  0.00  0.00    +0.000 C 
ATOM     20  O   UNL     1       5.063   5.989  15.932  0.00  0.00    +0.000 OA
ENDBRANCH   1  20
BRANCH   4  21
ATOM     21  O   UNL     1       2.631   2.463  19.469  0.00  0.00    +0.000 OA
ATOM     22  C   UNL     1       1.483   1.968  18.787  0.00  0.00    +0.000 C 
ENDBRANCH   4  21
TORSDOF 3
ENDMDL
MODEL 6
REMARK VINA RESULT:      -6.8      2.184      4.013
REMARK  Name = 
REMARK  6 active torsions:
REMARK  status: ('A' for Active; 'I' for Inactive)
REMARK    1  A    between atoms: C_1  and  O_2
REMARK    2  A    between atoms: O_2  and  C_3
REMARK    3  A    between atoms: C_6  and  O_7
REMARK    4  A    between atoms: O_7  and  C_8
REMARK    5  A    between atoms: C_12  and  C_13
REMARK    6  A    between atoms: N_21  and  C_22
REMARK                            x       y       z     vdW  Elec       q    Type
REMARK                         _______ _______ _______ _____ _____    ______ ____
ROOT
ATOM      1  C   UNL     1       5.726   5.982  16.795  0.00  0.00    +0.000 A 
ATOM      2  C   UNL     1       6.020   4.713  16.282  0.00  0.00    +0.000 A 
ATOM      3  C   UNL     1       5.181   3.634  16.529  0.00  0.00    +0.000 A 
ATOM      4  C   UNL     1       4.011   3.782  17.284  0.00  0.00    +0.000 A 
ATOM      5  C   UNL     1       3.701   5.066  17.800  0.00  0.00    +0.000 A 
ATOM      6  C   UNL     1       4.553   6.163  17.574  0.00  0.00    +0.000 A 
ATOM      7  C   UNL     1       3.923   7.285  18.181  0.00  0.00    +0.000 A 
ATOM      8  C   UNL     1       2.803   6.885  18.881  0.00  0.00    +0.000 A 
ATOM      9  N   UNL     1       2.581   5.578  18.448  0.00  0.00    +0.000 N 
ATOM     10  C   UNL     1       1.323   4.874  18.571  0.00  0.00    +0.000 C 
ENDROOT
BRANCH   8  11
ATOM     11  C   UNL     1       1.905   7.656  19.758  0.00  0.00    +0.000 C 
ATOM     12  O   UNL     1       1.622   7.240  20.884  0.00  0.00    +0.000 OA
ATOM     13  N   UNL     1       1.375   8.878  19.341  0.00  0.00    +0.000 N 
ATOM     14  C   UNL     1       1.672   9.639  18.120  0.00  0.00    +0.000 C 
ATOM     15  C   UNL     1       1.779  11.152  18.384  0.00  0.00    +0.000 C 
ATOM     16  O   UNL     1       0.679  11.656  19.148  0.00  0.00    +0.000 OA
ATOM     17  C   UNL     1       0.583  10.959  20.400  0.00  0.00    +0.000 C 
ATOM     18  C   UNL     1       0.308   9.480  20.153  0.00  0.00    +0.000 C 
ENDBRANCH   8  11
BRANCH   1  20
ATOM     19  C   UNL     1       7.541   7.458  17.262  0.00  0.00    +0.000 C 
ATOM     20  O   UNL     1       6.584   6.973  16.333  0.00  0.00    +0.000 OA
ENDBRANCH   1  20
BRANCH   4  21
ATOM     21  O   UNL     1       3.149   2.698  17.213  0.00  0.00    +0.000 OA
ATOM     22  C   UNL     1       3.294   1.714  18.232  0.00  0.00    +0.000 C 
ENDBRANCH   4  21
TORSDOF 3
ENDMDL
MODEL 7
REMARK VINA RESULT:      -6.7      1.952      6.434
REMARK  Name = 
REMARK  6 active torsions:
REMARK  status: ('A' for Active; 'I' for Inactive)
REMARK    1  A    between atoms: C_1  and  O_2
REMARK    2  A    between atoms: O_2  and  C_3
REMARK    3  A    between atoms: C_6  and  O_7
REMARK    4  A    between atoms: O_7  and  C_8
REMARK    5  A    between atoms: C_12  and  C_13
REMARK    6  A    between atoms: N_21  and  C_22
REMARK                            x       y       z     vdW  Elec       q    Type
REMARK                         _______ _______ _______ _____ _____    ______ ____
ROOT
ATOM      1  C   UNL     1       0.285   9.063  21.243  0.00  0.00    +0.000 A 
ATOM      2  C   UNL     1       0.030  10.382  20.850  0.00  0.00    +0.000 A 
ATOM      3  C   UNL     1       0.665  10.929  19.742  0.00  0.00    +0.000 A 
ATOM      4  C   UNL     1       1.565  10.178  18.977  0.00  0.00    +0.000 A 
ATOM      5  C   UNL     1       1.822   8.838  19.363  0.00  0.00    +0.000 A 
ATOM      6  C   UNL     1       1.201   8.278  20.495  0.00  0.00    +0.000 A 
ATOM      7  C   UNL     1       1.640   6.926  20.560  0.00  0.00    +0.000 A 
ATOM      8  C   UNL     1       2.604   6.689  19.600  0.00  0.00    +0.000 A 
ATOM      9  N   UNL     1       2.528   7.800  18.761  0.00  0.00    +0.000 N 
ATOM     10  C   UNL     1       3.034   7.843  17.407  0.00  0.00    +0.000 C 
ENDROOT
BRANCH   8  11
ATOM     11  C   UNL     1       3.429   5.493  19.359  0.00  0.00    +0.000 C 
ATOM     12  O   UNL     1       4.608   5.464  19.720  0.00  0.00    +0.000 OA
ATOM     13  N   UNL     1       2.890   4.368  18.735  0.00  0.00    +0.000 N 
ATOM     14  C   UNL     1       1.496   4.111  18.348  0.00  0.00    +0.000 C 
ATOM     15  C   UNL     1       1.063   2.663  18.640  0.00  0.00    +0.000 C 
ATOM     16  O   UNL     1       2.003   1.699  18.158  0.00  0.00    +0.000 OA
ATOM     17  C   UNL     1       3.297   1.935  18.733  0.00  0.00    +0.000 C 
ATOM     18  C   UNL     1       3.813   3.306  18.310  0.00  0.00    +0.000 C 
ENDBRANCH   8  11
BRANCH   1  20
ATOM     19  C   UNL     1      -0.662   9.501  23.388  0.00  0.00    +0.000 C 
ATOM     20  O   UNL     1      -0.538   8.629  22.275  0.00  0.00    +0.000 OA
ENDBRANCH   1  20
BRANCH   4  21
ATOM     21  O   UNL     1       1.901  10.759  17.763  0.00  0.00    +0.000 OA
ATOM     22  C   UNL     1       2.520  12.040  17.831  0.00  0.00    +0.000 C 
ENDBRANCH   4  21
TORSDOF 3
ENDMDL
MODEL 8
REMARK VINA RESULT:      -6.7      2.052      7.107
REMARK  Name = 
REMARK  6 active torsions:
REMARK  status: ('A' for Active; 'I' for Inactive)
REMARK    1  A    between atoms: C_1  and  O_2
REMARK    2  A    between atoms: O_2  and  C_3
REMARK    3  A    between atoms: C_6  and  O_7
REMARK    4  A    between atoms: O_7  and  C_8
REMARK    5  A    between atoms: C_12  and  C_13
REMARK    6  A    between atoms: N_21  and  C_22
REMARK                            x       y       z     vdW  Elec       q    Type
REMARK                         _______ _______ _______ _____ _____    ______ ____
ROOT
ATOM      1  C   UNL     1       1.643  10.414  18.291  0.00  0.00    +0.000 A 
ATOM      2  C   UNL     1       0.665  11.005  19.098  0.00  0.00    +0.000 A 
ATOM      3  C   UNL     1       0.065  10.291  20.128  0.00  0.00    +0.000 A 
ATOM      4  C   UNL     1       0.430   8.968  20.402  0.00  0.00    +0.000 A 
ATOM      5  C   UNL     1       1.427   8.363  19.594  0.00  0.00    +0.000 A 
ATOM      6  C   UNL     1       2.027   9.069  18.535  0.00  0.00    +0.000 A 
ATOM      7  C   UNL     1       3.001   8.194  17.977  0.00  0.00    +0.000 A 
ATOM      8  C   UNL     1       2.916   6.947  18.563  0.00  0.00    +0.000 A 
ATOM      9  N   UNL     1       2.106   7.152  19.680  0.00  0.00    +0.000 N 
ATOM     10  C   UNL     1       2.046   6.268  20.824  0.00  0.00    +0.000 C 
ENDROOT
BRANCH   8  11
ATOM     11  C   UNL     1       3.623   5.696  18.241  0.00  0.00    +0.000 C 
ATOM     12  O   UNL     1       4.854   5.646  18.284  0.00  0.00    +0.000 OA
ATOM     13  N   UNL     1       2.915   4.543  17.901  0.00  0.00    +0.000 N 
ATOM     14  C   UNL     1       1.464   4.317  17.918  0.00  0.00    +0.000 C 
ATOM     15  C   UNL     1       1.093   2.926  18.464  0.00  0.00    +0.000 C 
ATOM     16  O   UNL     1       1.852   1.876  17.856  0.00  0.00    +0.000 OA
ATOM     17  C   UNL     1       3.256   2.105  18.047  0.00  0.00    +0.000 C 
ATOM     18  C   UNL     1       3.671   3.403  17.363  0.00  0.00    +0.000 C 
ENDBRANCH   8  11
BRANCH   1  20
ATOM     19  C   UNL     1       2.608  12.568  17.947  0.00  0.00    +0.000 C 
ATOM     20  O   UNL     1       2.241  11.307  17.409  0.00  0.00    +0.000 OA
ENDBRANCH   1  20
BRANCH   4  21
ATOM     21  O   UNL     1      -0.046   8.486  21.612  0.00  0.00    +0.000 OA
ATOM     22  C   UNL     1      -0.193   9.445  22.654  0.00  0.00    +0.000 C 
ENDBRANCH   4  21
TORSDOF 3
ENDMDL
MODEL 9
REMARK VINA RESULT:      -6.6      4.018      6.718
REMARK  Name = 
REMARK  6 active torsions:
REMARK  status: ('A' for Active; 'I' for Inactive)
REMARK    1  A    between atoms: C_1  and  O_2
REMARK    2  A    between atoms: O_2  and  C_3
REMARK    3  A    between atoms: C_6  and  O_7
REMARK    4  A    between atoms: O_7  and  C_8
REMARK    5  A    between atoms: C_12  and  C_13
REMARK    6  A    between atoms: N_21  and  C_22
REMARK                            x       y       z     vdW  Elec       q    Type
REMARK                         _______ _______ _______ _____ _____    ______ ____
ROOT
ATOM      1  C   UNL     1       6.295   4.086  14.278  0.00  0.00    +0.000 A 
ATOM      2  C   UNL     1       7.225   5.123  14.143  0.00  0.00    +0.000 A 
ATOM      3  C   UNL     1       7.556   5.928  15.225  0.00  0.00    +0.000 A 
ATOM      4  C   UNL     1       6.984   5.719  16.486  0.00  0.00    +0.000 A 
ATOM      5  C   UNL     1       6.047   4.665  16.635  0.00  0.00    +0.000 A 
ATOM      6  C   UNL     1       5.688   3.855  15.541  0.00  0.00    +0.000 A 
ATOM      7  C   UNL     1       4.781   2.884  16.048  0.00  0.00    +0.000 A 
ATOM      8  C   UNL     1       4.470   3.160  17.365  0.00  0.00    +0.000 A 
ATOM      9  N   UNL     1       5.418   4.109  17.744  0.00  0.00    +0.000 N 
ATOM     10  C   UNL     1       5.772   4.415  19.114  0.00  0.00    +0.000 C 
ENDROOT
BRANCH   8  11
ATOM     11  C   UNL     1       3.498   2.518  18.266  0.00  0.00    +0.000 C 
ATOM     12  O   UNL     1       3.593   1.318  18.534  0.00  0.00    +0.000 OA
ATOM     13  N   UNL     1       2.467   3.257  18.846  0.00  0.00    +0.000 N 
ATOM     14  C   UNL     1       2.232   4.706  18.794  0.00  0.00    +0.000 C 
ATOM     15  C   UNL     1       1.772   5.275  20.148  0.00  0.00    +0.000 C 
ATOM     16  O   UNL     1       0.705   4.519  20.729  0.00  0.00    +0.000 OA
ATOM     17  C   UNL     1       1.100   3.149  20.897  0.00  0.00    +0.000 C 
ATOM     18  C   UNL     1       1.398   2.523  19.539  0.00  0.00    +0.000 C 
ENDBRANCH   8  11
BRANCH   1  20
ATOM     19  C   UNL     1       5.117   3.588  12.264  0.00  0.00    +0.000 C 
ATOM     20  O   UNL     1       6.190   3.290  13.143  0.00  0.00    +0.000 OA
ENDBRANCH   1  20
BRANCH   4  21
ATOM     21  O   UNL     1       7.608   6.411  17.514  0.00  0.00    +0.000 OA
ATOM     22  C   UNL     1       7.546   7.831  17.442  0.00  0.00    +0.000 C 
ENDBRANCH   4  21
TORSDOF 3
ENDMDL
