MODEL 1
REMARK VINA RESULT:      -7.6      0.000      0.000
REMARK  Name = 
REMARK  11 active torsions:
REMARK  status: ('A' for Active; 'I' for Inactive)
REMARK    1  A    between atoms: C_1  and  C_2
REMARK    2  A    between atoms: C_2  and  C_3
REMARK    3  A    between atoms: C_2  and  C_4
REMARK    4  A    between atoms: C_2  and  S_5
REMARK    5  A    between atoms: S_5  and  N_7
REMARK    6  A    between atoms: C_11  and  C_12
REMARK    7  A    between atoms: C_12  and  O_13
REMARK    8  A    between atoms: C_15  and  C_16
REMARK    9  A    between atoms: C_23  and  C_24
REMARK   10  A    between atoms: C_24  and  C_25
REMARK   11  A    between atoms: C_25  and  O_26
REMARK                            x       y       z     vdW  Elec       q    Type
REMARK                         _______ _______ _______ _____ _____    ______ ____
ROOT
ATOM      1  N   UNL     1       5.823   5.266  17.377  0.00  0.00    +0.000 NA
ATOM      2  C   UNL     1       5.477   6.663  17.031  0.00  0.00    +0.000 C 
ATOM      3  C   UNL     1       4.198   7.005  17.742  0.00  0.00    +0.000 A 
ATOM      4  C   UNL     1       3.440   8.161  17.632  0.00  0.00    +0.000 A 
ATOM      5  C   UNL     1       2.221   8.253  18.324  0.00  0.00    +0.000 A 
ATOM      6  C   UNL     1       1.825   7.179  19.151  0.00  0.00    +0.000 A 
ATOM      7  C   UNL     1       2.573   5.987  19.261  0.00  0.00    +0.000 A 
ATOM      8  C   UNL     1       3.766   5.924  18.515  0.00  0.00    +0.000 A 
ATOM      9  C   UNL     1       4.647   4.732  18.179  0.00  0.00    +0.000 C 
ENDROOT
BRANCH   7  10
ATOM     10  C   UNL     1       2.033   4.842  20.039  0.00  0.00    +0.000 A 
ATOM     11  C   UNL     1       1.007   4.029  19.517  0.00  0.00    +0.000 A 
ATOM     12  C   UNL     1       0.583   2.868  20.176  0.00  0.00    +0.000 A 
ATOM     13  C   UNL     1       1.193   2.485  21.367  0.00  0.00    +0.000 A 
ATOM     14  C   UNL     1       2.180   3.290  21.923  0.00  0.00    +0.000 A 
ATOM     15  C   UNL     1       2.568   4.472  21.284  0.00  0.00    +0.000 A 
ENDBRANCH   7  10
BRANCH   1  16
ATOM     16  S   UNL     1       6.597   4.202  16.343  0.00  0.00    +0.000 S 
ATOM     17  O   UNL     1       8.155   4.184  16.527  0.00  0.00    +0.000 OA
BRANCH  16  19
ATOM     18  C   UNL     1       7.609   5.287  14.114  0.00  0.00    +0.000 C 
ATOM     19  C   UNL     1       6.248   4.708  14.606  0.00  0.00    +0.000 C 
ATOM     20  C   UNL     1       5.215   5.839  14.493  0.00  0.00    +0.000 C 
ATOM     21  C   UNL     1       5.870   3.558  13.683  0.00  0.00    +0.000 C 
ENDBRANCH  16  19
ENDBRANCH   1  16
BRANCH   5  22
ATOM     22  C   UNL     1       1.265   9.405  18.105  0.00  0.00    +0.000 C 
BRANCH  22  23
ATOM     23  O   UNL     1       1.880  10.483  17.416  0.00  0.00    +0.000 OA
ATOM     24  H   UNL     1       1.491  10.491  16.523  0.00  0.00    +0.000 HD
ENDBRANCH  22  23
ENDBRANCH   5  22
BRANCH   9  25
ATOM     25  C   UNL     1       3.775   3.642  17.482  0.00  0.00    +0.000 C 
BRANCH  25  26
ATOM     26  C   UNL     1       3.799   2.268  18.151  0.00  0.00    +0.000 C 
BRANCH  26  27
ATOM     27  O   UNL     1       4.620   2.299  19.315  0.00  0.00    +0.000 OA
ATOM     28  H   UNL     1       5.495   1.959  19.062  0.00  0.00    +0.000 HD
ENDBRANCH  26  27
ENDBRANCH  25  26
ENDBRANCH   9  25
TORSDOF 8
ENDMDL
MODEL 2
REMARK VINA RESULT:      -7.1      0.203      1.274
REMARK  Name = 
REMARK  11 active torsions:
REMARK  status: ('A' for Active; 'I' for Inactive)
REMARK    1  A    between atoms: C_1  and  C_2
REMARK    2  A    between atoms: C_2  and  C_3
REMARK    3  A    between atoms: C_2  and  C_4
REMARK    4  A    between atoms: C_2  and  S_5
REMARK    5  A    between atoms: S_5  and  N_7
REMARK    6  A    between atoms: C_11  and  C_12
REMARK    7  A    between atoms: C_12  and  O_13
REMARK    8  A    between atoms: C_15  and  C_16
REMARK    9  A    between atoms: C_23  and  C_24
REMARK   10  A    between atoms: C_24  and  C_25
REMARK   11  A    between atoms: C_25  and  O_26
REMARK                            x       y       z     vdW  Elec       q    Type
REMARK                         _______ _______ _______ _____ _____    ______ ____
ROOT
ATOM      1  N   UNL     1       5.923   5.238  17.214  0.00  0.00    +0.000 NA
ATOM      2  C   UNL     1       5.545   6.635  16.897  0.00  0.00    +0.000 C 
ATOM      3  C   UNL     1       4.263   6.935  17.621  0.00  0.00    +0.000 A 
ATOM      4  C   UNL     1       3.480   8.076  17.537  0.00  0.00    +0.000 A 
ATOM      5  C   UNL     1       2.262   8.128  18.236  0.00  0.00    +0.000 A 
ATOM      6  C   UNL     1       1.893   7.029  19.043  0.00  0.00    +0.000 A 
ATOM      7  C   UNL     1       2.668   5.852  19.127  0.00  0.00    +0.000 A 
ATOM      8  C   UNL     1       3.858   5.830  18.374  0.00  0.00    +0.000 A 
ATOM      9  C   UNL     1       4.763   4.664  18.010  0.00  0.00    +0.000 C 
ENDROOT
BRANCH   7  10
ATOM     10  C   UNL     1       2.156   4.680  19.884  0.00  0.00    +0.000 A 
ATOM     11  C   UNL     1       2.694   4.337  21.141  0.00  0.00    +0.000 A 
ATOM     12  C   UNL     1       2.132   3.322  21.926  0.00  0.00    +0.000 A 
ATOM     13  C   UNL     1       1.004   2.641  21.478  0.00  0.00    +0.000 A 
ATOM     14  C   UNL     1       0.478   2.935  20.226  0.00  0.00    +0.000 A 
ATOM     15  C   UNL     1       1.071   3.917  19.425  0.00  0.00    +0.000 A 
ENDBRANCH   7  10
BRANCH   1  16
ATOM     16  S   UNL     1       6.715   4.212  16.156  0.00  0.00    +0.000 S 
ATOM     17  O   UNL     1       8.266   4.164  16.385  0.00  0.00    +0.000 OA
BRANCH  16  19
ATOM     18  C   UNL     1       6.052   3.501  13.661  0.00  0.00    +0.000 C 
ATOM     19  C   UNL     1       6.425   4.802  14.434  0.00  0.00    +0.000 C 
ATOM     20  C   UNL     1       7.683   5.374  13.764  0.00  0.00    +0.000 C 
ATOM     21  C   UNL     1       5.264   5.777  14.293  0.00  0.00    +0.000 C 
ENDBRANCH  16  19
ENDBRANCH   1  16
BRANCH   5  22
ATOM     22  C   UNL     1       1.280   9.263  18.044  0.00  0.00    +0.000 C 
BRANCH  22  23
ATOM     23  O   UNL     1       1.880  10.383  17.412  0.00  0.00    +0.000 OA
ATOM     24  H   UNL     1       2.615  10.033  16.878  0.00  0.00    +0.000 HD
ENDBRANCH  22  23
ENDBRANCH   5  22
BRANCH   9  25
ATOM     25  C   UNL     1       3.911   3.569  17.296  0.00  0.00    +0.000 C 
BRANCH  25  26
ATOM     26  C   UNL     1       3.907   2.203  17.982  0.00  0.00    +0.000 C 
BRANCH  26  27
ATOM     27  O   UNL     1       4.677   2.247  19.179  0.00  0.00    +0.000 OA
ATOM     28  H   UNL     1       4.587   3.142  19.549  0.00  0.00    +0.000 HD
ENDBRANCH  26  27
ENDBRANCH  25  26
ENDBRANCH   9  25
TORSDOF 8
ENDMDL
MODEL 3
REMARK VINA RESULT:      -6.5      2.505      5.764
REMARK  Name = 
REMARK  11 active torsions:
REMARK  status: ('A' for Active; 'I' for Inactive)
REMARK    1  A    between atoms: C_1  and  C_2
REMARK    2  A    between atoms: C_2  and  C_3
REMARK    3  A    between atoms: C_2  and  C_4
REMARK    4  A    between atoms: C_2  and  S_5
REMARK    5  A    between atoms: S_5  and  N_7
REMARK    6  A    between atoms: C_11  and  C_12
REMARK    7  A    between atoms: C_12  and  O_13
REMARK    8  A    between atoms: C_15  and  C_16
REMARK    9  A    between atoms: C_23  and  C_24
REMARK   10  A    between atoms: C_24  and  C_25
REMARK   11  A    between atoms: C_25  and  O_26
REMARK                            x       y       z     vdW  Elec       q    Type
REMARK                         _______ _______ _______ _____ _____    ______ ____
ROOT
ATOM      1  N   UNL     1       2.119   8.092  18.528  0.00  0.00    +0.000 NA
ATOM      2  C   UNL     1       3.238   8.433  17.620  0.00  0.00    +0.000 C 
ATOM      3  C   UNL     1       3.856   7.145  17.155  0.00  0.00    +0.000 A 
ATOM      4  C   UNL     1       4.995   6.971  16.383  0.00  0.00    +0.000 A 
ATOM      5  C   UNL     1       5.459   5.671  16.124  0.00  0.00    +0.000 A 
ATOM      6  C   UNL     1       4.722   4.573  16.622  0.00  0.00    +0.000 A 
ATOM      7  C   UNL     1       3.571   4.730  17.424  0.00  0.00    +0.000 A 
ATOM      8  C   UNL     1       3.170   6.053  17.693  0.00  0.00    +0.000 A 
ATOM      9  C   UNL     1       2.182   6.586  18.718  0.00  0.00    +0.000 C 
ENDROOT
BRANCH   7  10
ATOM     10  C   UNL     1       2.922   3.538  18.030  0.00  0.00    +0.000 A 
ATOM     11  C   UNL     1       3.665   2.616  18.794  0.00  0.00    +0.000 A 
ATOM     12  C   UNL     1       3.045   1.566  19.482  0.00  0.00    +0.000 A 
ATOM     13  C   UNL     1       1.661   1.428  19.438  0.00  0.00    +0.000 A 
ATOM     14  C   UNL     1       0.909   2.301  18.661  0.00  0.00    +0.000 A 
ATOM     15  C   UNL     1       1.538   3.320  17.937  0.00  0.00    +0.000 A 
ENDBRANCH   7  10
BRANCH   1  16
ATOM     16  S   UNL     1       1.658   9.016  19.844  0.00  0.00    +0.000 S 
ATOM     17  O   UNL     1       0.709   8.253  20.833  0.00  0.00    +0.000 OA
BRANCH  16  19
ATOM     18  C   UNL     1       0.020  11.028  20.507  0.00  0.00    +0.000 C 
ATOM     19  C   UNL     1       0.748  10.499  19.235  0.00  0.00    +0.000 C 
ATOM     20  C   UNL     1      -0.339  10.169  18.203  0.00  0.00    +0.000 C 
ATOM     21  C   UNL     1       1.646  11.614  18.715  0.00  0.00    +0.000 C 
ENDBRANCH  16  19
ENDBRANCH   1  16
BRANCH   5  22
ATOM     22  C   UNL     1       6.788   5.418  15.447  0.00  0.00    +0.000 C 
BRANCH  22  23
ATOM     23  O   UNL     1       7.681   4.695  16.280  0.00  0.00    +0.000 OA
ATOM     24  H   UNL     1       7.671   3.777  15.955  0.00  0.00    +0.000 HD
ENDBRANCH  22  23
ENDBRANCH   5  22
BRANCH   9  25
ATOM     25  C   UNL     1       2.606   6.085  20.134  0.00  0.00    +0.000 C 
BRANCH  25  26
ATOM     26  C   UNL     1       1.582   5.197  20.840  0.00  0.00    +0.000 C 
BRANCH  26  27
ATOM     27  O   UNL     1       2.242   4.194  21.606  0.00  0.00    +0.000 OA
ATOM     28  H   UNL     1       3.078   3.986  21.155  0.00  0.00    +0.000 HD
ENDBRANCH  26  27
ENDBRANCH  25  26
ENDBRANCH   9  25
TORSDOF 8
ENDMDL
MODEL 4
REMARK VINA RESULT:      -6.5      2.481      6.676
REMARK  Name = 
REMARK  11 active torsions:
REMARK  status: ('A' for Active; 'I' for Inactive)
REMARK    1  A    between atoms: C_1  and  C_2
REMARK    2  A    between atoms: C_2  and  C_3
REMARK    3  A    between atoms: C_2  and  C_4
REMARK    4  A    between atoms: C_2  and  S_5
REMARK    5  A    between atoms: S_5  and  N_7
REMARK    6  A    between atoms: C_11  and  C_12
REMARK    7  A    between atoms: C_12  and  O_13
REMARK    8  A    between atoms: C_15  and  C_16
REMARK    9  A    between atoms: C_23  and  C_24
REMARK   10  A    between atoms: C_24  and  C_25
REMARK   11  A    between atoms: C_25  and  O_26
REMARK                            x       y       z     vdW  Elec       q    Type
REMARK                         _______ _______ _______ _____ _____    ______ ____
ROOT
ATOM      1  N   UNL     1       4.388   3.557  19.098  0.00  0.00    +0.000 NA
ATOM      2  C   UNL     1       4.415   2.862  17.791  0.00  0.00    +0.000 C 
ATOM      3  C   UNL     1       5.333   3.632  16.885  0.00  0.00    +0.000 A 
ATOM      4  C   UNL     1       5.582   3.419  15.537  0.00  0.00    +0.000 A 
ATOM      5  C   UNL     1       6.418   4.310  14.842  0.00  0.00    +0.000 A 
ATOM      6  C   UNL     1       7.019   5.373  15.552  0.00  0.00    +0.000 A 
ATOM      7  C   UNL     1       6.763   5.616  16.919  0.00  0.00    +0.000 A 
ATOM      8  C   UNL     1       5.884   4.723  17.562  0.00  0.00    +0.000 A 
ATOM      9  C   UNL     1       5.181   4.839  18.904  0.00  0.00    +0.000 C 
ENDROOT
BRANCH   7  10
ATOM     10  C   UNL     1       7.318   6.831  17.571  0.00  0.00    +0.000 A 
ATOM     11  C   UNL     1       8.150   6.732  18.705  0.00  0.00    +0.000 A 
ATOM     12  C   UNL     1       8.788   7.854  19.246  0.00  0.00    +0.000 A 
ATOM     13  C   UNL     1       8.624   9.101  18.651  0.00  0.00    +0.000 A 
ATOM     14  C   UNL     1       7.779   9.233  17.556  0.00  0.00    +0.000 A 
ATOM     15  C   UNL     1       7.106   8.117  17.047  0.00  0.00    +0.000 A 
ENDBRANCH   7  10
BRANCH   1  16
ATOM     16  S   UNL     1       3.053   3.623  20.104  0.00  0.00    +0.000 S 
ATOM     17  O   UNL     1       3.109   2.579  21.275  0.00  0.00    +0.000 OA
BRANCH  16  19
ATOM     18  C   UNL     1       0.376   3.611  20.079  0.00  0.00    +0.000 C 
ATOM     19  C   UNL     1       1.545   3.260  19.109  0.00  0.00    +0.000 C 
ATOM     20  C   UNL     1       1.394   1.776  18.745  0.00  0.00    +0.000 C 
ATOM     21  C   UNL     1       1.393   4.125  17.865  0.00  0.00    +0.000 C 
ENDBRANCH  16  19
ENDBRANCH   1  16
BRANCH   5  22
ATOM     22  C   UNL     1       6.584   4.240  13.341  0.00  0.00    +0.000 C 
BRANCH  22  23
ATOM     23  O   UNL     1       6.229   2.966  12.825  0.00  0.00    +0.000 OA
ATOM     24  H   UNL     1       6.987   2.669  12.290  0.00  0.00    +0.000 HD
ENDBRANCH  22  23
ENDBRANCH   5  22
BRANCH   9  25
ATOM     25  C   UNL     1       4.364   6.168  18.931  0.00  0.00    +0.000 C 
BRANCH  25  26
ATOM     26  C   UNL     1       3.702   6.548  17.607  0.00  0.00    +0.000 C 
BRANCH  26  27
ATOM     27  O   UNL     1       2.968   7.760  17.750  0.00  0.00    +0.000 OA
ATOM     28  H   UNL     1       3.584   8.435  18.082  0.00  0.00    +0.000 HD
ENDBRANCH  26  27
ENDBRANCH  25  26
ENDBRANCH   9  25
TORSDOF 8
ENDMDL
MODEL 5
REMARK VINA RESULT:      -6.5      0.709      1.462
REMARK  Name = 
REMARK  11 active torsions:
REMARK  status: ('A' for Active; 'I' for Inactive)
REMARK    1  A    between atoms: C_1  and  C_2
REMARK    2  A    between atoms: C_2  and  C_3
REMARK    3  A    between atoms: C_2  and  C_4
REMARK    4  A    between atoms: C_2  and  S_5
REMARK    5  A    between atoms: S_5  and  N_7
REMARK    6  A    between atoms: C_11  and  C_12
REMARK    7  A    between atoms: C_12  and  O_13
REMARK    8  A    between atoms: C_15  and  C_16
REMARK    9  A    between atoms: C_23  and  C_24
REMARK   10  A    between atoms: C_24  and  C_25
REMARK   11  A    between atoms: C_25  and  O_26
REMARK                            x       y       z     vdW  Elec       q    Type
REMARK                         _______ _______ _______ _____ _____    ______ ____
ROOT
ATOM      1  N   UNL     1       5.922   5.246  17.180  0.00  0.00    +0.000 NA
ATOM      2  C   UNL     1       5.538   6.633  16.833  0.00  0.00    +0.000 C 
ATOM      3  C   UNL     1       4.256   6.944  17.553  0.00  0.00    +0.000 A 
ATOM      4  C   UNL     1       3.468   8.080  17.446  0.00  0.00    +0.000 A 
ATOM      5  C   UNL     1       2.252   8.143  18.147  0.00  0.00    +0.000 A 
ATOM      6  C   UNL     1       1.890   7.061  18.980  0.00  0.00    +0.000 A 
ATOM      7  C   UNL     1       2.670   5.890  19.088  0.00  0.00    +0.000 A 
ATOM      8  C   UNL     1       3.858   5.855  18.332  0.00  0.00    +0.000 A 
ATOM      9  C   UNL     1       4.766   4.685  17.992  0.00  0.00    +0.000 C 
ENDROOT
BRANCH   7  10
ATOM     10  C   UNL     1       2.165   4.733  19.873  0.00  0.00    +0.000 A 
ATOM     11  C   UNL     1       2.760   4.372  21.099  0.00  0.00    +0.000 A 
ATOM     12  C   UNL     1       2.211   3.374  21.914  0.00  0.00    +0.000 A 
ATOM     13  C   UNL     1       1.041   2.728  21.529  0.00  0.00    +0.000 A 
ATOM     14  C   UNL     1       0.456   3.039  20.307  0.00  0.00    +0.000 A 
ATOM     15  C   UNL     1       1.034   4.003  19.474  0.00  0.00    +0.000 A 
ENDBRANCH   7  10
BRANCH   1  16
ATOM     16  S   UNL     1       6.715   4.200  16.143  0.00  0.00    +0.000 S 
ATOM     17  O   UNL     1       8.259   4.120  16.406  0.00  0.00    +0.000 OA
BRANCH  16  19
ATOM     18  C   UNL     1       5.249   5.745  14.520  0.00  0.00    +0.000 C 
ATOM     19  C   UNL     1       6.475   4.789  14.413  0.00  0.00    +0.000 C 
ATOM     20  C   UNL     1       6.087   3.671  13.434  0.00  0.00    +0.000 C 
ATOM     21  C   UNL     1       7.644   5.591  13.858  0.00  0.00    +0.000 C 
ENDBRANCH  16  19
ENDBRANCH   1  16
BRANCH   5  22
ATOM     22  C   UNL     1       1.265   9.269  17.933  0.00  0.00    +0.000 C 
BRANCH  22  23
ATOM     23  O   UNL     1       0.620   9.647  19.139  0.00  0.00    +0.000 OA
ATOM     24  H   UNL     1       0.206  10.511  18.966  0.00  0.00    +0.000 HD
ENDBRANCH  22  23
ENDBRANCH   5  22
BRANCH   9  25
ATOM     25  C   UNL     1       3.917   3.571  17.306  0.00  0.00    +0.000 C 
BRANCH  25  26
ATOM     26  C   UNL     1       3.922   2.220  18.020  0.00  0.00    +0.000 C 
BRANCH  26  27
ATOM     27  O   UNL     1       2.666   1.569  17.858  0.00  0.00    +0.000 OA
ATOM     28  H   UNL     1       1.997   2.260  17.716  0.00  0.00    +0.000 HD
ENDBRANCH  26  27
ENDBRANCH  25  26
ENDBRANCH   9  25
TORSDOF 8
ENDMDL
MODEL 6
REMARK VINA RESULT:      -6.3      1.966      4.303
REMARK  Name = 
REMARK  11 active torsions:
REMARK  status: ('A' for Active; 'I' for Inactive)
REMARK    1  A    between atoms: C_1  and  C_2
REMARK    2  A    between atoms: C_2  and  C_3
REMARK    3  A    between atoms: C_2  and  C_4
REMARK    4  A    between atoms: C_2  and  S_5
REMARK    5  A    between atoms: S_5  and  N_7
REMARK    6  A    between atoms: C_11  and  C_12
REMARK    7  A    between atoms: C_12  and  O_13
REMARK    8  A    between atoms: C_15  and  C_16
REMARK    9  A    between atoms: C_23  and  C_24
REMARK   10  A    between atoms: C_24  and  C_25
REMARK   11  A    between atoms: C_25  and  O_26
REMARK                            x       y       z     vdW  Elec       q    Type
REMARK                         _______ _______ _______ _____ _____    ______ ____
ROOT
ATOM      1  N   UNL     1       5.000   3.972  16.442  0.00  0.00    +0.000 NA
ATOM      2  C   UNL     1       4.482   2.779  17.151  0.00  0.00    +0.000 C 
ATOM      3  C   UNL     1       3.454   3.249  18.141  0.00  0.00    +0.000 A 
ATOM      4  C   UNL     1       2.784   2.502  19.098  0.00  0.00    +0.000 A 
ATOM      5  C   UNL     1       1.916   3.149  19.993  0.00  0.00    +0.000 A 
ATOM      6  C   UNL     1       1.715   4.541  19.859  0.00  0.00    +0.000 A 
ATOM      7  C   UNL     1       2.401   5.321  18.903  0.00  0.00    +0.000 A 
ATOM      8  C   UNL     1       3.294   4.634  18.058  0.00  0.00    +0.000 A 
ATOM      9  C   UNL     1       4.377   5.172  17.137  0.00  0.00    +0.000 C 
ENDROOT
BRANCH   7  10
ATOM     10  C   UNL     1       2.248   6.799  18.905  0.00  0.00    +0.000 A 
ATOM     11  C   UNL     1       2.318   7.539  17.707  0.00  0.00    +0.000 A 
ATOM     12  C   UNL     1       2.041   8.911  17.675  0.00  0.00    +0.000 A 
ATOM     13  C   UNL     1       1.667   9.571  18.842  0.00  0.00    +0.000 A 
ATOM     14  C   UNL     1       1.629   8.873  20.043  0.00  0.00    +0.000 A 
ATOM     15  C   UNL     1       1.952   7.512  20.078  0.00  0.00    +0.000 A 
ENDBRANCH   7  10
BRANCH   1  16
ATOM     16  S   UNL     1       6.570   4.132  15.887  0.00  0.00    +0.000 S 
ATOM     17  O   UNL     1       7.394   5.215  16.667  0.00  0.00    +0.000 OA
BRANCH  16  19
ATOM     18  C   UNL     1       5.405   5.724  14.078  0.00  0.00    +0.000 C 
ATOM     19  C   UNL     1       6.522   4.638  14.116  0.00  0.00    +0.000 C 
ATOM     20  C   UNL     1       6.083   3.512  13.169  0.00  0.00    +0.000 C 
ATOM     21  C   UNL     1       7.810   5.277  13.613  0.00  0.00    +0.000 C 
ENDBRANCH  16  19
ENDBRANCH   1  16
BRANCH   5  22
ATOM     22  C   UNL     1       1.297   2.426  21.169  0.00  0.00    +0.000 C 
BRANCH  22  23
ATOM     23  O   UNL     1       1.840   2.862  22.406  0.00  0.00    +0.000 OA
ATOM     24  H   UNL     1       2.684   3.299  22.193  0.00  0.00    +0.000 HD
ENDBRANCH  22  23
ENDBRANCH   5  22
BRANCH   9  25
ATOM     25  C   UNL     1       5.347   6.067  17.968  0.00  0.00    +0.000 C 
BRANCH  25  26
ATOM     26  C   UNL     1       5.715   5.518  19.346  0.00  0.00    +0.000 C 
BRANCH  26  27
ATOM     27  O   UNL     1       7.109   5.233  19.408  0.00  0.00    +0.000 OA
ATOM     28  H   UNL     1       7.393   5.370  20.328  0.00  0.00    +0.000 HD
ENDBRANCH  26  27
ENDBRANCH  25  26
ENDBRANCH   9  25
TORSDOF 8
ENDMDL
MODEL 7
REMARK VINA RESULT:      -6.3      2.482      6.622
REMARK  Name = 
REMARK  11 active torsions:
REMARK  status: ('A' for Active; 'I' for Inactive)
REMARK    1  A    between atoms: C_1  and  C_2
REMARK    2  A    between atoms: C_2  and  C_3
REMARK    3  A    between atoms: C_2  and  C_4
REMARK    4  A    between atoms: C_2  and  S_5
REMARK    5  A    between atoms: S_5  and  N_7
REMARK    6  A    between atoms: C_11  and  C_12
REMARK    7  A    between atoms: C_12  and  O_13
REMARK    8  A    between atoms: C_15  and  C_16
REMARK    9  A    between atoms: C_23  and  C_24
REMARK   10  A    between atoms: C_24  and  C_25
REMARK   11  A    between atoms: C_25  and  O_26
REMARK                            x       y       z     vdW  Elec       q    Type
REMARK                         _______ _______ _______ _____ _____    ______ ____
ROOT
ATOM      1  N   UNL     1       4.371   3.410  19.061  0.00  0.00    +0.000 NA
ATOM      2  C   UNL     1       4.267   2.754  17.737  0.00  0.00    +0.000 C 
ATOM      3  C   UNL     1       5.189   3.477  16.797  0.00  0.00    +0.000 A 
ATOM      4  C   UNL     1       5.342   3.286  15.432  0.00  0.00    +0.000 A 
ATOM      5  C   UNL     1       6.203   4.129  14.711  0.00  0.00    +0.000 A 
ATOM      6  C   UNL     1       6.927   5.121  15.409  0.00  0.00    +0.000 A 
ATOM      7  C   UNL     1       6.771   5.343  16.795  0.00  0.00    +0.000 A 
ATOM      8  C   UNL     1       5.863   4.501  17.467  0.00  0.00    +0.000 A 
ATOM      9  C   UNL     1       5.251   4.632  18.851  0.00  0.00    +0.000 C 
ENDROOT
BRANCH   7  10
ATOM     10  C   UNL     1       7.457   6.491  17.443  0.00  0.00    +0.000 A 
ATOM     11  C   UNL     1       7.380   7.787  16.894  0.00  0.00    +0.000 A 
ATOM     12  C   UNL     1       7.904   8.899  17.565  0.00  0.00    +0.000 A 
ATOM     13  C   UNL     1       8.500   8.741  18.812  0.00  0.00    +0.000 A 
ATOM     14  C   UNL     1       8.623   7.469  19.357  0.00  0.00    +0.000 A 
ATOM     15  C   UNL     1       8.140   6.355  18.663  0.00  0.00    +0.000 A 
ENDBRANCH   7  10
BRANCH   1  16
ATOM     16  S   UNL     1       3.106   3.549  20.147  0.00  0.00    +0.000 S 
ATOM     17  O   UNL     1       3.148   2.470  21.286  0.00  0.00    +0.000 OA
BRANCH  16  19
ATOM     18  C   UNL     1       0.453   3.899  20.222  0.00  0.00    +0.000 C 
ATOM     19  C   UNL     1       1.518   3.333  19.236  0.00  0.00    +0.000 C 
ATOM     20  C   UNL     1       1.154   1.863  18.981  0.00  0.00    +0.000 C 
ATOM     21  C   UNL     1       1.426   4.130  17.942  0.00  0.00    +0.000 C 
ENDBRANCH  16  19
ENDBRANCH   1  16
BRANCH   5  22
ATOM     22  C   UNL     1       6.277   4.092  13.200  0.00  0.00    +0.000 C 
BRANCH  22  23
ATOM     23  O   UNL     1       6.233   2.765  12.699  0.00  0.00    +0.000 OA
ATOM     24  H   UNL     1       5.296   2.500  12.712  0.00  0.00    +0.000 HD
ENDBRANCH  22  23
ENDBRANCH   5  22
BRANCH   9  25
ATOM     25  C   UNL     1       4.544   6.018  18.961  0.00  0.00    +0.000 C 
BRANCH  25  26
ATOM     26  C   UNL     1       3.669   6.396  17.766  0.00  0.00    +0.000 C 
BRANCH  26  27
ATOM     27  O   UNL     1       3.956   7.725  17.343  0.00  0.00    +0.000 OA
ATOM     28  H   UNL     1       4.759   7.690  16.796  0.00  0.00    +0.000 HD
ENDBRANCH  26  27
ENDBRANCH  25  26
ENDBRANCH   9  25
TORSDOF 8
ENDMDL
MODEL 8
REMARK VINA RESULT:      -6.2      2.710      6.551
REMARK  Name = 
REMARK  11 active torsions:
REMARK  status: ('A' for Active; 'I' for Inactive)
REMARK    1  A    between atoms: C_1  and  C_2
REMARK    2  A    between atoms: C_2  and  C_3
REMARK    3  A    between atoms: C_2  and  C_4
REMARK    4  A    between atoms: C_2  and  S_5
REMARK    5  A    between atoms: S_5  and  N_7
REMARK    6  A    between atoms: C_11  and  C_12
REMARK    7  A    between atoms: C_12  and  O_13
REMARK    8  A    between atoms: C_15  and  C_16
REMARK    9  A    between atoms: C_23  and  C_24
REMARK   10  A    between atoms: C_24  and  C_25
REMARK   11  A    between atoms: C_25  and  O_26
REMARK                            x       y       z     vdW  Elec       q    Type
REMARK                         _______ _______ _______ _____ _____    ______ ____
ROOT
ATOM      1  N   UNL     1       2.124   8.176  19.290  0.00  0.00    +0.000 NA
ATOM      2  C   UNL     1       1.236   7.283  20.069  0.00  0.00    +0.000 C 
ATOM      3  C   UNL     1       1.924   5.953  20.194  0.00  0.00    +0.000 A 
ATOM      4  C   UNL     1       1.427   4.781  20.743  0.00  0.00    +0.000 A 
ATOM      5  C   UNL     1       2.203   3.611  20.688  0.00  0.00    +0.000 A 
ATOM      6  C   UNL     1       3.492   3.676  20.112  0.00  0.00    +0.000 A 
ATOM      7  C   UNL     1       4.007   4.855  19.532  0.00  0.00    +0.000 A 
ATOM      8  C   UNL     1       3.174   5.991  19.572  0.00  0.00    +0.000 A 
ATOM      9  C   UNL     1       3.279   7.307  18.820  0.00  0.00    +0.000 C 
ENDROOT
BRANCH   7  10
ATOM     10  C   UNL     1       5.312   4.822  18.820  0.00  0.00    +0.000 A 
ATOM     11  C   UNL     1       5.448   4.162  17.582  0.00  0.00    +0.000 A 
ATOM     12  C   UNL     1       6.631   4.237  16.837  0.00  0.00    +0.000 A 
ATOM     13  C   UNL     1       7.700   4.994  17.306  0.00  0.00    +0.000 A 
ATOM     14  C   UNL     1       7.605   5.623  18.542  0.00  0.00    +0.000 A 
ATOM     15  C   UNL     1       6.438   5.506  19.305  0.00  0.00    +0.000 A 
ENDBRANCH   7  10
BRANCH   1  16
ATOM     16  S   UNL     1       1.584   9.369  18.249  0.00  0.00    +0.000 S 
ATOM     17  O   UNL     1       2.747  10.215  17.621  0.00  0.00    +0.000 OA
BRANCH  16  19
ATOM     18  C   UNL     1       0.970  11.933  18.713  0.00  0.00    +0.000 C 
ATOM     19  C   UNL     1       0.498  10.525  19.188  0.00  0.00    +0.000 C 
ATOM     20  C   UNL     1       0.715  10.470  20.707  0.00  0.00    +0.000 C 
ATOM     21  C   UNL     1      -0.983  10.396  18.862  0.00  0.00    +0.000 C 
ENDBRANCH  16  19
ENDBRANCH   1  16
BRANCH   5  22
ATOM     22  C   UNL     1       1.650   2.266  21.103  0.00  0.00    +0.000 C 
BRANCH  22  23
ATOM     23  O   UNL     1       1.222   2.262  22.457  0.00  0.00    +0.000 OA
ATOM     24  H   UNL     1       0.250   2.219  22.433  0.00  0.00    +0.000 HD
ENDBRANCH  22  23
ENDBRANCH   5  22
BRANCH   9  25
ATOM     25  C   UNL     1       3.341   7.009  17.290  0.00  0.00    +0.000 C 
BRANCH  25  26
ATOM     26  C   UNL     1       4.609   7.492  16.586  0.00  0.00    +0.000 C 
BRANCH  26  27
ATOM     27  O   UNL     1       4.804   6.776  15.371  0.00  0.00    +0.000 OA
ATOM     28  H   UNL     1       4.185   7.140  14.716  0.00  0.00    +0.000 HD
ENDBRANCH  26  27
ENDBRANCH  25  26
ENDBRANCH   9  25
TORSDOF 8
ENDMDL
MODEL 9
REMARK VINA RESULT:      -6.2      2.634      5.732
REMARK  Name = 
REMARK  11 active torsions:
REMARK  status: ('A' for Active; 'I' for Inactive)
REMARK    1  A    between atoms: C_1  and  C_2
REMARK    2  A    between atoms: C_2  and  C_3
REMARK    3  A    between atoms: C_2  and  C_4
REMARK    4  A    between atoms: C_2  and  S_5
REMARK    5  A    between atoms: S_5  and  N_7
REMARK    6  A    between atoms: C_11  and  C_12
REMARK    7  A    between atoms: C_12  and  O_13
REMARK    8  A    between atoms: C_15  and  C_16
REMARK    9  A    between atoms: C_23  and  C_24
REMARK   10  A    between atoms: C_24  and  C_25
REMARK   11  A    between atoms: C_25  and  O_26
REMARK                            x       y       z     vdW  Elec       q    Type
REMARK                         _______ _______ _______ _____ _____    ______ ____
ROOT
ATOM      1  N   UNL     1       1.923   8.268  18.662  0.00  0.00    +0.000 NA
ATOM      2  C   UNL     1       3.019   8.625  17.733  0.00  0.00    +0.000 C 
ATOM      3  C   UNL     1       3.657   7.346  17.269  0.00  0.00    +0.000 A 
ATOM      4  C   UNL     1       4.787   7.190  16.479  0.00  0.00    +0.000 A 
ATOM      5  C   UNL     1       5.276   5.898  16.224  0.00  0.00    +0.000 A 
ATOM      6  C   UNL     1       4.571   4.789  16.744  0.00  0.00    +0.000 A 
ATOM      7  C   UNL     1       3.431   4.928  17.564  0.00  0.00    +0.000 A 
ATOM      8  C   UNL     1       3.005   6.245  17.828  0.00  0.00    +0.000 A 
ATOM      9  C   UNL     1       2.023   6.764  18.865  0.00  0.00    +0.000 C 
ENDROOT
BRANCH   7  10
ATOM     10  C   UNL     1       2.819   3.728  18.192  0.00  0.00    +0.000 A 
ATOM     11  C   UNL     1       1.430   3.499  18.119  0.00  0.00    +0.000 A 
ATOM     12  C   UNL     1       0.858   2.309  18.585  0.00  0.00    +0.000 A 
ATOM     13  C   UNL     1       1.668   1.310  19.115  0.00  0.00    +0.000 A 
ATOM     14  C   UNL     1       3.036   1.526  19.233  0.00  0.00    +0.000 A 
ATOM     15  C   UNL     1       3.597   2.736  18.810  0.00  0.00    +0.000 A 
ENDBRANCH   7  10
BRANCH   1  16
ATOM     16  S   UNL     1       1.463   9.193  19.977  0.00  0.00    +0.000 S 
ATOM     17  O   UNL     1       0.485   8.445  20.950  0.00  0.00    +0.000 OA
BRANCH  16  19
ATOM     18  C   UNL     1      -0.297  10.158  18.206  0.00  0.00    +0.000 C 
ATOM     19  C   UNL     1       0.594  10.699  19.365  0.00  0.00    +0.000 C 
ATOM     20  C   UNL     1       1.537  11.744  18.754  0.00  0.00    +0.000 C 
ATOM     21  C   UNL     1      -0.323  11.352  20.391  0.00  0.00    +0.000 C 
ENDBRANCH  16  19
ENDBRANCH   1  16
BRANCH   5  22
ATOM     22  C   UNL     1       6.598   5.669  15.526  0.00  0.00    +0.000 C 
BRANCH  22  23
ATOM     23  O   UNL     1       7.655   6.389  16.141  0.00  0.00    +0.000 OA
ATOM     24  H   UNL     1       7.256   7.201  16.501  0.00  0.00    +0.000 HD
ENDBRANCH  22  23
ENDBRANCH   5  22
BRANCH   9  25
ATOM     25  C   UNL     1       2.481   6.287  20.277  0.00  0.00    +0.000 C 
BRANCH  25  26
ATOM     26  C   UNL     1       1.542   5.295  20.963  0.00  0.00    +0.000 C 
BRANCH  26  27
ATOM     27  O   UNL     1       2.289   4.266  21.602  0.00  0.00    +0.000 OA
ATOM     28  H   UNL     1       1.737   3.466  21.608  0.00  0.00    +0.000 HD
ENDBRANCH  26  27
ENDBRANCH  25  26
ENDBRANCH   9  25
TORSDOF 8
ENDMDL
