MODEL 1
REMARK VINA RESULT:      -2.9      0.000      0.000
REMARK  Name = 
REMARK  1 active torsions:
REMARK  status: ('A' for Active; 'I' for Inactive)
REMARK    1  A    between atoms: CL_2  and  O_3
REMARK                            x       y       z     vdW  Elec       q    Type
REMARK                         _______ _______ _______ _____ _____    ______ ____
ROOT
ATOM      1  O   UNL     1       3.250   3.491  10.179  0.00  0.00    +0.000 OA
ATOM      2 CL   UNL     1       2.368   4.671   9.325  0.00  0.00    +0.000 Cl
ENDROOT
BRANCH   2   3
ATOM      3  O   UNL     1       1.517   5.860   8.455  0.00  0.00    +0.000 OA
ATOM      4  H   UNL     1       0.726   6.061   9.017  0.00  0.00    +0.000 HD
ENDBRANCH   2   3
TORSDOF 1
ENDMDL
MODEL 2
REMARK VINA RESULT:      -2.5     18.627     19.329
REMARK  Name = 
REMARK  1 active torsions:
REMARK  status: ('A' for Active; 'I' for Inactive)
REMARK    1  A    between atoms: CL_2  and  O_3
REMARK                            x       y       z     vdW  Elec       q    Type
REMARK                         _______ _______ _______ _____ _____    ______ ____
ROOT
ATOM      1  O   UNL     1      10.541   4.868  28.021  0.00  0.00    +0.000 OA
ATOM      2 CL   UNL     1       9.070   4.290  27.390  0.00  0.00    +0.000 Cl
ENDROOT
BRANCH   2   3
ATOM      3  O   UNL     1       7.590   3.745  26.749  0.00  0.00    +0.000 OA
ATOM      4  H   UNL     1       7.416   2.890  27.217  0.00  0.00    +0.000 HD
ENDBRANCH   2   3
TORSDOF 1
ENDMDL
MODEL 3
REMARK VINA RESULT:      -2.5      0.891      2.878
REMARK  Name = 
REMARK  1 active torsions:
REMARK  status: ('A' for Active; 'I' for Inactive)
REMARK    1  A    between atoms: CL_2  and  O_3
REMARK                            x       y       z     vdW  Elec       q    Type
REMARK                         _______ _______ _______ _____ _____    ______ ____
ROOT
ATOM      1  O   UNL     1       2.194   5.124   8.450  0.00  0.00    +0.000 OA
ATOM      2 CL   UNL     1       2.930   4.166   9.649  0.00  0.00    +0.000 Cl
ENDROOT
BRANCH   2   3
ATOM      3  O   UNL     1       3.699   3.222  10.838  0.00  0.00    +0.000 OA
ATOM      4  H   UNL     1       2.956   2.819  11.354  0.00  0.00    +0.000 HD
ENDBRANCH   2   3
TORSDOF 1
ENDMDL
MODEL 4
REMARK VINA RESULT:      -2.5     18.800     18.924
REMARK  Name = 
REMARK  1 active torsions:
REMARK  status: ('A' for Active; 'I' for Inactive)
REMARK    1  A    between atoms: CL_2  and  O_3
REMARK                            x       y       z     vdW  Elec       q    Type
REMARK                         _______ _______ _______ _____ _____    ______ ____
ROOT
ATOM      1  O   UNL     1       7.968   3.801  27.135  0.00  0.00    +0.000 OA
ATOM      2 CL   UNL     1       6.397   4.060  27.737  0.00  0.00    +0.000 Cl
ENDROOT
BRANCH   2   3
ATOM      3  O   UNL     1       4.834   4.354  28.345  0.00  0.00    +0.000 OA
ATOM      4  H   UNL     1       4.747   5.340  28.339  0.00  0.00    +0.000 HD
ENDBRANCH   2   3
TORSDOF 1
ENDMDL
MODEL 5
REMARK VINA RESULT:      -2.4     18.782     18.782
REMARK  Name = 
REMARK  1 active torsions:
REMARK  status: ('A' for Active; 'I' for Inactive)
REMARK    1  A    between atoms: CL_2  and  O_3
REMARK                            x       y       z     vdW  Elec       q    Type
REMARK                         _______ _______ _______ _____ _____    ______ ____
ROOT
ATOM      1  O   UNL     1       8.402   3.772  27.205  0.00  0.00    +0.000 OA
ATOM      2 CL   UNL     1       7.091   4.821  27.486  0.00  0.00    +0.000 Cl
ENDROOT
BRANCH   2   3
ATOM      3  O   UNL     1       5.776   5.874  27.731  0.00  0.00    +0.000 OA
ATOM      4  H   UNL     1       6.101   6.524  28.403  0.00  0.00    +0.000 HD
ENDBRANCH   2   3
TORSDOF 1
ENDMDL
MODEL 6
REMARK VINA RESULT:      -2.4     15.766     15.819
REMARK  Name = 
REMARK  1 active torsions:
REMARK  status: ('A' for Active; 'I' for Inactive)
REMARK    1  A    between atoms: CL_2  and  O_3
REMARK                            x       y       z     vdW  Elec       q    Type
REMARK                         _______ _______ _______ _____ _____    ______ ____
ROOT
ATOM      1  O   UNL     1      -7.881   7.797  22.466  0.00  0.00    +0.000 OA
ATOM      2 CL   UNL     1      -7.729   8.333  20.857  0.00  0.00    +0.000 Cl
ENDROOT
BRANCH   2   3
ATOM      3  O   UNL     1      -7.607   8.888  19.252  0.00  0.00    +0.000 OA
ATOM      4  H   UNL     1      -8.337   8.422  18.772  0.00  0.00    +0.000 HD
ENDBRANCH   2   3
TORSDOF 1
ENDMDL
MODEL 7
REMARK VINA RESULT:      -2.4     18.872     19.460
REMARK  Name = 
REMARK  1 active torsions:
REMARK  status: ('A' for Active; 'I' for Inactive)
REMARK    1  A    between atoms: CL_2  and  O_3
REMARK                            x       y       z     vdW  Elec       q    Type
REMARK                         _______ _______ _______ _____ _____    ______ ____
ROOT
ATOM      1  O   UNL     1       7.454   3.692  27.149  0.00  0.00    +0.000 OA
ATOM      2 CL   UNL     1       8.963   4.404  27.485  0.00  0.00    +0.000 Cl
ENDROOT
BRANCH   2   3
ATOM      3  O   UNL     1      10.474   5.098  27.852  0.00  0.00    +0.000 OA
ATOM      4  H   UNL     1      10.265   5.821  28.496  0.00  0.00    +0.000 HD
ENDBRANCH   2   3
TORSDOF 1
ENDMDL
MODEL 8
REMARK VINA RESULT:      -2.3     11.039     11.883
REMARK  Name = 
REMARK  1 active torsions:
REMARK  status: ('A' for Active; 'I' for Inactive)
REMARK    1  A    between atoms: CL_2  and  O_3
REMARK                            x       y       z     vdW  Elec       q    Type
REMARK                         _______ _______ _______ _____ _____    ______ ____
ROOT
ATOM      1  O   UNL     1       7.566   6.389  17.861  0.00  0.00    +0.000 OA
ATOM      2 CL   UNL     1       7.928   5.809  19.420  0.00  0.00    +0.000 Cl
ENDROOT
BRANCH   2   3
ATOM      3  O   UNL     1       8.306   5.261  20.986  0.00  0.00    +0.000 OA
ATOM      4  H   UNL     1       7.448   5.308  21.479  0.00  0.00    +0.000 HD
ENDBRANCH   2   3
TORSDOF 1
ENDMDL
MODEL 9
REMARK VINA RESULT:      -2.3      1.234      1.234
REMARK  Name = 
REMARK  1 active torsions:
REMARK  status: ('A' for Active; 'I' for Inactive)
REMARK    1  A    between atoms: CL_2  and  O_3
REMARK                            x       y       z     vdW  Elec       q    Type
REMARK                         _______ _______ _______ _____ _____    ______ ____
ROOT
ATOM      1  O   UNL     1       3.808   3.447  11.253  0.00  0.00    +0.000 OA
ATOM      2 CL   UNL     1       3.153   4.139   9.842  0.00  0.00    +0.000 Cl
ENDROOT
BRANCH   2   3
ATOM      3  O   UNL     1       2.482   4.856   8.452  0.00  0.00    +0.000 OA
ATOM      4  H   UNL     1       1.518   4.950   8.661  0.00  0.00    +0.000 HD
ENDBRANCH   2   3
TORSDOF 1
ENDMDL
