MODEL 1
REMARK VINA RESULT:      -8.9      0.000      0.000
REMARK  Name = 
REMARK  5 active torsions:
REMARK  status: ('A' for Active; 'I' for Inactive)
REMARK    1  A    between atoms: N_1  and  C_2
REMARK    2  A    between atoms: N_5  and  C_6
REMARK    3  A    between atoms: C_6  and  C_7
REMARK    4  A    between atoms: C_10  and  C_11
REMARK    5  A    between atoms: C_15  and  C_16
REMARK                            x       y       z     vdW  Elec       q    Type
REMARK                         _______ _______ _______ _____ _____    ______ ____
ROOT
ATOM      1  C   UNL     1       0.731   9.988  19.838  0.00  0.00    +0.000 A 
ATOM      2  C   UNL     1       1.168  10.555  18.636  0.00  0.00    +0.000 A 
ATOM      3  C   UNL     1       2.031   9.859  17.772  0.00  0.00    +0.000 A 
ATOM      4  C   UNL     1       2.461   8.561  18.080  0.00  0.00    +0.000 A 
ATOM      5  C   UNL     1       2.033   7.960  19.260  0.00  0.00    +0.000 A 
ATOM      6  C   UNL     1       1.196   8.697  20.122  0.00  0.00    +0.000 A 
ENDROOT
BRANCH   5   7
ATOM      7  C   UNL     1       2.371   6.604  19.704  0.00  0.00    +0.000 A 
ATOM      8  N   UNL     1       3.339   5.898  19.146  0.00  0.00    +0.000 NA
ATOM      9  C   UNL     1       3.364   4.693  19.770  0.00  0.00    +0.000 A 
ATOM     10  C   UNL     1       4.200   3.604  19.516  0.00  0.00    +0.000 A 
ATOM     11  C   UNL     1       4.008   2.462  20.281  0.00  0.00    +0.000 A 
ATOM     12  F   UNL     1       4.785   1.392  20.054  0.00  0.00    +0.000 F 
ATOM     13  C   UNL     1       3.029   2.398  21.271  0.00  0.00    +0.000 A 
ATOM     14  C   UNL     1       2.193   3.493  21.546  0.00  0.00    +0.000 A 
ATOM     15  C   UNL     1       2.394   4.634  20.763  0.00  0.00    +0.000 A 
ATOM     16  N   UNL     1       1.792   5.875  20.721  0.00  0.00    +0.000 N 
ATOM     17  H   UNL     1       1.051   6.192  21.327  0.00  0.00    +0.000 HD
ENDBRANCH   5   7
BRANCH   1  21
ATOM     18  C   UNL     1      -1.949  11.977  22.606  0.00  0.00    +0.000 A 
ATOM     19  C   UNL     1      -1.796  12.448  21.301  0.00  0.00    +0.000 A 
ATOM     20  C   UNL     1      -0.915  11.813  20.419  0.00  0.00    +0.000 A 
ATOM     21  C   UNL     1      -0.165  10.680  20.798  0.00  0.00    +0.000 A 
ATOM     22  C   UNL     1      -0.336  10.217  22.111  0.00  0.00    +0.000 A 
ATOM     23  C   UNL     1      -1.208  10.856  23.001  0.00  0.00    +0.000 A 
BRANCH  18  24
ATOM     24  C   UNL     1      -2.871  12.673  23.583  0.00  0.00    +0.000 C 
BRANCH  24  28
ATOM     25  C   UNL     1      -6.279  13.589  23.161  0.00  0.00    +0.000 C 
ATOM     26  C   UNL     1      -6.452  12.621  24.320  0.00  0.00    +0.000 C 
ATOM     27  C   UNL     1      -5.012  12.383  24.744  0.00  0.00    +0.000 C 
ATOM     28  N   UNL     1      -4.278  12.274  23.477  0.00  0.00    +0.000 NA
ATOM     29  C   UNL     1      -4.996  13.091  22.477  0.00  0.00    +0.000 C 
BRANCH  25  30
ATOM     30  N   UNL     1      -7.445  13.672  22.289  0.00  0.00    +0.000 NA
ATOM     31  H   UNL     1      -7.836  12.741  22.152  0.00  0.00    +0.000 HD
ATOM     32  H   UNL     1      -7.150  13.988  21.363  0.00  0.00    +0.000 HD
ENDBRANCH  25  30
ENDBRANCH  24  28
ENDBRANCH  18  24
ENDBRANCH   1  21
TORSDOF 5
ENDMDL
MODEL 2
REMARK VINA RESULT:      -8.8      4.095     10.142
REMARK  Name = 
REMARK  5 active torsions:
REMARK  status: ('A' for Active; 'I' for Inactive)
REMARK    1  A    between atoms: N_1  and  C_2
REMARK    2  A    between atoms: N_5  and  C_6
REMARK    3  A    between atoms: C_6  and  C_7
REMARK    4  A    between atoms: C_10  and  C_11
REMARK    5  A    between atoms: C_15  and  C_16
REMARK                            x       y       z     vdW  Elec       q    Type
REMARK                         _______ _______ _______ _____ _____    ______ ____
ROOT
ATOM      1  C   UNL     1       0.873  10.832  18.771  0.00  0.00    +0.000 A 
ATOM      2  C   UNL     1       1.610  12.007  18.587  0.00  0.00    +0.000 A 
ATOM      3  C   UNL     1       0.976  13.257  18.484  0.00  0.00    +0.000 A 
ATOM      4  C   UNL     1      -0.417  13.366  18.587  0.00  0.00    +0.000 A 
ATOM      5  C   UNL     1      -1.180  12.220  18.787  0.00  0.00    +0.000 A 
ATOM      6  C   UNL     1      -0.518  10.977  18.852  0.00  0.00    +0.000 A 
ENDROOT
BRANCH   5   7
ATOM      7  C   UNL     1      -2.638  12.175  18.944  0.00  0.00    +0.000 A 
ATOM      8  N   UNL     1      -3.238  12.528  20.068  0.00  0.00    +0.000 NA
ATOM      9  C   UNL     1      -4.569  12.339  19.883  0.00  0.00    +0.000 A 
ATOM     10  C   UNL     1      -5.608  12.554  20.792  0.00  0.00    +0.000 A 
ATOM     11  C   UNL     1      -6.896  12.257  20.368  0.00  0.00    +0.000 A 
ATOM     12  F   UNL     1      -7.915  12.438  21.221  0.00  0.00    +0.000 F 
ATOM     13  C   UNL     1      -7.154  11.774  19.087  0.00  0.00    +0.000 A 
ATOM     14  C   UNL     1      -6.119  11.570  18.159  0.00  0.00    +0.000 A 
ATOM     15  C   UNL     1      -4.826  11.866  18.602  0.00  0.00    +0.000 A 
ATOM     16  N   UNL     1      -3.580  11.797  18.013  0.00  0.00    +0.000 N 
ATOM     17  H   UNL     1      -3.392  11.511  17.064  0.00  0.00    +0.000 HD
ENDBRANCH   5   7
BRANCH   1  21
ATOM     18  C   UNL     1       2.730   6.925  19.066  0.00  0.00    +0.000 A 
ATOM     19  C   UNL     1       2.835   7.676  17.895  0.00  0.00    +0.000 A 
ATOM     20  C   UNL     1       2.217   8.928  17.799  0.00  0.00    +0.000 A 
ATOM     21  C   UNL     1       1.484   9.483  18.869  0.00  0.00    +0.000 A 
ATOM     22  C   UNL     1       1.395   8.717  20.040  0.00  0.00    +0.000 A 
ATOM     23  C   UNL     1       2.002   7.459  20.137  0.00  0.00    +0.000 A 
BRANCH  18  24
ATOM     24  C   UNL     1       3.363   5.554  19.174  0.00  0.00    +0.000 C 
BRANCH  24  28
ATOM     25  C   UNL     1       1.609   2.493  18.740  0.00  0.00    +0.000 C 
ATOM     26  C   UNL     1       2.719   2.257  17.728  0.00  0.00    +0.000 C 
ATOM     27  C   UNL     1       3.671   3.402  18.039  0.00  0.00    +0.000 C 
ATOM     28  N   UNL     1       2.785   4.550  18.274  0.00  0.00    +0.000 NA
ATOM     29  C   UNL     1       1.509   4.026  18.799  0.00  0.00    +0.000 C 
BRANCH  25  30
ATOM     30  N   UNL     1       0.363   1.810  18.411  0.00  0.00    +0.000 NA
ATOM     31  H   UNL     1       0.350   0.892  18.853  0.00  0.00    +0.000 HD
ATOM     32  H   UNL     1       0.331   1.634  17.405  0.00  0.00    +0.000 HD
ENDBRANCH  25  30
ENDBRANCH  24  28
ENDBRANCH  18  24
ENDBRANCH   1  21
TORSDOF 5
ENDMDL
MODEL 3
REMARK VINA RESULT:      -8.6      4.410      6.411
REMARK  Name = 
REMARK  5 active torsions:
REMARK  status: ('A' for Active; 'I' for Inactive)
REMARK    1  A    between atoms: N_1  and  C_2
REMARK    2  A    between atoms: N_5  and  C_6
REMARK    3  A    between atoms: C_6  and  C_7
REMARK    4  A    between atoms: C_10  and  C_11
REMARK    5  A    between atoms: C_15  and  C_16
REMARK                            x       y       z     vdW  Elec       q    Type
REMARK                         _______ _______ _______ _____ _____    ______ ____
ROOT
ATOM      1  C   UNL     1       3.176   6.314  18.816  0.00  0.00    +0.000 A 
ATOM      2  C   UNL     1       3.279   5.359  19.833  0.00  0.00    +0.000 A 
ATOM      3  C   UNL     1       4.050   4.195  19.665  0.00  0.00    +0.000 A 
ATOM      4  C   UNL     1       4.759   3.969  18.477  0.00  0.00    +0.000 A 
ATOM      5  C   UNL     1       4.692   4.906  17.451  0.00  0.00    +0.000 A 
ATOM      6  C   UNL     1       3.884   6.046  17.637  0.00  0.00    +0.000 A 
ENDROOT
BRANCH   5   7
ATOM      7  C   UNL     1       5.397   4.827  16.168  0.00  0.00    +0.000 A 
ATOM      8  N   UNL     1       5.110   3.909  15.260  0.00  0.00    +0.000 NA
ATOM      9  C   UNL     1       5.960   4.101  14.219  0.00  0.00    +0.000 A 
ATOM     10  C   UNL     1       6.056   3.368  13.035  0.00  0.00    +0.000 A 
ATOM     11  C   UNL     1       7.035   3.749  12.128  0.00  0.00    +0.000 A 
ATOM     12  F   UNL     1       7.165   3.057  10.986  0.00  0.00    +0.000 F 
ATOM     13  C   UNL     1       7.886   4.824  12.376  0.00  0.00    +0.000 A 
ATOM     14  C   UNL     1       7.788   5.579  13.557  0.00  0.00    +0.000 A 
ATOM     15  C   UNL     1       6.802   5.179  14.464  0.00  0.00    +0.000 A 
ATOM     16  N   UNL     1       6.404   5.644  15.701  0.00  0.00    +0.000 N 
ATOM     17  H   UNL     1       6.790   6.440  16.183  0.00  0.00    +0.000 HD
ENDBRANCH   5   7
BRANCH   1  21
ATOM     18  C   UNL     1       0.866   9.965  19.186  0.00  0.00    +0.000 A 
ATOM     19  C   UNL     1       0.988   9.088  20.265  0.00  0.00    +0.000 A 
ATOM     20  C   UNL     1       1.719   7.902  20.133  0.00  0.00    +0.000 A 
ATOM     21  C   UNL     1       2.365   7.552  18.928  0.00  0.00    +0.000 A 
ATOM     22  C   UNL     1       2.236   8.448  17.858  0.00  0.00    +0.000 A 
ATOM     23  C   UNL     1       1.496   9.631  17.981  0.00  0.00    +0.000 A 
BRANCH  18  24
ATOM     24  C   UNL     1       0.050  11.234  19.301  0.00  0.00    +0.000 C 
BRANCH  24  28
ATOM     25  C   UNL     1      -3.424  11.542  18.615  0.00  0.00    +0.000 C 
ATOM     26  C   UNL     1      -3.097  10.449  17.612  0.00  0.00    +0.000 C 
ATOM     27  C   UNL     1      -1.685  10.063  18.022  0.00  0.00    +0.000 C 
ATOM     28  N   UNL     1      -1.036  11.346  18.320  0.00  0.00    +0.000 NA
ATOM     29  C   UNL     1      -2.084  12.278  18.782  0.00  0.00    +0.000 C 
BRANCH  25  30
ATOM     30  N   UNL     1      -4.542  12.390  18.214  0.00  0.00    +0.000 NA
ATOM     31  H   UNL     1      -4.232  13.359  18.161  0.00  0.00    +0.000 HD
ATOM     32  H   UNL     1      -5.259  12.367  18.942  0.00  0.00    +0.000 HD
ENDBRANCH  25  30
ENDBRANCH  24  28
ENDBRANCH  18  24
ENDBRANCH   1  21
TORSDOF 5
ENDMDL
MODEL 4
REMARK VINA RESULT:      -8.6      1.481      1.775
REMARK  Name = 
REMARK  5 active torsions:
REMARK  status: ('A' for Active; 'I' for Inactive)
REMARK    1  A    between atoms: N_1  and  C_2
REMARK    2  A    between atoms: N_5  and  C_6
REMARK    3  A    between atoms: C_6  and  C_7
REMARK    4  A    between atoms: C_10  and  C_11
REMARK    5  A    between atoms: C_15  and  C_16
REMARK                            x       y       z     vdW  Elec       q    Type
REMARK                         _______ _______ _______ _____ _____    ______ ____
ROOT
ATOM      1  C   UNL     1       0.608  10.064  19.953  0.00  0.00    +0.000 A 
ATOM      2  C   UNL     1       1.028  10.658  18.758  0.00  0.00    +0.000 A 
ATOM      3  C   UNL     1       1.891   9.989  17.874  0.00  0.00    +0.000 A 
ATOM      4  C   UNL     1       2.339   8.691  18.154  0.00  0.00    +0.000 A 
ATOM      5  C   UNL     1       1.928   8.062  19.326  0.00  0.00    +0.000 A 
ATOM      6  C   UNL     1       1.090   8.774  20.208  0.00  0.00    +0.000 A 
ENDROOT
BRANCH   5   7
ATOM      7  C   UNL     1       2.285   6.702  19.742  0.00  0.00    +0.000 A 
ATOM      8  N   UNL     1       3.239   6.009  19.146  0.00  0.00    +0.000 NA
ATOM      9  C   UNL     1       3.288   4.796  19.753  0.00  0.00    +0.000 A 
ATOM     10  C   UNL     1       4.121   3.714  19.460  0.00  0.00    +0.000 A 
ATOM     11  C   UNL     1       3.957   2.562  20.215  0.00  0.00    +0.000 A 
ATOM     12  F   UNL     1       4.731   1.499  19.950  0.00  0.00    +0.000 F 
ATOM     13  C   UNL     1       3.008   2.479  21.232  0.00  0.00    +0.000 A 
ATOM     14  C   UNL     1       2.175   3.567  21.547  0.00  0.00    +0.000 A 
ATOM     15  C   UNL     1       2.348   4.719  20.773  0.00  0.00    +0.000 A 
ATOM     16  N   UNL     1       1.740   5.958  20.766  0.00  0.00    +0.000 N 
ATOM     17  H   UNL     1       1.015   6.263  21.397  0.00  0.00    +0.000 HD
ENDBRANCH   5   7
BRANCH   1  21
ATOM     18  C   UNL     1      -2.071  11.968  22.783  0.00  0.00    +0.000 A 
ATOM     19  C   UNL     1      -1.976  12.432  21.470  0.00  0.00    +0.000 A 
ATOM     20  C   UNL     1      -1.096  11.825  20.567  0.00  0.00    +0.000 A 
ATOM     21  C   UNL     1      -0.287  10.728  20.933  0.00  0.00    +0.000 A 
ATOM     22  C   UNL     1      -0.400  10.272  22.254  0.00  0.00    +0.000 A 
ATOM     23  C   UNL     1      -1.272  10.882  23.165  0.00  0.00    +0.000 A 
BRANCH  18  24
ATOM     24  C   UNL     1      -2.991  12.635  23.781  0.00  0.00    +0.000 C 
BRANCH  24  28
ATOM     25  C   UNL     1      -3.644  15.934  24.929  0.00  0.00    +0.000 C 
ATOM     26  C   UNL     1      -4.769  15.828  23.912  0.00  0.00    +0.000 C 
ATOM     27  C   UNL     1      -4.732  14.349  23.562  0.00  0.00    +0.000 C 
ATOM     28  N   UNL     1      -3.300  14.036  23.477  0.00  0.00    +0.000 NA
ATOM     29  C   UNL     1      -2.590  14.954  24.390  0.00  0.00    +0.000 C 
BRANCH  25  30
ATOM     30  N   UNL     1      -3.166  17.298  25.133  0.00  0.00    +0.000 NA
ATOM     31  H   UNL     1      -3.899  17.854  25.571  0.00  0.00    +0.000 HD
ATOM     32  H   UNL     1      -2.993  17.732  24.225  0.00  0.00    +0.000 HD
ENDBRANCH  25  30
ENDBRANCH  24  28
ENDBRANCH  18  24
ENDBRANCH   1  21
TORSDOF 5
ENDMDL
MODEL 5
REMARK VINA RESULT:      -8.6      0.943      1.344
REMARK  Name = 
REMARK  5 active torsions:
REMARK  status: ('A' for Active; 'I' for Inactive)
REMARK    1  A    between atoms: N_1  and  C_2
REMARK    2  A    between atoms: N_5  and  C_6
REMARK    3  A    between atoms: C_6  and  C_7
REMARK    4  A    between atoms: C_10  and  C_11
REMARK    5  A    between atoms: C_15  and  C_16
REMARK                            x       y       z     vdW  Elec       q    Type
REMARK                         _______ _______ _______ _____ _____    ______ ____
ROOT
ATOM      1  C   UNL     1       0.573  10.066  19.904  0.00  0.00    +0.000 A 
ATOM      2  C   UNL     1       1.019  10.665  18.721  0.00  0.00    +0.000 A 
ATOM      3  C   UNL     1       1.908  10.002  17.857  0.00  0.00    +0.000 A 
ATOM      4  C   UNL     1       2.357   8.707  18.147  0.00  0.00    +0.000 A 
ATOM      5  C   UNL     1       1.922   8.074  19.308  0.00  0.00    +0.000 A 
ATOM      6  C   UNL     1       1.057   8.779  20.170  0.00  0.00    +0.000 A 
ENDROOT
BRANCH   5   7
ATOM      7  C   UNL     1       2.277   6.716  19.731  0.00  0.00    +0.000 A 
ATOM      8  N   UNL     1       3.226   6.016  19.133  0.00  0.00    +0.000 NA
ATOM      9  C   UNL     1       3.275   4.807  19.749  0.00  0.00    +0.000 A 
ATOM     10  C   UNL     1       4.103   3.721  19.458  0.00  0.00    +0.000 A 
ATOM     11  C   UNL     1       3.940   2.574  20.222  0.00  0.00    +0.000 A 
ATOM     12  F   UNL     1       4.710   1.507  19.960  0.00  0.00    +0.000 F 
ATOM     13  C   UNL     1       2.998   2.502  21.246  0.00  0.00    +0.000 A 
ATOM     14  C   UNL     1       2.171   3.594  21.558  0.00  0.00    +0.000 A 
ATOM     15  C   UNL     1       2.341   4.740  20.776  0.00  0.00    +0.000 A 
ATOM     16  N   UNL     1       1.737   5.980  20.764  0.00  0.00    +0.000 N 
ATOM     17  H   UNL     1       1.018   6.292  21.398  0.00  0.00    +0.000 HD
ENDBRANCH   5   7
BRANCH   1  21
ATOM     18  C   UNL     1      -2.063  12.023  22.737  0.00  0.00    +0.000 A 
ATOM     19  C   UNL     1      -1.253  10.959  23.137  0.00  0.00    +0.000 A 
ATOM     20  C   UNL     1      -0.419  10.319  22.213  0.00  0.00    +0.000 A 
ATOM     21  C   UNL     1      -0.351  10.723  20.863  0.00  0.00    +0.000 A 
ATOM     22  C   UNL     1      -1.166  11.797  20.481  0.00  0.00    +0.000 A 
ATOM     23  C   UNL     1      -2.012  12.434  21.399  0.00  0.00    +0.000 A 
BRANCH  18  24
ATOM     24  C   UNL     1      -2.997  12.702  23.715  0.00  0.00    +0.000 C 
BRANCH  24  28
ATOM     25  C   UNL     1      -5.382  15.335  23.827  0.00  0.00    +0.000 C 
ATOM     26  C   UNL     1      -6.311  14.214  23.391  0.00  0.00    +0.000 C 
ATOM     27  C   UNL     1      -5.429  12.989  23.577  0.00  0.00    +0.000 C 
ATOM     28  N   UNL     1      -4.113  13.419  23.087  0.00  0.00    +0.000 NA
ATOM     29  C   UNL     1      -4.010  14.875  23.309  0.00  0.00    +0.000 C 
BRANCH  25  30
ATOM     30  N   UNL     1      -5.800  16.654  23.366  0.00  0.00    +0.000 NA
ATOM     31  H   UNL     1      -5.908  17.276  24.167  0.00  0.00    +0.000 HD
ATOM     32  H   UNL     1      -6.727  16.584  22.943  0.00  0.00    +0.000 HD
ENDBRANCH  25  30
ENDBRANCH  24  28
ENDBRANCH  18  24
ENDBRANCH   1  21
TORSDOF 5
ENDMDL
MODEL 6
REMARK VINA RESULT:      -8.5      4.328      6.208
REMARK  Name = 
REMARK  5 active torsions:
REMARK  status: ('A' for Active; 'I' for Inactive)
REMARK    1  A    between atoms: N_1  and  C_2
REMARK    2  A    between atoms: N_5  and  C_6
REMARK    3  A    between atoms: C_6  and  C_7
REMARK    4  A    between atoms: C_10  and  C_11
REMARK    5  A    between atoms: C_15  and  C_16
REMARK                            x       y       z     vdW  Elec       q    Type
REMARK                         _______ _______ _______ _____ _____    ______ ____
ROOT
ATOM      1  C   UNL     1       3.096   6.330  18.856  0.00  0.00    +0.000 A 
ATOM      2  C   UNL     1       3.121   5.331  19.835  0.00  0.00    +0.000 A 
ATOM      3  C   UNL     1       3.832   4.135  19.637  0.00  0.00    +0.000 A 
ATOM      4  C   UNL     1       4.559   3.918  18.459  0.00  0.00    +0.000 A 
ATOM      5  C   UNL     1       4.570   4.897  17.471  0.00  0.00    +0.000 A 
ATOM      6  C   UNL     1       3.819   6.071  17.684  0.00  0.00    +0.000 A 
ENDROOT
BRANCH   5   7
ATOM      7  C   UNL     1       5.303   4.831  16.203  0.00  0.00    +0.000 A 
ATOM      8  N   UNL     1       5.047   3.913  15.287  0.00  0.00    +0.000 NA
ATOM      9  C   UNL     1       5.917   4.119  14.265  0.00  0.00    +0.000 A 
ATOM     10  C   UNL     1       6.048   3.391  13.080  0.00  0.00    +0.000 A 
ATOM     11  C   UNL     1       7.041   3.788  12.196  0.00  0.00    +0.000 A 
ATOM     12  F   UNL     1       7.203   3.102  11.055  0.00  0.00    +0.000 F 
ATOM     13  C   UNL     1       7.874   4.872  12.466  0.00  0.00    +0.000 A 
ATOM     14  C   UNL     1       7.741   5.621  13.647  0.00  0.00    +0.000 A 
ATOM     15  C   UNL     1       6.741   5.206  14.531  0.00  0.00    +0.000 A 
ATOM     16  N   UNL     1       6.311   5.661  15.761  0.00  0.00    +0.000 N 
ATOM     17  H   UNL     1       6.677   6.461  16.254  0.00  0.00    +0.000 HD
ENDBRANCH   5   7
BRANCH   1  21
ATOM     18  C   UNL     1       0.855  10.023  19.235  0.00  0.00    +0.000 A 
ATOM     19  C   UNL     1       1.460   9.679  18.026  0.00  0.00    +0.000 A 
ATOM     20  C   UNL     1       2.198   8.496  17.915  0.00  0.00    +0.000 A 
ATOM     21  C   UNL     1       2.350   7.605  19.000  0.00  0.00    +0.000 A 
ATOM     22  C   UNL     1       1.730   7.964  20.205  0.00  0.00    +0.000 A 
ATOM     23  C   UNL     1       0.999   9.153  20.324  0.00  0.00    +0.000 A 
BRANCH  18  24
ATOM     24  C   UNL     1       0.083  11.316  19.381  0.00  0.00    +0.000 C 
BRANCH  24  28
ATOM     25  C   UNL     1      -3.199  11.484  18.027  0.00  0.00    +0.000 C 
ATOM     26  C   UNL     1      -3.472  12.175  19.353  0.00  0.00    +0.000 C 
ATOM     27  C   UNL     1      -2.064  12.388  19.887  0.00  0.00    +0.000 C 
ATOM     28  N   UNL     1      -1.363  11.141  19.557  0.00  0.00    +0.000 NA
ATOM     29  C   UNL     1      -1.990  10.587  18.341  0.00  0.00    +0.000 C 
BRANCH  25  30
ATOM     30  N   UNL     1      -4.357  10.783  17.483  0.00  0.00    +0.000 NA
ATOM     31  H   UNL     1      -5.205  11.304  17.703  0.00  0.00    +0.000 HD
ATOM     32  H   UNL     1      -4.455   9.881  17.952  0.00  0.00    +0.000 HD
ENDBRANCH  25  30
ENDBRANCH  24  28
ENDBRANCH  18  24
ENDBRANCH   1  21
TORSDOF 5
ENDMDL
MODEL 7
REMARK VINA RESULT:      -8.5      4.527     10.944
REMARK  Name = 
REMARK  5 active torsions:
REMARK  status: ('A' for Active; 'I' for Inactive)
REMARK    1  A    between atoms: N_1  and  C_2
REMARK    2  A    between atoms: N_5  and  C_6
REMARK    3  A    between atoms: C_6  and  C_7
REMARK    4  A    between atoms: C_10  and  C_11
REMARK    5  A    between atoms: C_15  and  C_16
REMARK                            x       y       z     vdW  Elec       q    Type
REMARK                         _______ _______ _______ _____ _____    ______ ____
ROOT
ATOM      1  C   UNL     1       0.728   9.351  20.926  0.00  0.00    +0.000 A 
ATOM      2  C   UNL     1       0.111   9.053  22.146  0.00  0.00    +0.000 A 
ATOM      3  C   UNL     1      -0.534  10.049  22.900  0.00  0.00    +0.000 A 
ATOM      4  C   UNL     1      -0.597  11.370  22.438  0.00  0.00    +0.000 A 
ATOM      5  C   UNL     1      -0.008  11.699  21.221  0.00  0.00    +0.000 A 
ATOM      6  C   UNL     1       0.660  10.686  20.505  0.00  0.00    +0.000 A 
ENDROOT
BRANCH   5   7
ATOM      7  C   UNL     1      -0.016  13.024  20.593  0.00  0.00    +0.000 A 
ATOM      8  N   UNL     1       1.009  13.481  19.894  0.00  0.00    +0.000 NA
ATOM      9  C   UNL     1       0.684  14.733  19.485  0.00  0.00    +0.000 A 
ATOM     10  C   UNL     1       1.455  15.626  18.735  0.00  0.00    +0.000 A 
ATOM     11  C   UNL     1       0.904  16.871  18.466  0.00  0.00    +0.000 A 
ATOM     12  F   UNL     1       1.623  17.758  17.761  0.00  0.00    +0.000 F 
ATOM     13  C   UNL     1      -0.368  17.223  18.912  0.00  0.00    +0.000 A 
ATOM     14  C   UNL     1      -1.158  16.328  19.653  0.00  0.00    +0.000 A 
ATOM     15  C   UNL     1      -0.588  15.080  19.922  0.00  0.00    +0.000 A 
ATOM     16  N   UNL     1      -1.026  13.962  20.603  0.00  0.00    +0.000 N 
ATOM     17  H   UNL     1      -1.929  13.854  21.039  0.00  0.00    +0.000 HD
ENDBRANCH   5   7
BRANCH   1  21
ATOM     18  C   UNL     1       2.872   6.457  18.512  0.00  0.00    +0.000 A 
ATOM     19  C   UNL     1       2.576   7.724  18.008  0.00  0.00    +0.000 A 
ATOM     20  C   UNL     1       1.867   8.647  18.784  0.00  0.00    +0.000 A 
ATOM     21  C   UNL     1       1.439   8.347  20.096  0.00  0.00    +0.000 A 
ATOM     22  C   UNL     1       1.751   7.072  20.588  0.00  0.00    +0.000 A 
ATOM     23  C   UNL     1       2.450   6.141  19.810  0.00  0.00    +0.000 A 
BRANCH  18  24
ATOM     24  C   UNL     1       3.607   5.435  17.672  0.00  0.00    +0.000 C 
BRANCH  24  28
ATOM     25  C   UNL     1       6.628   4.862  15.889  0.00  0.00    +0.000 C 
ATOM     26  C   UNL     1       7.181   4.758  17.301  0.00  0.00    +0.000 C 
ATOM     27  C   UNL     1       5.909   4.723  18.132  0.00  0.00    +0.000 C 
ATOM     28  N   UNL     1       5.035   5.715  17.491  0.00  0.00    +0.000 NA
ATOM     29  C   UNL     1       5.398   5.768  16.061  0.00  0.00    +0.000 C 
BRANCH  25  30
ATOM     30  N   UNL     1       7.603   5.333  14.911  0.00  0.00    +0.000 NA
ATOM     31  H   UNL     1       7.863   4.565  14.293  0.00  0.00    +0.000 HD
ATOM     32  H   UNL     1       8.461   5.602  15.395  0.00  0.00    +0.000 HD
ENDBRANCH  25  30
ENDBRANCH  24  28
ENDBRANCH  18  24
ENDBRANCH   1  21
TORSDOF 5
ENDMDL
MODEL 8
REMARK VINA RESULT:      -8.5      4.829     10.782
REMARK  Name = 
REMARK  5 active torsions:
REMARK  status: ('A' for Active; 'I' for Inactive)
REMARK    1  A    between atoms: N_1  and  C_2
REMARK    2  A    between atoms: N_5  and  C_6
REMARK    3  A    between atoms: C_6  and  C_7
REMARK    4  A    between atoms: C_10  and  C_11
REMARK    5  A    between atoms: C_15  and  C_16
REMARK                            x       y       z     vdW  Elec       q    Type
REMARK                         _______ _______ _______ _____ _____    ______ ____
ROOT
ATOM      1  C   UNL     1       0.532  10.156  20.818  0.00  0.00    +0.000 A 
ATOM      2  C   UNL     1      -0.220  10.026  21.990  0.00  0.00    +0.000 A 
ATOM      3  C   UNL     1      -0.785  11.146  22.622  0.00  0.00    +0.000 A 
ATOM      4  C   UNL     1      -0.631  12.430  22.081  0.00  0.00    +0.000 A 
ATOM      5  C   UNL     1       0.098  12.594  20.907  0.00  0.00    +0.000 A 
ATOM      6  C   UNL     1       0.681  11.456  20.316  0.00  0.00    +0.000 A 
ENDROOT
BRANCH   5   7
ATOM      7  C   UNL     1       0.322  13.863  20.206  0.00  0.00    +0.000 A 
ATOM      8  N   UNL     1      -0.663  14.543  19.645  0.00  0.00    +0.000 NA
ATOM      9  C   UNL     1      -0.110  15.638  19.064  0.00  0.00    +0.000 A 
ATOM     10  C   UNL     1      -0.745  16.645  18.335  0.00  0.00    +0.000 A 
ATOM     11  C   UNL     1       0.052  17.654  17.815  0.00  0.00    +0.000 A 
ATOM     12  F   UNL     1      -0.524  18.630  17.097  0.00  0.00    +0.000 F 
ATOM     13  C   UNL     1       1.431  17.677  18.015  0.00  0.00    +0.000 A 
ATOM     14  C   UNL     1       2.079  16.678  18.761  0.00  0.00    +0.000 A 
ATOM     15  C   UNL     1       1.264  15.664  19.273  0.00  0.00    +0.000 A 
ATOM     16  N   UNL     1       1.511  14.536  20.028  0.00  0.00    +0.000 N 
ATOM     17  H   UNL     1       2.411  14.250  20.383  0.00  0.00    +0.000 HD
ENDBRANCH   5   7
BRANCH   1  21
ATOM     18  C   UNL     1       2.460   6.856  18.769  0.00  0.00    +0.000 A 
ATOM     19  C   UNL     1       2.172   8.042  18.093  0.00  0.00    +0.000 A 
ATOM     20  C   UNL     1       1.532   9.096  18.754  0.00  0.00    +0.000 A 
ATOM     21  C   UNL     1       1.168   9.013  20.115  0.00  0.00    +0.000 A 
ATOM     22  C   UNL     1       1.471   7.817  20.780  0.00  0.00    +0.000 A 
ATOM     23  C   UNL     1       2.101   6.754  20.119  0.00  0.00    +0.000 A 
BRANCH  18  24
ATOM     24  C   UNL     1       3.119   5.693  18.059  0.00  0.00    +0.000 C 
BRANCH  24  28
ATOM     25  C   UNL     1       3.433   2.155  17.942  0.00  0.00    +0.000 C 
ATOM     26  C   UNL     1       1.957   2.234  18.293  0.00  0.00    +0.000 C 
ATOM     27  C   UNL     1       1.670   3.715  18.100  0.00  0.00    +0.000 C 
ATOM     28  N   UNL     1       2.850   4.384  18.663  0.00  0.00    +0.000 NA
ATOM     29  C   UNL     1       3.998   3.470  18.503  0.00  0.00    +0.000 C 
BRANCH  25  30
ATOM     30  N   UNL     1       4.088   0.948  18.434  0.00  0.00    +0.000 NA
ATOM     31  H   UNL     1       3.949   0.871  19.441  0.00  0.00    +0.000 HD
ATOM     32  H   UNL     1       5.097   1.035  18.299  0.00  0.00    +0.000 HD
ENDBRANCH  25  30
ENDBRANCH  24  28
ENDBRANCH  18  24
ENDBRANCH   1  21
TORSDOF 5
ENDMDL
MODEL 9
REMARK VINA RESULT:      -8.5      3.817     10.176
REMARK  Name = 
REMARK  5 active torsions:
REMARK  status: ('A' for Active; 'I' for Inactive)
REMARK    1  A    between atoms: N_1  and  C_2
REMARK    2  A    between atoms: N_5  and  C_6
REMARK    3  A    between atoms: C_6  and  C_7
REMARK    4  A    between atoms: C_10  and  C_11
REMARK    5  A    between atoms: C_15  and  C_16
REMARK                            x       y       z     vdW  Elec       q    Type
REMARK                         _______ _______ _______ _____ _____    ______ ____
ROOT
ATOM      1  C   UNL     1       0.436  11.242  19.178  0.00  0.00    +0.000 A 
ATOM      2  C   UNL     1       1.119  12.405  18.806  0.00  0.00    +0.000 A 
ATOM      3  C   UNL     1       0.479  13.656  18.799  0.00  0.00    +0.000 A 
ATOM      4  C   UNL     1      -0.861  13.779  19.191  0.00  0.00    +0.000 A 
ATOM      5  C   UNL     1      -1.566  12.646  19.583  0.00  0.00    +0.000 A 
ATOM      6  C   UNL     1      -0.907  11.401  19.546  0.00  0.00    +0.000 A 
ENDROOT
BRANCH   5   7
ATOM      7  C   UNL     1      -2.958  12.617  20.045  0.00  0.00    +0.000 A 
ATOM      8  N   UNL     1      -3.291  12.875  21.298  0.00  0.00    +0.000 NA
ATOM      9  C   UNL     1      -4.638  12.734  21.387  0.00  0.00    +0.000 A 
ATOM     10  C   UNL     1      -5.450  12.883  22.513  0.00  0.00    +0.000 A 
ATOM     11  C   UNL     1      -6.810  12.656  22.352  0.00  0.00    +0.000 A 
ATOM     12  F   UNL     1      -7.617  12.777  23.417  0.00  0.00    +0.000 F 
ATOM     13  C   UNL     1      -7.354  12.301  21.119  0.00  0.00    +0.000 A 
ATOM     14  C   UNL     1      -6.548  12.163  19.976  0.00  0.00    +0.000 A 
ATOM     15  C   UNL     1      -5.180  12.389  20.155  0.00  0.00    +0.000 A 
ATOM     16  N   UNL     1      -4.091  12.349  19.308  0.00  0.00    +0.000 N 
ATOM     17  H   UNL     1      -4.120  12.150  18.320  0.00  0.00    +0.000 HD
ENDBRANCH   5   7
BRANCH   1  21
ATOM     18  C   UNL     1       2.309   7.331  19.206  0.00  0.00    +0.000 A 
ATOM     19  C   UNL     1       2.265   8.091  18.036  0.00  0.00    +0.000 A 
ATOM     20  C   UNL     1       1.642   9.344  18.029  0.00  0.00    +0.000 A 
ATOM     21  C   UNL     1       1.052   9.892  19.188  0.00  0.00    +0.000 A 
ATOM     22  C   UNL     1       1.112   9.118  20.355  0.00  0.00    +0.000 A 
ATOM     23  C   UNL     1       1.724   7.858  20.365  0.00  0.00    +0.000 A 
BRANCH  18  24
ATOM     24  C   UNL     1       2.947   5.960  19.222  0.00  0.00    +0.000 C 
BRANCH  24  28
ATOM     25  C   UNL     1       1.649   2.702  18.645  0.00  0.00    +0.000 C 
ATOM     26  C   UNL     1       2.491   2.830  17.387  0.00  0.00    +0.000 C 
ATOM     27  C   UNL     1       3.296   4.086  17.678  0.00  0.00    +0.000 C 
ATOM     28  N   UNL     1       2.329   4.994  18.307  0.00  0.00    +0.000 NA
ATOM     29  C   UNL     1       1.325   4.162  19.001  0.00  0.00    +0.000 C 
BRANCH  25  30
ATOM     30  N   UNL     1       0.484   1.838  18.485  0.00  0.00    +0.000 NA
ATOM     31  H   UNL     1       0.384   1.580  17.504  0.00  0.00    +0.000 HD
ATOM     32  H   UNL     1      -0.359   2.363  18.721  0.00  0.00    +0.000 HD
ENDBRANCH  25  30
ENDBRANCH  24  28
ENDBRANCH  18  24
ENDBRANCH   1  21
TORSDOF 5
ENDMDL
