MODEL 1
REMARK VINA RESULT:      -8.0      0.000      0.000
REMARK  Name = 
REMARK  4 active torsions:
REMARK  status: ('A' for Active; 'I' for Inactive)
REMARK    1  A    between atoms: C_2  and  C_9
REMARK    2  A    between atoms: C_9  and  O_10
REMARK    3  A    between atoms: C_9  and  C_18
REMARK    4  A    between atoms: O_10  and  C_11
REMARK                            x       y       z     vdW  Elec       q    Type
REMARK                         _______ _______ _______ _____ _____    ______ ____
ROOT
ATOM      1  C   UNL     1       3.287   5.720  19.432  0.00  0.00    +0.000 C 
ENDROOT
BRANCH   1   3
ATOM      2  O   UNL     1       2.397   7.600  18.211  0.00  0.00    +0.000 OA
ATOM      3  C   UNL     1       2.466   7.024  19.299  0.00  0.00    +0.000 C 
ATOM      4  N   UNL     1       1.904   7.453  20.484  0.00  0.00    +0.000 N 
ATOM      5  C   UNL     1       1.252   8.652  20.571  0.00  0.00    +0.000 A 
ATOM      6  N   UNL     1       0.844   9.440  19.611  0.00  0.00    +0.000 NA
ATOM      7  C   UNL     1       0.384  10.622  20.152  0.00  0.00    +0.000 A 
ATOM      8  C   UNL     1       0.442  10.706  21.527  0.00  0.00    +0.000 A 
ATOM      9  S   UNL     1       1.005   9.212  22.166  0.00  0.00    +0.000 S 
ATOM     10  H   UNL     1       2.102   6.955  21.342  0.00  0.00    +0.000 HD
ENDBRANCH   1   3
BRANCH   1  11
ATOM     11  C   UNL     1       2.405   4.488  19.616  0.00  0.00    +0.000 A 
ATOM     12  C   UNL     1       1.830   3.891  18.481  0.00  0.00    +0.000 A 
ATOM     13  C   UNL     1       0.989   2.784  18.601  0.00  0.00    +0.000 A 
ATOM     14  C   UNL     1       0.704   2.261  19.859  0.00  0.00    +0.000 A 
ATOM     15  C   UNL     1       1.259   2.847  20.994  0.00  0.00    +0.000 A 
ATOM     16  C   UNL     1       2.100   3.956  20.879  0.00  0.00    +0.000 A 
ENDBRANCH   1  11
BRANCH   1  17
ATOM     17  O   UNL     1       4.130   5.444  18.317  0.00  0.00    +0.000 OA
BRANCH  17  18
ATOM     18  C   UNL     1       5.468   5.728  18.393  0.00  0.00    +0.000 A 
ATOM     19  C   UNL     1       6.300   5.397  19.468  0.00  0.00    +0.000 A 
ATOM     20  C   UNL     1       7.638   5.806  19.480  0.00  0.00    +0.000 A 
ATOM     21  C   UNL     1       8.159   6.550  18.424  0.00  0.00    +0.000 A 
ATOM     22  C   UNL     1       7.350   6.863  17.335  0.00  0.00    +0.000 A 
ATOM     23  C   UNL     1       6.015   6.447  17.317  0.00  0.00    +0.000 A 
ATOM     24 BR   UNL     1       4.973   6.887  15.788  0.00  0.00    +0.000 Br
ENDBRANCH  17  18
ENDBRANCH   1  17
TORSDOF 4
ENDMDL
MODEL 2
REMARK VINA RESULT:      -7.9      0.064      1.007
REMARK  Name = 
REMARK  4 active torsions:
REMARK  status: ('A' for Active; 'I' for Inactive)
REMARK    1  A    between atoms: C_2  and  C_9
REMARK    2  A    between atoms: C_9  and  O_10
REMARK    3  A    between atoms: C_9  and  C_18
REMARK    4  A    between atoms: O_10  and  C_11
REMARK                            x       y       z     vdW  Elec       q    Type
REMARK                         _______ _______ _______ _____ _____    ______ ____
ROOT
ATOM      1  C   UNL     1       3.265   5.691  19.381  0.00  0.00    +0.000 C 
ENDROOT
BRANCH   1   3
ATOM      2  O   UNL     1       2.446   7.613  18.176  0.00  0.00    +0.000 OA
ATOM      3  C   UNL     1       2.481   7.017  19.256  0.00  0.00    +0.000 C 
ATOM      4  N   UNL     1       1.911   7.444  20.438  0.00  0.00    +0.000 N 
ATOM      5  C   UNL     1       1.289   8.658  20.534  0.00  0.00    +0.000 A 
ATOM      6  N   UNL     1       0.918   9.471  19.579  0.00  0.00    +0.000 NA
ATOM      7  C   UNL     1       0.481  10.657  20.131  0.00  0.00    +0.000 A 
ATOM      8  C   UNL     1       0.518  10.717  21.508  0.00  0.00    +0.000 A 
ATOM      9  S   UNL     1       1.031   9.200  22.132  0.00  0.00    +0.000 S 
ATOM     10  H   UNL     1       2.081   6.927  21.291  0.00  0.00    +0.000 HD
ENDBRANCH   1   3
BRANCH   1  11
ATOM     11  C   UNL     1       2.348   4.478  19.517  0.00  0.00    +0.000 A 
ATOM     12  C   UNL     1       2.113   3.947  20.797  0.00  0.00    +0.000 A 
ATOM     13  C   UNL     1       1.310   2.819  20.969  0.00  0.00    +0.000 A 
ATOM     14  C   UNL     1       0.736   2.199  19.862  0.00  0.00    +0.000 A 
ATOM     15  C   UNL     1       0.967   2.708  18.587  0.00  0.00    +0.000 A 
ATOM     16  C   UNL     1       1.771   3.836  18.410  0.00  0.00    +0.000 A 
ENDBRANCH   1  11
BRANCH   1  17
ATOM     17  O   UNL     1       4.129   5.416  18.282  0.00  0.00    +0.000 OA
BRANCH  17  18
ATOM     18  C   UNL     1       5.463   5.717  18.377  0.00  0.00    +0.000 A 
ATOM     19  C   UNL     1       6.285   5.390  19.460  0.00  0.00    +0.000 A 
ATOM     20  C   UNL     1       7.617   5.817  19.492  0.00  0.00    +0.000 A 
ATOM     21  C   UNL     1       8.141   6.575  18.448  0.00  0.00    +0.000 A 
ATOM     22  C   UNL     1       7.342   6.885  17.351  0.00  0.00    +0.000 A 
ATOM     23  C   UNL     1       6.013   6.452  17.313  0.00  0.00    +0.000 A 
ATOM     24 BR   UNL     1       4.984   6.889  15.775  0.00  0.00    +0.000 Br
ENDBRANCH  17  18
ENDBRANCH   1  17
TORSDOF 4
ENDMDL
MODEL 3
REMARK VINA RESULT:      -7.8      1.168      1.555
REMARK  Name = 
REMARK  4 active torsions:
REMARK  status: ('A' for Active; 'I' for Inactive)
REMARK    1  A    between atoms: C_2  and  C_9
REMARK    2  A    between atoms: C_9  and  O_10
REMARK    3  A    between atoms: C_9  and  C_18
REMARK    4  A    between atoms: O_10  and  C_11
REMARK                            x       y       z     vdW  Elec       q    Type
REMARK                         _______ _______ _______ _____ _____    ______ ____
ROOT
ATOM      1  C   UNL     1       3.214   6.391  18.787  0.00  0.00    +0.000 C 
ENDROOT
BRANCH   1   3
ATOM      2  O   UNL     1       2.382   8.206  17.433  0.00  0.00    +0.000 OA
ATOM      3  C   UNL     1       2.392   7.679  18.548  0.00  0.00    +0.000 C 
ATOM      4  N   UNL     1       1.758   8.155  19.678  0.00  0.00    +0.000 N 
ATOM      5  C   UNL     1       1.093   9.350  19.673  0.00  0.00    +0.000 A 
ATOM      6  N   UNL     1       0.735  10.089  18.656  0.00  0.00    +0.000 NA
ATOM      7  C   UNL     1       0.235  11.290  19.116  0.00  0.00    +0.000 A 
ATOM      8  C   UNL     1       0.212  11.435  20.487  0.00  0.00    +0.000 A 
ATOM      9  S   UNL     1       0.748   9.977  21.224  0.00  0.00    +0.000 S 
ATOM     10  H   UNL     1       1.909   7.697  20.567  0.00  0.00    +0.000 HD
ENDBRANCH   1   3
BRANCH   1  11
ATOM     11  C   UNL     1       2.332   5.173  19.052  0.00  0.00    +0.000 A 
ATOM     12  C   UNL     1       1.988   4.863  20.379  0.00  0.00    +0.000 A 
ATOM     13  C   UNL     1       1.213   3.741  20.675  0.00  0.00    +0.000 A 
ATOM     14  C   UNL     1       0.778   2.906  19.649  0.00  0.00    +0.000 A 
ATOM     15  C   UNL     1       1.119   3.196  18.330  0.00  0.00    +0.000 A 
ATOM     16  C   UNL     1       1.896   4.317  18.030  0.00  0.00    +0.000 A 
ENDBRANCH   1  11
BRANCH   1  17
ATOM     17  O   UNL     1       4.071   6.035  17.706  0.00  0.00    +0.000 OA
BRANCH  17  18
ATOM     18  C   UNL     1       5.344   5.601  17.965  0.00  0.00    +0.000 A 
ATOM     19  C   UNL     1       6.017   5.766  19.180  0.00  0.00    +0.000 A 
ATOM     20  C   UNL     1       7.348   5.356  19.315  0.00  0.00    +0.000 A 
ATOM     21  C   UNL     1       8.021   4.780  18.239  0.00  0.00    +0.000 A 
ATOM     22  C   UNL     1       7.356   4.585  17.033  0.00  0.00    +0.000 A 
ATOM     23  C   UNL     1       6.023   4.986  16.900  0.00  0.00    +0.000 A 
ATOM     24 BR   UNL     1       5.166   4.669  15.232  0.00  0.00    +0.000 Br
ENDBRANCH  17  18
ENDBRANCH   1  17
TORSDOF 4
ENDMDL
MODEL 4
REMARK VINA RESULT:      -7.5      1.414      1.890
REMARK  Name = 
REMARK  4 active torsions:
REMARK  status: ('A' for Active; 'I' for Inactive)
REMARK    1  A    between atoms: C_2  and  C_9
REMARK    2  A    between atoms: C_9  and  O_10
REMARK    3  A    between atoms: C_9  and  C_18
REMARK    4  A    between atoms: O_10  and  C_11
REMARK                            x       y       z     vdW  Elec       q    Type
REMARK                         _______ _______ _______ _____ _____    ______ ____
ROOT
ATOM      1  C   UNL     1       3.006   6.241  19.196  0.00  0.00    +0.000 C 
ENDROOT
BRANCH   1   3
ATOM      2  O   UNL     1       1.988   8.217  18.259  0.00  0.00    +0.000 OA
ATOM      3  C   UNL     1       2.134   7.515  19.263  0.00  0.00    +0.000 C 
ATOM      4  N   UNL     1       1.617   7.773  20.517  0.00  0.00    +0.000 N 
ATOM      5  C   UNL     1       0.928   8.924  20.781  0.00  0.00    +0.000 A 
ATOM      6  N   UNL     1       0.443   9.805  19.945  0.00  0.00    +0.000 NA
ATOM      7  C   UNL     1      -0.031  10.893  20.649  0.00  0.00    +0.000 A 
ATOM      8  C   UNL     1       0.094  10.810  22.020  0.00  0.00    +0.000 A 
ATOM      9  S   UNL     1       0.742   9.275  22.442  0.00  0.00    +0.000 S 
ATOM     10  H   UNL     1       1.875   7.183  21.296  0.00  0.00    +0.000 HD
ENDBRANCH   1   3
BRANCH   1  11
ATOM     11  C   UNL     1       2.323   5.028  19.823  0.00  0.00    +0.000 A 
ATOM     12  C   UNL     1       2.744   4.597  21.093  0.00  0.00    +0.000 A 
ATOM     13  C   UNL     1       2.174   3.473  21.694  0.00  0.00    +0.000 A 
ATOM     14  C   UNL     1       1.181   2.759  21.030  0.00  0.00    +0.000 A 
ATOM     15  C   UNL     1       0.761   3.168  19.767  0.00  0.00    +0.000 A 
ATOM     16  C   UNL     1       1.329   4.291  19.162  0.00  0.00    +0.000 A 
ENDBRANCH   1  11
BRANCH   1  17
ATOM     17  O   UNL     1       3.373   5.852  17.875  0.00  0.00    +0.000 OA
BRANCH  17  18
ATOM     18  C   UNL     1       4.698   5.759  17.540  0.00  0.00    +0.000 A 
ATOM     19  C   UNL     1       5.593   6.832  17.496  0.00  0.00    +0.000 A 
ATOM     20  C   UNL     1       6.909   6.641  17.063  0.00  0.00    +0.000 A 
ATOM     21  C   UNL     1       7.345   5.378  16.666  0.00  0.00    +0.000 A 
ATOM     22  C   UNL     1       6.473   4.296  16.730  0.00  0.00    +0.000 A 
ATOM     23  C   UNL     1       5.160   4.484  17.171  0.00  0.00    +0.000 A 
ATOM     24 BR   UNL     1       4.029   2.958  17.257  0.00  0.00    +0.000 Br
ENDBRANCH  17  18
ENDBRANCH   1  17
TORSDOF 4
ENDMDL
MODEL 5
REMARK VINA RESULT:      -7.5      1.413      1.641
REMARK  Name = 
REMARK  4 active torsions:
REMARK  status: ('A' for Active; 'I' for Inactive)
REMARK    1  A    between atoms: C_2  and  C_9
REMARK    2  A    between atoms: C_9  and  O_10
REMARK    3  A    between atoms: C_9  and  C_18
REMARK    4  A    between atoms: O_10  and  C_11
REMARK                            x       y       z     vdW  Elec       q    Type
REMARK                         _______ _______ _______ _____ _____    ______ ____
ROOT
ATOM      1  C   UNL     1       3.047   6.244  19.190  0.00  0.00    +0.000 C 
ENDROOT
BRANCH   1   3
ATOM      2  O   UNL     1       1.950   8.176  18.249  0.00  0.00    +0.000 OA
ATOM      3  C   UNL     1       2.139   7.494  19.259  0.00  0.00    +0.000 C 
ATOM      4  N   UNL     1       1.644   7.755  20.521  0.00  0.00    +0.000 N 
ATOM      5  C   UNL     1       0.928   8.890  20.785  0.00  0.00    +0.000 A 
ATOM      6  N   UNL     1       0.399   9.743  19.949  0.00  0.00    +0.000 NA
ATOM      7  C   UNL     1      -0.091  10.827  20.648  0.00  0.00    +0.000 A 
ATOM      8  C   UNL     1       0.069  10.769  22.016  0.00  0.00    +0.000 A 
ATOM      9  S   UNL     1       0.771   9.260  22.445  0.00  0.00    +0.000 S 
ATOM     10  H   UNL     1       1.939   7.185  21.302  0.00  0.00    +0.000 HD
ENDBRANCH   1   3
BRANCH   1  11
ATOM     11  C   UNL     1       2.411   5.019  19.841  0.00  0.00    +0.000 A 
ATOM     12  C   UNL     1       1.385   4.345  19.156  0.00  0.00    +0.000 A 
ATOM     13  C   UNL     1       0.749   3.241  19.725  0.00  0.00    +0.000 A 
ATOM     14  C   UNL     1       1.122   2.799  20.991  0.00  0.00    +0.000 A 
ATOM     15  C   UNL     1       2.130   3.462  21.686  0.00  0.00    +0.000 A 
ATOM     16  C   UNL     1       2.769   4.569  21.121  0.00  0.00    +0.000 A 
ENDBRANCH   1  11
BRANCH   1  17
ATOM     17  O   UNL     1       3.403   5.852  17.866  0.00  0.00    +0.000 OA
BRANCH  17  18
ATOM     18  C   UNL     1       4.725   5.754  17.522  0.00  0.00    +0.000 A 
ATOM     19  C   UNL     1       5.625   6.823  17.475  0.00  0.00    +0.000 A 
ATOM     20  C   UNL     1       6.937   6.626  17.031  0.00  0.00    +0.000 A 
ATOM     21  C   UNL     1       7.364   5.363  16.629  0.00  0.00    +0.000 A 
ATOM     22  C   UNL     1       6.488   4.284  16.696  0.00  0.00    +0.000 A 
ATOM     23  C   UNL     1       5.179   4.477  17.148  0.00  0.00    +0.000 A 
ATOM     24 BR   UNL     1       4.040   2.957  17.239  0.00  0.00    +0.000 Br
ENDBRANCH  17  18
ENDBRANCH   1  17
TORSDOF 4
ENDMDL
MODEL 6
REMARK VINA RESULT:      -7.4      4.272      6.549
REMARK  Name = 
REMARK  4 active torsions:
REMARK  status: ('A' for Active; 'I' for Inactive)
REMARK    1  A    between atoms: C_2  and  C_9
REMARK    2  A    between atoms: C_9  and  O_10
REMARK    3  A    between atoms: C_9  and  C_18
REMARK    4  A    between atoms: O_10  and  C_11
REMARK                            x       y       z     vdW  Elec       q    Type
REMARK                         _______ _______ _______ _____ _____    ______ ____
ROOT
ATOM      1  C   UNL     1       3.980   5.581  17.181  0.00  0.00    +0.000 C 
ENDROOT
BRANCH   1   3
ATOM      2  O   UNL     1       6.021   6.613  16.415  0.00  0.00    +0.000 OA
ATOM      3  C   UNL     1       5.229   5.678  16.275  0.00  0.00    +0.000 C 
ATOM      4  N   UNL     1       5.308   4.681  15.323  0.00  0.00    +0.000 N 
ATOM      5  C   UNL     1       6.280   4.689  14.361  0.00  0.00    +0.000 A 
ATOM      6  N   UNL     1       7.368   5.411  14.295  0.00  0.00    +0.000 NA
ATOM      7  C   UNL     1       7.975   5.214  13.072  0.00  0.00    +0.000 A 
ATOM      8  C   UNL     1       7.335   4.330  12.230  0.00  0.00    +0.000 A 
ATOM      9  S   UNL     1       5.978   3.652  13.039  0.00  0.00    +0.000 S 
ATOM     10  H   UNL     1       4.553   4.015  15.232  0.00  0.00    +0.000 HD
ENDBRANCH   1   3
BRANCH   1  11
ATOM     11  C   UNL     1       3.755   4.170  17.721  0.00  0.00    +0.000 A 
ATOM     12  C   UNL     1       2.647   3.439  17.261  0.00  0.00    +0.000 A 
ATOM     13  C   UNL     1       2.380   2.159  17.750  0.00  0.00    +0.000 A 
ATOM     14  C   UNL     1       3.212   1.595  18.712  0.00  0.00    +0.000 A 
ATOM     15  C   UNL     1       4.309   2.312  19.185  0.00  0.00    +0.000 A 
ATOM     16  C   UNL     1       4.579   3.593  18.700  0.00  0.00    +0.000 A 
ENDBRANCH   1  11
BRANCH   1  17
ATOM     17  O   UNL     1       4.013   6.441  18.317  0.00  0.00    +0.000 OA
BRANCH  17  18
ATOM     18  C   UNL     1       3.060   7.417  18.454  0.00  0.00    +0.000 A 
ATOM     19  C   UNL     1       2.930   8.534  17.624  0.00  0.00    +0.000 A 
ATOM     20  C   UNL     1       1.971   9.515  17.901  0.00  0.00    +0.000 A 
ATOM     21  C   UNL     1       1.135   9.392  19.010  0.00  0.00    +0.000 A 
ATOM     22  C   UNL     1       1.236   8.272  19.829  0.00  0.00    +0.000 A 
ATOM     23  C   UNL     1       2.188   7.286  19.548  0.00  0.00    +0.000 A 
ATOM     24 BR   UNL     1       2.256   5.770  20.694  0.00  0.00    +0.000 Br
ENDBRANCH  17  18
ENDBRANCH   1  17
TORSDOF 4
ENDMDL
MODEL 7
REMARK VINA RESULT:      -7.4      4.262      6.600
REMARK  Name = 
REMARK  4 active torsions:
REMARK  status: ('A' for Active; 'I' for Inactive)
REMARK    1  A    between atoms: C_2  and  C_9
REMARK    2  A    between atoms: C_9  and  O_10
REMARK    3  A    between atoms: C_9  and  C_18
REMARK    4  A    between atoms: O_10  and  C_11
REMARK                            x       y       z     vdW  Elec       q    Type
REMARK                         _______ _______ _______ _____ _____    ______ ____
ROOT
ATOM      1  C   UNL     1       3.929   5.610  17.185  0.00  0.00    +0.000 C 
ENDROOT
BRANCH   1   3
ATOM      2  O   UNL     1       5.990   6.619  16.440  0.00  0.00    +0.000 OA
ATOM      3  C   UNL     1       5.188   5.693  16.291  0.00  0.00    +0.000 C 
ATOM      4  N   UNL     1       5.266   4.695  15.341  0.00  0.00    +0.000 N 
ATOM      5  C   UNL     1       6.248   4.691  14.389  0.00  0.00    +0.000 A 
ATOM      6  N   UNL     1       7.345   5.400  14.334  0.00  0.00    +0.000 NA
ATOM      7  C   UNL     1       7.962   5.196  13.117  0.00  0.00    +0.000 A 
ATOM      8  C   UNL     1       7.320   4.318  12.268  0.00  0.00    +0.000 A 
ATOM      9  S   UNL     1       5.948   3.656  13.064  0.00  0.00    +0.000 S 
ATOM     10  H   UNL     1       4.504   4.037  15.243  0.00  0.00    +0.000 HD
ENDBRANCH   1   3
BRANCH   1  11
ATOM     11  C   UNL     1       3.677   4.200  17.714  0.00  0.00    +0.000 A 
ATOM     12  C   UNL     1       4.545   3.677  18.687  0.00  0.00    +0.000 A 
ATOM     13  C   UNL     1       4.376   2.381  19.176  0.00  0.00    +0.000 A 
ATOM     14  C   UNL     1       3.341   1.585  18.693  0.00  0.00    +0.000 A 
ATOM     15  C   UNL     1       2.478   2.087  17.722  0.00  0.00    +0.000 A 
ATOM     16  C   UNL     1       2.645   3.382  17.228  0.00  0.00    +0.000 A 
ENDBRANCH   1  11
BRANCH   1  17
ATOM     17  O   UNL     1       3.965   6.463  18.326  0.00  0.00    +0.000 OA
BRANCH  17  18
ATOM     18  C   UNL     1       3.023   7.448  18.464  0.00  0.00    +0.000 A 
ATOM     19  C   UNL     1       2.893   8.559  17.625  0.00  0.00    +0.000 A 
ATOM     20  C   UNL     1       1.945   9.550  17.903  0.00  0.00    +0.000 A 
ATOM     21  C   UNL     1       1.121   9.445  19.021  0.00  0.00    +0.000 A 
ATOM     22  C   UNL     1       1.221   8.332  19.849  0.00  0.00    +0.000 A 
ATOM     23  C   UNL     1       2.160   7.336  19.568  0.00  0.00    +0.000 A 
ATOM     24 BR   UNL     1       2.228   5.830  20.728  0.00  0.00    +0.000 Br
ENDBRANCH  17  18
ENDBRANCH   1  17
TORSDOF 4
ENDMDL
MODEL 8
REMARK VINA RESULT:      -7.3      3.383      6.003
REMARK  Name = 
REMARK  4 active torsions:
REMARK  status: ('A' for Active; 'I' for Inactive)
REMARK    1  A    between atoms: C_2  and  C_9
REMARK    2  A    between atoms: C_9  and  O_10
REMARK    3  A    between atoms: C_9  and  C_18
REMARK    4  A    between atoms: O_10  and  C_11
REMARK                            x       y       z     vdW  Elec       q    Type
REMARK                         _______ _______ _______ _____ _____    ______ ____
ROOT
ATOM      1  C   UNL     1       2.695   5.902  18.846  0.00  0.00    +0.000 C 
ENDROOT
BRANCH   1   3
ATOM      2  O   UNL     1       5.098   5.950  19.050  0.00  0.00    +0.000 OA
ATOM      3  C   UNL     1       4.134   5.633  18.349  0.00  0.00    +0.000 C 
ATOM      4  N   UNL     1       4.196   5.077  17.087  0.00  0.00    +0.000 N 
ATOM      5  C   UNL     1       5.389   4.891  16.446  0.00  0.00    +0.000 A 
ATOM      6  N   UNL     1       6.602   4.951  16.930  0.00  0.00    +0.000 NA
ATOM      7  C   UNL     1       7.513   4.862  15.898  0.00  0.00    +0.000 A 
ATOM      8  C   UNL     1       6.967   4.724  14.639  0.00  0.00    +0.000 A 
ATOM      9  S   UNL     1       5.257   4.607  14.768  0.00  0.00    +0.000 S 
ATOM     10  H   UNL     1       3.344   4.943  16.557  0.00  0.00    +0.000 HD
ENDBRANCH   1   3
BRANCH   1  11
ATOM     11  C   UNL     1       2.104   4.715  19.601  0.00  0.00    +0.000 A 
ATOM     12  C   UNL     1       2.433   4.543  20.957  0.00  0.00    +0.000 A 
ATOM     13  C   UNL     1       1.945   3.454  21.681  0.00  0.00    +0.000 A 
ATOM     14  C   UNL     1       1.127   2.516  21.058  0.00  0.00    +0.000 A 
ATOM     15  C   UNL     1       0.800   2.667  19.713  0.00  0.00    +0.000 A 
ATOM     16  C   UNL     1       1.287   3.754  18.984  0.00  0.00    +0.000 A 
ENDBRANCH   1  11
BRANCH   1  17
ATOM     17  O   UNL     1       2.577   7.026  19.714  0.00  0.00    +0.000 OA
BRANCH  17  18
ATOM     18  C   UNL     1       2.044   8.195  19.239  0.00  0.00    +0.000 A 
ATOM     19  C   UNL     1       2.283   8.729  17.969  0.00  0.00    +0.000 A 
ATOM     20  C   UNL     1       1.752   9.974  17.612  0.00  0.00    +0.000 A 
ATOM     21  C   UNL     1       0.979  10.697  18.518  0.00  0.00    +0.000 A 
ATOM     22  C   UNL     1       0.710  10.165  19.775  0.00  0.00    +0.000 A 
ATOM     23  C   UNL     1       1.232   8.918  20.130  0.00  0.00    +0.000 A 
ATOM     24 BR   UNL     1       0.806   8.238  21.854  0.00  0.00    +0.000 Br
ENDBRANCH  17  18
ENDBRANCH   1  17
TORSDOF 4
ENDMDL
MODEL 9
REMARK VINA RESULT:      -7.2      1.363      1.930
REMARK  Name = 
REMARK  4 active torsions:
REMARK  status: ('A' for Active; 'I' for Inactive)
REMARK    1  A    between atoms: C_2  and  C_9
REMARK    2  A    between atoms: C_9  and  O_10
REMARK    3  A    between atoms: C_9  and  C_18
REMARK    4  A    between atoms: O_10  and  C_11
REMARK                            x       y       z     vdW  Elec       q    Type
REMARK                         _______ _______ _______ _____ _____    ______ ____
ROOT
ATOM      1  C   UNL     1       3.067   6.488  18.829  0.00  0.00    +0.000 C 
ENDROOT
BRANCH   1   3
ATOM      2  O   UNL     1       2.147   8.229  17.435  0.00  0.00    +0.000 OA
ATOM      3  C   UNL     1       2.223   7.758  18.572  0.00  0.00    +0.000 C 
ATOM      4  N   UNL     1       1.648   8.287  19.711  0.00  0.00    +0.000 N 
ATOM      5  C   UNL     1       0.974   9.476  19.683  0.00  0.00    +0.000 A 
ATOM      6  N   UNL     1       0.554  10.161  18.652  0.00  0.00    +0.000 NA
ATOM      7  C   UNL     1       0.070  11.381  19.078  0.00  0.00    +0.000 A 
ATOM      8  C   UNL     1       0.122  11.594  20.440  0.00  0.00    +0.000 A 
ATOM      9  S   UNL     1       0.710  10.178  21.217  0.00  0.00    +0.000 S 
ATOM     10  H   UNL     1       1.852   7.875  20.611  0.00  0.00    +0.000 HD
ENDBRANCH   1   3
BRANCH   1  11
ATOM     11  C   UNL     1       2.207   5.253  19.080  0.00  0.00    +0.000 A 
ATOM     12  C   UNL     1       1.874   4.917  20.403  0.00  0.00    +0.000 A 
ATOM     13  C   UNL     1       1.119   3.778  20.686  0.00  0.00    +0.000 A 
ATOM     14  C   UNL     1       0.693   2.952  19.650  0.00  0.00    +0.000 A 
ATOM     15  C   UNL     1       1.023   3.266  18.334  0.00  0.00    +0.000 A 
ATOM     16  C   UNL     1       1.780   4.404  18.047  0.00  0.00    +0.000 A 
ENDBRANCH   1  11
BRANCH   1  17
ATOM     17  O   UNL     1       3.952   6.149  17.764  0.00  0.00    +0.000 OA
BRANCH  17  18
ATOM     18  C   UNL     1       5.292   6.407  17.889  0.00  0.00    +0.000 A 
ATOM     19  C   UNL     1       5.935   7.558  17.426  0.00  0.00    +0.000 A 
ATOM     20  C   UNL     1       7.324   7.686  17.533  0.00  0.00    +0.000 A 
ATOM     21  C   UNL     1       8.085   6.666  18.101  0.00  0.00    +0.000 A 
ATOM     22  C   UNL     1       7.455   5.527  18.591  0.00  0.00    +0.000 A 
ATOM     23  C   UNL     1       6.066   5.401  18.493  0.00  0.00    +0.000 A 
ATOM     24 BR   UNL     1       5.267   3.829  19.204  0.00  0.00    +0.000 Br
ENDBRANCH  17  18
ENDBRANCH   1  17
TORSDOF 4
ENDMDL
