MODEL 1
REMARK VINA RESULT:      -8.1      0.000      0.000
REMARK  Name = 
REMARK  9 active torsions:
REMARK  status: ('A' for Active; 'I' for Inactive)
REMARK    1  A    between atoms: C_1  and  O_2
REMARK    2  A    between atoms: O_2  and  C_3
REMARK    3  A    between atoms: N_13  and  C_14
REMARK    4  A    between atoms: C_14  and  C_15
REMARK    5  A    between atoms: N_17  and  C_18
REMARK    6  A    between atoms: C_18  and  C_19
REMARK    7  A    between atoms: C_19  and  C_20
REMARK    8  A    between atoms: C_20  and  C_21
REMARK    9  A    between atoms: C_28  and  C_29
REMARK                            x       y       z     vdW  Elec       q    Type
REMARK                         _______ _______ _______ _____ _____    ______ ____
ROOT
ATOM      1  C   UNL     1      -0.593  10.326  22.367  0.00  0.00    +0.000 A 
ATOM      2  C   UNL     1      -0.340  11.098  21.240  0.00  0.00    +0.000 A 
ATOM      3  C   UNL     1       0.458  10.623  20.190  0.00  0.00    +0.000 A 
ATOM      4  C   UNL     1       0.995   9.323  20.275  0.00  0.00    +0.000 A 
ATOM      5  C   UNL     1       0.721   8.527  21.399  0.00  0.00    +0.000 A 
ATOM      6  C   UNL     1      -0.079   9.032  22.445  0.00  0.00    +0.000 A 
ATOM      7  C   UNL     1       1.358   7.280  21.211  0.00  0.00    +0.000 A 
ATOM      8  C   UNL     1       2.005   7.325  19.998  0.00  0.00    +0.000 A 
ATOM      9  C   UNL     1       2.798   6.315  19.350  0.00  0.00    +0.000 A 
ATOM     10  O   UNL     1       2.994   5.210  19.842  0.00  0.00    +0.000 OA
ATOM     11  N   UNL     1       3.321   6.712  18.113  0.00  0.00    +0.000 N 
ATOM     12  N   UNL     1       3.097   7.950  17.534  0.00  0.00    +0.000 NA
ATOM     13  C   UNL     1       2.382   8.831  18.175  0.00  0.00    +0.000 A 
ATOM     14  C   UNL     1       2.160  10.182  17.577  0.00  0.00    +0.000 C 
ATOM     15  N   UNL     1       1.803   8.562  19.425  0.00  0.00    +0.000 N 
ENDROOT
BRANCH   1  17
ATOM     16  C   UNL     1      -1.706  12.275  23.085  0.00  0.00    +0.000 C 
ATOM     17  O   UNL     1      -1.386  10.906  23.318  0.00  0.00    +0.000 OA
ENDBRANCH   1  17
BRANCH  11  18
ATOM     18  C   UNL     1       4.224   5.805  17.409  0.00  0.00    +0.000 C 
BRANCH  18  19
ATOM     19  C   UNL     1       5.695   6.048  17.734  0.00  0.00    +0.000 C 
ATOM     20  O   UNL     1       6.281   5.396  18.600  0.00  0.00    +0.000 OA
ATOM     21  N   UNL     1       6.261   7.148  17.128  0.00  0.00    +0.000 N 
ATOM     22  H   UNL     1       5.698   7.653  16.447  0.00  0.00    +0.000 HD
BRANCH  21  23
ATOM     23  C   UNL     1       7.644   7.515  17.348  0.00  0.00    +0.000 C 
BRANCH  23  24
ATOM     24  C   UNL     1       7.796   8.961  17.808  0.00  0.00    +0.000 C 
BRANCH  24  25
ATOM     25  C   UNL     1       8.887   9.120  18.871  0.00  0.00    +0.000 C 
BRANCH  25  26
ATOM     26  C   UNL     1       9.271  10.571  19.012  0.00  0.00    +0.000 A 
ATOM     27  C   UNL     1       9.768  11.054  20.229  0.00  0.00    +0.000 A 
ATOM     28  C   UNL     1       9.999  12.418  20.405  0.00  0.00    +0.000 A 
ATOM     29  C   UNL     1       9.741  13.308  19.364  0.00  0.00    +0.000 A 
ATOM     30  C   UNL     1       9.277  12.834  18.139  0.00  0.00    +0.000 A 
ATOM     31  C   UNL     1       9.043  11.470  17.961  0.00  0.00    +0.000 A 
ENDBRANCH  25  26
ENDBRANCH  24  25
ENDBRANCH  23  24
ENDBRANCH  21  23
ENDBRANCH  18  19
ENDBRANCH  11  18
TORSDOF 7
ENDMDL
MODEL 2
REMARK VINA RESULT:      -7.8      4.320      9.292
REMARK  Name = 
REMARK  9 active torsions:
REMARK  status: ('A' for Active; 'I' for Inactive)
REMARK    1  A    between atoms: C_1  and  O_2
REMARK    2  A    between atoms: O_2  and  C_3
REMARK    3  A    between atoms: N_13  and  C_14
REMARK    4  A    between atoms: C_14  and  C_15
REMARK    5  A    between atoms: N_17  and  C_18
REMARK    6  A    between atoms: C_18  and  C_19
REMARK    7  A    between atoms: C_19  and  C_20
REMARK    8  A    between atoms: C_20  and  C_21
REMARK    9  A    between atoms: C_28  and  C_29
REMARK                            x       y       z     vdW  Elec       q    Type
REMARK                         _______ _______ _______ _____ _____    ______ ____
ROOT
ATOM      1  C   UNL     1       2.810   6.540  18.592  0.00  0.00    +0.000 A 
ATOM      2  C   UNL     1       2.710   7.654  17.767  0.00  0.00    +0.000 A 
ATOM      3  C   UNL     1       2.085   8.832  18.199  0.00  0.00    +0.000 A 
ATOM      4  C   UNL     1       1.566   8.889  19.507  0.00  0.00    +0.000 A 
ATOM      5  C   UNL     1       1.688   7.778  20.356  0.00  0.00    +0.000 A 
ATOM      6  C   UNL     1       2.316   6.601  19.895  0.00  0.00    +0.000 A 
ATOM      7  C   UNL     1       1.110   8.117  21.599  0.00  0.00    +0.000 A 
ATOM      8  C   UNL     1       0.647   9.408  21.501  0.00  0.00    +0.000 A 
ATOM      9  C   UNL     1      -0.022  10.215  22.487  0.00  0.00    +0.000 A 
ATOM     10  O   UNL     1      -0.267   9.811  23.618  0.00  0.00    +0.000 OA
ATOM     11  N   UNL     1      -0.366  11.494  22.034  0.00  0.00    +0.000 N 
ATOM     12  N   UNL     1      -0.084  11.974  20.766  0.00  0.00    +0.000 NA
ATOM     13  C   UNL     1       0.512  11.192  19.909  0.00  0.00    +0.000 A 
ATOM     14  C   UNL     1       0.793  11.685  18.528  0.00  0.00    +0.000 C 
ATOM     15  N   UNL     1       0.907   9.885  20.235  0.00  0.00    +0.000 N 
ENDROOT
BRANCH   1  17
ATOM     16  C   UNL     1       4.867   5.521  18.061  0.00  0.00    +0.000 C 
ATOM     17  O   UNL     1       3.443   5.456  18.051  0.00  0.00    +0.000 OA
ENDBRANCH   1  17
BRANCH  11  18
ATOM     18  C   UNL     1      -1.138  12.367  22.916  0.00  0.00    +0.000 C 
BRANCH  18  19
ATOM     19  C   UNL     1      -2.590  12.531  22.478  0.00  0.00    +0.000 C 
ATOM     20  O   UNL     1      -3.520  12.063  23.138  0.00  0.00    +0.000 OA
ATOM     21  N   UNL     1      -2.773  13.073  21.225  0.00  0.00    +0.000 N 
ATOM     22  H   UNL     1      -1.949  13.407  20.731  0.00  0.00    +0.000 HD
BRANCH  21  23
ATOM     23  C   UNL     1      -4.093  13.280  20.667  0.00  0.00    +0.000 C 
BRANCH  23  24
ATOM     24  C   UNL     1      -4.358  12.392  19.455  0.00  0.00    +0.000 C 
BRANCH  24  25
ATOM     25  C   UNL     1      -3.153  11.514  19.104  0.00  0.00    +0.000 C 
BRANCH  25  26
ATOM     26  C   UNL     1      -3.270  11.012  17.688  0.00  0.00    +0.000 A 
ATOM     27  C   UNL     1      -2.312  10.129  17.172  0.00  0.00    +0.000 A 
ATOM     28  C   UNL     1      -2.341   9.765  15.826  0.00  0.00    +0.000 A 
ATOM     29  C   UNL     1      -3.331  10.275  14.987  0.00  0.00    +0.000 A 
ATOM     30  C   UNL     1      -4.307  11.129  15.498  0.00  0.00    +0.000 A 
ATOM     31  C   UNL     1      -4.278  11.496  16.844  0.00  0.00    +0.000 A 
ENDBRANCH  25  26
ENDBRANCH  24  25
ENDBRANCH  23  24
ENDBRANCH  21  23
ENDBRANCH  18  19
ENDBRANCH  11  18
TORSDOF 7
ENDMDL
MODEL 3
REMARK VINA RESULT:      -7.8      4.544      9.445
REMARK  Name = 
REMARK  9 active torsions:
REMARK  status: ('A' for Active; 'I' for Inactive)
REMARK    1  A    between atoms: C_1  and  O_2
REMARK    2  A    between atoms: O_2  and  C_3
REMARK    3  A    between atoms: N_13  and  C_14
REMARK    4  A    between atoms: C_14  and  C_15
REMARK    5  A    between atoms: N_17  and  C_18
REMARK    6  A    between atoms: C_18  and  C_19
REMARK    7  A    between atoms: C_19  and  C_20
REMARK    8  A    between atoms: C_20  and  C_21
REMARK    9  A    between atoms: C_28  and  C_29
REMARK                            x       y       z     vdW  Elec       q    Type
REMARK                         _______ _______ _______ _____ _____    ______ ____
ROOT
ATOM      1  C   UNL     1       2.637   6.436  18.926  0.00  0.00    +0.000 A 
ATOM      2  C   UNL     1       2.606   7.518  18.056  0.00  0.00    +0.000 A 
ATOM      3  C   UNL     1       2.020   8.737  18.423  0.00  0.00    +0.000 A 
ATOM      4  C   UNL     1       1.469   8.869  19.712  0.00  0.00    +0.000 A 
ATOM      5  C   UNL     1       1.522   7.788  20.608  0.00  0.00    +0.000 A 
ATOM      6  C   UNL     1       2.111   6.569  20.211  0.00  0.00    +0.000 A 
ATOM      7  C   UNL     1       0.925   8.201  21.820  0.00  0.00    +0.000 A 
ATOM      8  C   UNL     1       0.521   9.505  21.658  0.00  0.00    +0.000 A 
ATOM      9  C   UNL     1      -0.140  10.378  22.592  0.00  0.00    +0.000 A 
ATOM     10  O   UNL     1      -0.432  10.030  23.730  0.00  0.00    +0.000 OA
ATOM     11  N   UNL     1      -0.417  11.651  22.080  0.00  0.00    +0.000 N 
ATOM     12  N   UNL     1      -0.081  12.067  20.802  0.00  0.00    +0.000 NA
ATOM     13  C   UNL     1       0.503  11.228  19.994  0.00  0.00    +0.000 A 
ATOM     14  C   UNL     1       0.841  11.652  18.603  0.00  0.00    +0.000 C 
ATOM     15  N   UNL     1       0.834   9.920  20.382  0.00  0.00    +0.000 N 
ENDROOT
BRANCH   1  17
ATOM     16  C   UNL     1       4.437   4.927  19.117  0.00  0.00    +0.000 C 
ATOM     17  O   UNL     1       3.238   5.305  18.446  0.00  0.00    +0.000 OA
ENDBRANCH   1  17
BRANCH  11  18
ATOM     18  C   UNL     1      -1.175  12.589  22.904  0.00  0.00    +0.000 C 
BRANCH  18  19
ATOM     19  C   UNL     1      -2.685  12.387  22.813  0.00  0.00    +0.000 C 
ATOM     20  O   UNL     1      -3.308  11.781  23.686  0.00  0.00    +0.000 OA
ATOM     21  N   UNL     1      -3.262  12.766  21.621  0.00  0.00    +0.000 N 
ATOM     22  H   UNL     1      -2.670  13.233  20.939  0.00  0.00    +0.000 HD
BRANCH  21  23
ATOM     23  C   UNL     1      -4.683  12.625  21.381  0.00  0.00    +0.000 C 
BRANCH  23  24
ATOM     24  C   UNL     1      -4.983  11.788  20.142  0.00  0.00    +0.000 C 
BRANCH  24  25
ATOM     25  C   UNL     1      -4.712  12.554  18.843  0.00  0.00    +0.000 C 
BRANCH  25  26
ATOM     26  C   UNL     1      -3.978  11.677  17.863  0.00  0.00    +0.000 A 
ATOM     27  C   UNL     1      -4.444  11.546  16.548  0.00  0.00    +0.000 A 
ATOM     28  C   UNL     1      -3.847  10.635  15.677  0.00  0.00    +0.000 A 
ATOM     29  C   UNL     1      -2.777   9.854  16.110  0.00  0.00    +0.000 A 
ATOM     30  C   UNL     1      -2.286  10.000  17.406  0.00  0.00    +0.000 A 
ATOM     31  C   UNL     1      -2.883  10.909  18.280  0.00  0.00    +0.000 A 
ENDBRANCH  25  26
ENDBRANCH  24  25
ENDBRANCH  23  24
ENDBRANCH  21  23
ENDBRANCH  18  19
ENDBRANCH  11  18
TORSDOF 7
ENDMDL
MODEL 4
REMARK VINA RESULT:      -7.7      4.532      9.651
REMARK  Name = 
REMARK  9 active torsions:
REMARK  status: ('A' for Active; 'I' for Inactive)
REMARK    1  A    between atoms: C_1  and  O_2
REMARK    2  A    between atoms: O_2  and  C_3
REMARK    3  A    between atoms: N_13  and  C_14
REMARK    4  A    between atoms: C_14  and  C_15
REMARK    5  A    between atoms: N_17  and  C_18
REMARK    6  A    between atoms: C_18  and  C_19
REMARK    7  A    between atoms: C_19  and  C_20
REMARK    8  A    between atoms: C_20  and  C_21
REMARK    9  A    between atoms: C_28  and  C_29
REMARK                            x       y       z     vdW  Elec       q    Type
REMARK                         _______ _______ _______ _____ _____    ______ ____
ROOT
ATOM      1  C   UNL     1       2.998   6.626  18.428  0.00  0.00    +0.000 A 
ATOM      2  C   UNL     1       2.561   6.424  19.731  0.00  0.00    +0.000 A 
ATOM      3  C   UNL     1       1.834   7.404  20.421  0.00  0.00    +0.000 A 
ATOM      4  C   UNL     1       1.524   8.611  19.764  0.00  0.00    +0.000 A 
ATOM      5  C   UNL     1       1.938   8.812  18.438  0.00  0.00    +0.000 A 
ATOM      6  C   UNL     1       2.675   7.811  17.769  0.00  0.00    +0.000 A 
ATOM      7  C   UNL     1       1.476  10.082  18.027  0.00  0.00    +0.000 A 
ATOM      8  C   UNL     1       0.798  10.637  19.086  0.00  0.00    +0.000 A 
ATOM      9  C   UNL     1       0.142  11.914  19.181  0.00  0.00    +0.000 A 
ATOM     10  O   UNL     1       0.106  12.711  18.250  0.00  0.00    +0.000 OA
ATOM     11  N   UNL     1      -0.443  12.160  20.429  0.00  0.00    +0.000 N 
ATOM     12  N   UNL     1      -0.426  11.267  21.487  0.00  0.00    +0.000 NA
ATOM     13  C   UNL     1       0.196  10.130  21.348  0.00  0.00    +0.000 A 
ATOM     14  C   UNL     1       0.251   9.171  22.492  0.00  0.00    +0.000 C 
ATOM     15  N   UNL     1       0.828   9.762  20.151  0.00  0.00    +0.000 N 
ENDROOT
BRANCH   1  17
ATOM     16  C   UNL     1       4.499   4.844  18.778  0.00  0.00    +0.000 C 
ATOM     17  O   UNL     1       3.696   5.591  17.869  0.00  0.00    +0.000 OA
ENDBRANCH   1  17
BRANCH  11  18
ATOM     18  C   UNL     1      -1.051  13.466  20.674  0.00  0.00    +0.000 C 
BRANCH  18  19
ATOM     19  C   UNL     1      -2.531  13.383  21.034  0.00  0.00    +0.000 C 
ATOM     20  O   UNL     1      -2.919  13.488  22.198  0.00  0.00    +0.000 OA
ATOM     21  N   UNL     1      -3.370  13.010  20.006  0.00  0.00    +0.000 N 
ATOM     22  H   UNL     1      -2.965  12.913  19.079  0.00  0.00    +0.000 HD
BRANCH  21  23
ATOM     23  C   UNL     1      -4.799  12.876  20.197  0.00  0.00    +0.000 C 
BRANCH  23  24
ATOM     24  C   UNL     1      -5.526  12.505  18.908  0.00  0.00    +0.000 C 
BRANCH  24  25
ATOM     25  C   UNL     1      -5.397  11.015  18.578  0.00  0.00    +0.000 C 
BRANCH  25  26
ATOM     26  C   UNL     1      -4.294  10.796  17.575  0.00  0.00    +0.000 A 
ATOM     27  C   UNL     1      -4.491  11.127  16.228  0.00  0.00    +0.000 A 
ATOM     28  C   UNL     1      -3.524  10.805  15.275  0.00  0.00    +0.000 A 
ATOM     29  C   UNL     1      -2.352  10.157  15.662  0.00  0.00    +0.000 A 
ATOM     30  C   UNL     1      -2.134   9.853  17.004  0.00  0.00    +0.000 A 
ATOM     31  C   UNL     1      -3.100  10.171  17.959  0.00  0.00    +0.000 A 
ENDBRANCH  25  26
ENDBRANCH  24  25
ENDBRANCH  23  24
ENDBRANCH  21  23
ENDBRANCH  18  19
ENDBRANCH  11  18
TORSDOF 7
ENDMDL
MODEL 5
REMARK VINA RESULT:      -7.6      3.722      5.092
REMARK  Name = 
REMARK  9 active torsions:
REMARK  status: ('A' for Active; 'I' for Inactive)
REMARK    1  A    between atoms: C_1  and  O_2
REMARK    2  A    between atoms: O_2  and  C_3
REMARK    3  A    between atoms: N_13  and  C_14
REMARK    4  A    between atoms: C_14  and  C_15
REMARK    5  A    between atoms: N_17  and  C_18
REMARK    6  A    between atoms: C_18  and  C_19
REMARK    7  A    between atoms: C_19  and  C_20
REMARK    8  A    between atoms: C_20  and  C_21
REMARK    9  A    between atoms: C_28  and  C_29
REMARK                            x       y       z     vdW  Elec       q    Type
REMARK                         _______ _______ _______ _____ _____    ______ ____
ROOT
ATOM      1  C   UNL     1      -0.309  10.948  20.801  0.00  0.00    +0.000 A 
ATOM      2  C   UNL     1       0.348  11.099  19.586  0.00  0.00    +0.000 A 
ATOM      3  C   UNL     1       1.157  10.083  19.059  0.00  0.00    +0.000 A 
ATOM      4  C   UNL     1       1.286   8.875  19.772  0.00  0.00    +0.000 A 
ATOM      5  C   UNL     1       0.603   8.705  20.987  0.00  0.00    +0.000 A 
ATOM      6  C   UNL     1      -0.200   9.746  21.499  0.00  0.00    +0.000 A 
ATOM      7  C   UNL     1       0.890   7.407  21.467  0.00  0.00    +0.000 A 
ATOM      8  C   UNL     1       1.731   6.808  20.559  0.00  0.00    +0.000 A 
ATOM      9  C   UNL     1       2.314   5.493  20.586  0.00  0.00    +0.000 A 
ATOM     10  O   UNL     1       2.102   4.693  21.491  0.00  0.00    +0.000 OA
ATOM     11  N   UNL     1       3.141   5.217  19.491  0.00  0.00    +0.000 N 
ATOM     12  N   UNL     1       3.380   6.101  18.452  0.00  0.00    +0.000 NA
ATOM     13  C   UNL     1       2.836   7.285  18.489  0.00  0.00    +0.000 A 
ATOM     14  C   UNL     1       3.111   8.260  17.392  0.00  0.00    +0.000 C 
ATOM     15  N   UNL     1       1.989   7.690  19.532  0.00  0.00    +0.000 N 
ENDROOT
BRANCH   1  17
ATOM     16  C   UNL     1      -1.942  12.541  20.208  0.00  0.00    +0.000 C 
ATOM     17  O   UNL     1      -1.067  12.014  21.202  0.00  0.00    +0.000 OA
ENDBRANCH   1  17
BRANCH  11  18
ATOM     18  C   UNL     1       3.867   3.949  19.462  0.00  0.00    +0.000 C 
BRANCH  18  19
ATOM     19  C   UNL     1       4.895   3.870  18.338  0.00  0.00    +0.000 C 
ATOM     20  O   UNL     1       4.753   3.099  17.387  0.00  0.00    +0.000 OA
ATOM     21  N   UNL     1       6.058   4.578  18.548  0.00  0.00    +0.000 N 
ATOM     22  H   UNL     1       6.107   5.167  19.375  0.00  0.00    +0.000 HD
BRANCH  21  23
ATOM     23  C   UNL     1       7.132   4.590  17.577  0.00  0.00    +0.000 C 
BRANCH  23  24
ATOM     24  C   UNL     1       7.022   5.760  16.604  0.00  0.00    +0.000 C 
BRANCH  24  25
ATOM     25  C   UNL     1       5.824   5.620  15.660  0.00  0.00    +0.000 C 
BRANCH  25  26
ATOM     26  C   UNL     1       6.235   4.909  14.397  0.00  0.00    +0.000 A 
ATOM     27  C   UNL     1       7.418   5.270  13.739  0.00  0.00    +0.000 A 
ATOM     28  C   UNL     1       7.735   4.708  12.502  0.00  0.00    +0.000 A 
ATOM     29  C   UNL     1       6.877   3.777  11.918  0.00  0.00    +0.000 A 
ATOM     30  C   UNL     1       5.715   3.388  12.581  0.00  0.00    +0.000 A 
ATOM     31  C   UNL     1       5.394   3.950  13.817  0.00  0.00    +0.000 A 
ENDBRANCH  25  26
ENDBRANCH  24  25
ENDBRANCH  23  24
ENDBRANCH  21  23
ENDBRANCH  18  19
ENDBRANCH  11  18
TORSDOF 7
ENDMDL
MODEL 6
REMARK VINA RESULT:      -7.6      4.033      8.982
REMARK  Name = 
REMARK  9 active torsions:
REMARK  status: ('A' for Active; 'I' for Inactive)
REMARK    1  A    between atoms: C_1  and  O_2
REMARK    2  A    between atoms: O_2  and  C_3
REMARK    3  A    between atoms: N_13  and  C_14
REMARK    4  A    between atoms: C_14  and  C_15
REMARK    5  A    between atoms: N_17  and  C_18
REMARK    6  A    between atoms: C_18  and  C_19
REMARK    7  A    between atoms: C_19  and  C_20
REMARK    8  A    between atoms: C_20  and  C_21
REMARK    9  A    between atoms: C_28  and  C_29
REMARK                            x       y       z     vdW  Elec       q    Type
REMARK                         _______ _______ _______ _____ _____    ______ ____
ROOT
ATOM      1  C   UNL     1       5.796   4.197  15.428  0.00  0.00    +0.000 A 
ATOM      2  C   UNL     1       5.561   5.531  15.119  0.00  0.00    +0.000 A 
ATOM      3  C   UNL     1       4.768   6.345  15.939  0.00  0.00    +0.000 A 
ATOM      4  C   UNL     1       4.216   5.798  17.114  0.00  0.00    +0.000 A 
ATOM      5  C   UNL     1       4.472   4.459  17.447  0.00  0.00    +0.000 A 
ATOM      6  C   UNL     1       5.267   3.658  16.600  0.00  0.00    +0.000 A 
ATOM      7  C   UNL     1       3.823   4.186  18.672  0.00  0.00    +0.000 A 
ATOM      8  C   UNL     1       3.188   5.339  19.069  0.00  0.00    +0.000 A 
ATOM      9  C   UNL     1       2.390   5.585  20.241  0.00  0.00    +0.000 A 
ATOM     10  O   UNL     1       2.177   4.725  21.089  0.00  0.00    +0.000 OA
ATOM     11  N   UNL     1       1.882   6.887  20.319  0.00  0.00    +0.000 N 
ATOM     12  N   UNL     1       2.125   7.876  19.379  0.00  0.00    +0.000 NA
ATOM     13  C   UNL     1       2.843   7.591  18.329  0.00  0.00    +0.000 A 
ATOM     14  C   UNL     1       3.084   8.638  17.292  0.00  0.00    +0.000 C 
ATOM     15  N   UNL     1       3.408   6.322  18.128  0.00  0.00    +0.000 N 
ENDROOT
BRANCH   1  17
ATOM     16  C   UNL     1       6.296   3.746  13.170  0.00  0.00    +0.000 C 
ATOM     17  O   UNL     1       6.586   3.514  14.545  0.00  0.00    +0.000 OA
ENDBRANCH   1  17
BRANCH  11  18
ATOM     18  C   UNL     1       0.976   7.222  21.415  0.00  0.00    +0.000 C 
BRANCH  18  19
ATOM     19  C   UNL     1       0.918   8.718  21.711  0.00  0.00    +0.000 C 
ATOM     20  O   UNL     1       1.290   9.176  22.792  0.00  0.00    +0.000 OA
ATOM     21  N   UNL     1       0.264   9.483  20.770  0.00  0.00    +0.000 N 
ATOM     22  H   UNL     1      -0.040   9.021  19.917  0.00  0.00    +0.000 HD
BRANCH  21  23
ATOM     23  C   UNL     1       0.118  10.915  20.918  0.00  0.00    +0.000 C 
BRANCH  23  24
ATOM     24  C   UNL     1      -0.592  11.553  19.728  0.00  0.00    +0.000 C 
BRANCH  24  25
ATOM     25  C   UNL     1      -0.660  10.614  18.520  0.00  0.00    +0.000 C 
BRANCH  25  26
ATOM     26  C   UNL     1      -2.011  10.710  17.860  0.00  0.00    +0.000 A 
ATOM     27  C   UNL     1      -2.223  10.136  16.600  0.00  0.00    +0.000 A 
ATOM     28  C   UNL     1      -3.429  10.336  15.927  0.00  0.00    +0.000 A 
ATOM     29  C   UNL     1      -4.434  11.104  16.512  0.00  0.00    +0.000 A 
ATOM     30  C   UNL     1      -4.245  11.652  17.779  0.00  0.00    +0.000 A 
ATOM     31  C   UNL     1      -3.039  11.456  18.453  0.00  0.00    +0.000 A 
ENDBRANCH  25  26
ENDBRANCH  24  25
ENDBRANCH  23  24
ENDBRANCH  21  23
ENDBRANCH  18  19
ENDBRANCH  11  18
TORSDOF 7
ENDMDL
MODEL 7
REMARK VINA RESULT:      -7.4      4.012      5.124
REMARK  Name = 
REMARK  9 active torsions:
REMARK  status: ('A' for Active; 'I' for Inactive)
REMARK    1  A    between atoms: C_1  and  O_2
REMARK    2  A    between atoms: O_2  and  C_3
REMARK    3  A    between atoms: N_13  and  C_14
REMARK    4  A    between atoms: C_14  and  C_15
REMARK    5  A    between atoms: N_17  and  C_18
REMARK    6  A    between atoms: C_18  and  C_19
REMARK    7  A    between atoms: C_19  and  C_20
REMARK    8  A    between atoms: C_20  and  C_21
REMARK    9  A    between atoms: C_28  and  C_29
REMARK                            x       y       z     vdW  Elec       q    Type
REMARK                         _______ _______ _______ _____ _____    ______ ____
ROOT
ATOM      1  C   UNL     1       0.433  11.263  20.804  0.00  0.00    +0.000 A 
ATOM      2  C   UNL     1       0.949  11.293  19.514  0.00  0.00    +0.000 A 
ATOM      3  C   UNL     1       1.494  10.149  18.916  0.00  0.00    +0.000 A 
ATOM      4  C   UNL     1       1.496   8.938  19.635  0.00  0.00    +0.000 A 
ATOM      5  C   UNL     1       0.951   8.893  20.928  0.00  0.00    +0.000 A 
ATOM      6  C   UNL     1       0.415  10.061  21.511  0.00  0.00    +0.000 A 
ATOM      7  C   UNL     1       1.062   7.565  21.398  0.00  0.00    +0.000 A 
ATOM      8  C   UNL     1       1.664   6.825  20.408  0.00  0.00    +0.000 A 
ATOM      9  C   UNL     1       2.005   5.428  20.393  0.00  0.00    +0.000 A 
ATOM     10  O   UNL     1       1.770   4.679  21.335  0.00  0.00    +0.000 OA
ATOM     11  N   UNL     1       2.627   5.008  19.211  0.00  0.00    +0.000 N 
ATOM     12  N   UNL     1       2.886   5.835  18.131  0.00  0.00    +0.000 NA
ATOM     13  C   UNL     1       2.568   7.097  18.207  0.00  0.00    +0.000 A 
ATOM     14  C   UNL     1       2.871   8.007  17.062  0.00  0.00    +0.000 C 
ATOM     15  N   UNL     1       1.943   7.646  19.337  0.00  0.00    +0.000 N 
ENDROOT
BRANCH   1  17
ATOM     16  C   UNL     1       0.113  13.563  20.404  0.00  0.00    +0.000 C 
ATOM     17  O   UNL     1      -0.068  12.447  21.271  0.00  0.00    +0.000 OA
ENDBRANCH   1  17
BRANCH  11  18
ATOM     18  C   UNL     1       3.108   3.631  19.122  0.00  0.00    +0.000 C 
BRANCH  18  19
ATOM     19  C   UNL     1       4.630   3.525  19.119  0.00  0.00    +0.000 C 
ATOM     20  O   UNL     1       5.224   2.757  19.877  0.00  0.00    +0.000 OA
ATOM     21  N   UNL     1       5.287   4.460  18.349  0.00  0.00    +0.000 N 
ATOM     22  H   UNL     1       4.720   5.079  17.775  0.00  0.00    +0.000 HD
BRANCH  21  23
ATOM     23  C   UNL     1       6.731   4.493  18.255  0.00  0.00    +0.000 C 
BRANCH  23  24
ATOM     24  C   UNL     1       7.214   4.939  16.878  0.00  0.00    +0.000 C 
BRANCH  24  25
ATOM     25  C   UNL     1       6.058   5.358  15.965  0.00  0.00    +0.000 C 
BRANCH  25  26
ATOM     26  C   UNL     1       6.325   4.912  14.550  0.00  0.00    +0.000 A 
ATOM     27  C   UNL     1       5.514   3.938  13.954  0.00  0.00    +0.000 A 
ATOM     28  C   UNL     1       5.836   3.427  12.696  0.00  0.00    +0.000 A 
ATOM     29  C   UNL     1       6.965   3.891  12.023  0.00  0.00    +0.000 A 
ATOM     30  C   UNL     1       7.758   4.884  12.594  0.00  0.00    +0.000 A 
ATOM     31  C   UNL     1       7.440   5.394  13.853  0.00  0.00    +0.000 A 
ENDBRANCH  25  26
ENDBRANCH  24  25
ENDBRANCH  23  24
ENDBRANCH  21  23
ENDBRANCH  18  19
ENDBRANCH  11  18
TORSDOF 7
ENDMDL
MODEL 8
REMARK VINA RESULT:      -7.4      1.500      2.385
REMARK  Name = 
REMARK  9 active torsions:
REMARK  status: ('A' for Active; 'I' for Inactive)
REMARK    1  A    between atoms: C_1  and  O_2
REMARK    2  A    between atoms: O_2  and  C_3
REMARK    3  A    between atoms: N_13  and  C_14
REMARK    4  A    between atoms: C_14  and  C_15
REMARK    5  A    between atoms: N_17  and  C_18
REMARK    6  A    between atoms: C_18  and  C_19
REMARK    7  A    between atoms: C_19  and  C_20
REMARK    8  A    between atoms: C_20  and  C_21
REMARK    9  A    between atoms: C_28  and  C_29
REMARK                            x       y       z     vdW  Elec       q    Type
REMARK                         _______ _______ _______ _____ _____    ______ ____
ROOT
ATOM      1  C   UNL     1      -0.117   9.900  21.009  0.00  0.00    +0.000 A 
ATOM      2  C   UNL     1       0.077   8.749  21.763  0.00  0.00    +0.000 A 
ATOM      3  C   UNL     1       0.893   7.704  21.310  0.00  0.00    +0.000 A 
ATOM      4  C   UNL     1       1.546   7.837  20.069  0.00  0.00    +0.000 A 
ATOM      5  C   UNL     1       1.377   9.008  19.313  0.00  0.00    +0.000 A 
ATOM      6  C   UNL     1       0.544  10.043  19.789  0.00  0.00    +0.000 A 
ATOM      7  C   UNL     1       2.155   8.883  18.141  0.00  0.00    +0.000 A 
ATOM      8  C   UNL     1       2.780   7.660  18.189  0.00  0.00    +0.000 A 
ATOM      9  C   UNL     1       3.676   7.055  17.239  0.00  0.00    +0.000 A 
ATOM     10  O   UNL     1       4.015   7.612  16.201  0.00  0.00    +0.000 OA
ATOM     11  N   UNL     1       4.118   5.779  17.609  0.00  0.00    +0.000 N 
ATOM     12  N   UNL     1       3.759   5.140  18.784  0.00  0.00    +0.000 NA
ATOM     13  C   UNL     1       2.932   5.731  19.601  0.00  0.00    +0.000 A 
ATOM     14  C   UNL     1       2.510   5.040  20.855  0.00  0.00    +0.000 C 
ATOM     15  N   UNL     1       2.412   7.010  19.347  0.00  0.00    +0.000 N 
ENDROOT
BRANCH   1  17
ATOM     16  C   UNL     1      -0.431  12.176  21.532  0.00  0.00    +0.000 C 
ATOM     17  O   UNL     1      -0.936  10.844  21.565  0.00  0.00    +0.000 OA
ENDBRANCH   1  17
BRANCH  11  18
ATOM     18  C   UNL     1       4.952   5.027  16.675  0.00  0.00    +0.000 C 
BRANCH  18  19
ATOM     19  C   UNL     1       6.427   5.413  16.739  0.00  0.00    +0.000 C 
ATOM     20  O   UNL     1       7.313   4.641  16.370  0.00  0.00    +0.000 OA
ATOM     21  N   UNL     1       6.702   6.594  17.394  0.00  0.00    +0.000 N 
ATOM     22  H   UNL     1       5.912   7.159  17.696  0.00  0.00    +0.000 HD
BRANCH  21  23
ATOM     23  C   UNL     1       8.054   7.086  17.546  0.00  0.00    +0.000 C 
BRANCH  23  24
ATOM     24  C   UNL     1       8.137   8.274  18.500  0.00  0.00    +0.000 C 
BRANCH  24  25
ATOM     25  C   UNL     1       8.368   9.596  17.761  0.00  0.00    +0.000 C 
BRANCH  25  26
ATOM     26  C   UNL     1       9.279  10.489  18.564  0.00  0.00    +0.000 A 
ATOM     27  C   UNL     1       9.183  10.521  19.961  0.00  0.00    +0.000 A 
ATOM     28  C   UNL     1       9.930  11.440  20.698  0.00  0.00    +0.000 A 
ATOM     29  C   UNL     1      10.783  12.328  20.045  0.00  0.00    +0.000 A 
ATOM     30  C   UNL     1      10.911  12.282  18.659  0.00  0.00    +0.000 A 
ATOM     31  C   UNL     1      10.163  11.365  17.919  0.00  0.00    +0.000 A 
ENDBRANCH  25  26
ENDBRANCH  24  25
ENDBRANCH  23  24
ENDBRANCH  21  23
ENDBRANCH  18  19
ENDBRANCH  11  18
TORSDOF 7
ENDMDL
MODEL 9
REMARK VINA RESULT:      -7.3      4.522      7.124
REMARK  Name = 
REMARK  9 active torsions:
REMARK  status: ('A' for Active; 'I' for Inactive)
REMARK    1  A    between atoms: C_1  and  O_2
REMARK    2  A    between atoms: O_2  and  C_3
REMARK    3  A    between atoms: N_13  and  C_14
REMARK    4  A    between atoms: C_14  and  C_15
REMARK    5  A    between atoms: N_17  and  C_18
REMARK    6  A    between atoms: C_18  and  C_19
REMARK    7  A    between atoms: C_19  and  C_20
REMARK    8  A    between atoms: C_20  and  C_21
REMARK    9  A    between atoms: C_28  and  C_29
REMARK                            x       y       z     vdW  Elec       q    Type
REMARK                         _______ _______ _______ _____ _____    ______ ____
ROOT
ATOM      1  C   UNL     1      -5.349  13.164  19.962  0.00  0.00    +0.000 A 
ATOM      2  C   UNL     1      -5.576  12.346  18.862  0.00  0.00    +0.000 A 
ATOM      3  C   UNL     1      -4.542  11.608  18.272  0.00  0.00    +0.000 A 
ATOM      4  C   UNL     1      -3.248  11.685  18.823  0.00  0.00    +0.000 A 
ATOM      5  C   UNL     1      -3.016  12.489  19.951  0.00  0.00    +0.000 A 
ATOM      6  C   UNL     1      -4.074  13.228  20.522  0.00  0.00    +0.000 A 
ATOM      7  C   UNL     1      -1.653  12.361  20.300  0.00  0.00    +0.000 A 
ATOM      8  C   UNL     1      -1.074  11.498  19.400  0.00  0.00    +0.000 A 
ATOM      9  C   UNL     1       0.288  11.044  19.319  0.00  0.00    +0.000 A 
ATOM     10  O   UNL     1       1.153  11.397  20.113  0.00  0.00    +0.000 OA
ATOM     11  N   UNL     1       0.531  10.168  18.254  0.00  0.00    +0.000 N 
ATOM     12  N   UNL     1      -0.436   9.745  17.357  0.00  0.00    +0.000 NA
ATOM     13  C   UNL     1      -1.651  10.202  17.470  0.00  0.00    +0.000 A 
ATOM     14  C   UNL     1      -2.696   9.781  16.490  0.00  0.00    +0.000 C 
ATOM     15  N   UNL     1      -2.026  11.089  18.491  0.00  0.00    +0.000 N 
ENDROOT
BRANCH   1  17
ATOM     16  C   UNL     1      -7.535  12.999  20.826  0.00  0.00    +0.000 C 
ATOM     17  O   UNL     1      -6.443  13.830  20.442  0.00  0.00    +0.000 OA
ENDBRANCH   1  17
BRANCH  11  18
ATOM     18  C   UNL     1       1.900   9.719  18.013  0.00  0.00    +0.000 C 
BRANCH  18  19
ATOM     19  C   UNL     1       2.207   8.360  18.634  0.00  0.00    +0.000 C 
ATOM     20  O   UNL     1       1.768   8.043  19.741  0.00  0.00    +0.000 OA
ATOM     21  N   UNL     1       3.138   7.598  17.963  0.00  0.00    +0.000 N 
ATOM     22  H   UNL     1       3.474   7.946  17.069  0.00  0.00    +0.000 HD
BRANCH  21  23
ATOM     23  C   UNL     1       3.540   6.291  18.436  0.00  0.00    +0.000 C 
BRANCH  23  24
ATOM     24  C   UNL     1       3.548   5.246  17.324  0.00  0.00    +0.000 C 
BRANCH  24  25
ATOM     25  C   UNL     1       3.772   3.829  17.861  0.00  0.00    +0.000 C 
BRANCH  25  26
ATOM     26  C   UNL     1       2.830   3.549  19.003  0.00  0.00    +0.000 A 
ATOM     27  C   UNL     1       3.332   3.306  20.288  0.00  0.00    +0.000 A 
ATOM     28  C   UNL     1       2.476   2.916  21.318  0.00  0.00    +0.000 A 
ATOM     29  C   UNL     1       1.111   2.774  21.073  0.00  0.00    +0.000 A 
ATOM     30  C   UNL     1       0.597   3.045  19.807  0.00  0.00    +0.000 A 
ATOM     31  C   UNL     1       1.452   3.432  18.774  0.00  0.00    +0.000 A 
ENDBRANCH  25  26
ENDBRANCH  24  25
ENDBRANCH  23  24
ENDBRANCH  21  23
ENDBRANCH  18  19
ENDBRANCH  11  18
TORSDOF 7
ENDMDL
