MODEL 1
REMARK VINA RESULT:      -5.7      0.000      0.000
REMARK  Name = 
REMARK  13 active torsions:
REMARK  status: ('A' for Active; 'I' for Inactive)
REMARK    1  A    between atoms: C_1  and  C_2
REMARK    2  A    between atoms: C_2  and  C_3
REMARK    3  A    between atoms: C_3  and  C_4
REMARK    4  A    between atoms: C_4  and  N_5
REMARK    5  A    between atoms: N_5  and  C_6
REMARK    6  A    between atoms: N_5  and  C_7
REMARK    7  A    between atoms: C_7  and  C_8
REMARK    8  A    between atoms: C_8  and  N_9
REMARK    9  A    between atoms: C_10  and  C_12
REMARK   10  A    between atoms: C_12  and  S_13
REMARK   11  A    between atoms: S_13  and  C_14
REMARK   12  A    between atoms: C_14  and  C_15
REMARK   13  A    between atoms: C_18  and  C_19
REMARK                            x       y       z     vdW  Elec       q    Type
REMARK                         _______ _______ _______ _____ _____    ______ ____
ROOT
ATOM      1  N   UNL     1       3.452   2.816  17.743  0.00  0.00    +0.000 N 
ATOM      2  C   UNL     1       2.115   2.953  18.049  0.00  0.00    +0.000 C 
ATOM      3  O   UNL     1       1.324   3.526  17.283  0.00  0.00    +0.000 OA
ATOM      4  H   UNL     1       4.053   2.205  18.314  0.00  0.00    +0.000 HD
ENDROOT
BRANCH   1   5
ATOM      5  C   UNL     1       3.939   3.328  16.486  0.00  0.00    +0.000 C 
BRANCH   5   6
ATOM      6  C   UNL     1       5.454   3.590  16.385  0.00  0.00    +0.000 C 
BRANCH   6   7
ATOM      7  N   UNL     1       5.795   4.832  15.651  0.00  0.00    +0.000 NA
ATOM      8  C   UNL     1       6.064   4.544  14.235  0.00  0.00    +0.000 C 
BRANCH   7   9
ATOM      9  C   UNL     1       6.951   5.504  16.282  0.00  0.00    +0.000 C 
BRANCH   9  10
ATOM     10  C   UNL     1       7.561   4.716  17.446  0.00  0.00    +0.000 C 
BRANCH  10  12
ATOM     11  C   UNL     1       6.099   5.428  19.347  0.00  0.00    +0.000 C 
ATOM     12  C   UNL     1       7.504   5.478  18.769  0.00  0.00    +0.000 C 
ENDBRANCH  10  12
ENDBRANCH   9  10
ENDBRANCH   7   9
ENDBRANCH   6   7
ENDBRANCH   5   6
ENDBRANCH   1   5
BRANCH   2  13
ATOM     13  C   UNL     1       1.659   2.362  19.372  0.00  0.00    +0.000 C 
BRANCH  13  14
ATOM     14  S   UNL     1       1.094   3.676  20.543  0.00  0.00    +0.000 S 
BRANCH  14  15
ATOM     15  C   UNL     1       2.550   4.774  20.519  0.00  0.00    +0.000 C 
BRANCH  15  16
ATOM     16  C   UNL     1       2.304   6.153  19.934  0.00  0.00    +0.000 A 
ATOM     17  C   UNL     1       2.643   6.420  18.606  0.00  0.00    +0.000 A 
ATOM     18  C   UNL     1       2.410   7.670  18.018  0.00  0.00    +0.000 A 
ATOM     19  C   UNL     1       1.816   8.696  18.761  0.00  0.00    +0.000 A 
ATOM     20  C   UNL     1       1.572  10.051  18.158  0.00  0.00    +0.000 C 
ATOM     21  C   UNL     1       1.450   8.441  20.081  0.00  0.00    +0.000 A 
ATOM     22  C   UNL     1       1.686   7.186  20.671  0.00  0.00    +0.000 A 
ENDBRANCH  15  16
ENDBRANCH  14  15
ENDBRANCH  13  14
ENDBRANCH   2  13
TORSDOF 10
ENDMDL
MODEL 2
REMARK VINA RESULT:      -5.7      1.673      3.242
REMARK  Name = 
REMARK  13 active torsions:
REMARK  status: ('A' for Active; 'I' for Inactive)
REMARK    1  A    between atoms: C_1  and  C_2
REMARK    2  A    between atoms: C_2  and  C_3
REMARK    3  A    between atoms: C_3  and  C_4
REMARK    4  A    between atoms: C_4  and  N_5
REMARK    5  A    between atoms: N_5  and  C_6
REMARK    6  A    between atoms: N_5  and  C_7
REMARK    7  A    between atoms: C_7  and  C_8
REMARK    8  A    between atoms: C_8  and  N_9
REMARK    9  A    between atoms: C_10  and  C_12
REMARK   10  A    between atoms: C_12  and  S_13
REMARK   11  A    between atoms: S_13  and  C_14
REMARK   12  A    between atoms: C_14  and  C_15
REMARK   13  A    between atoms: C_18  and  C_19
REMARK                            x       y       z     vdW  Elec       q    Type
REMARK                         _______ _______ _______ _____ _____    ______ ____
ROOT
ATOM      1  N   UNL     1       4.023   3.465  17.717  0.00  0.00    +0.000 N 
ATOM      2  C   UNL     1       4.319   3.331  19.057  0.00  0.00    +0.000 C 
ATOM      3  O   UNL     1       5.318   3.865  19.563  0.00  0.00    +0.000 OA
ATOM      4  H   UNL     1       3.113   3.148  17.354  0.00  0.00    +0.000 HD
ENDROOT
BRANCH   1   5
ATOM      5  C   UNL     1       4.884   4.272  16.887  0.00  0.00    +0.000 C 
BRANCH   5   6
ATOM      6  C   UNL     1       5.648   3.540  15.767  0.00  0.00    +0.000 C 
BRANCH   6   7
ATOM      7  N   UNL     1       6.862   4.258  15.308  0.00  0.00    +0.000 NA
ATOM      8  C   UNL     1       7.062   5.491  16.081  0.00  0.00    +0.000 C 
BRANCH   7   9
ATOM      9  C   UNL     1       6.772   4.550  13.862  0.00  0.00    +0.000 C 
BRANCH   9  10
ATOM     10  C   UNL     1       6.064   3.456  13.055  0.00  0.00    +0.000 C 
BRANCH  10  12
ATOM     11  C   UNL     1       4.335   2.889  11.338  0.00  0.00    +0.000 C 
ATOM     12  C   UNL     1       4.954   4.007  12.162  0.00  0.00    +0.000 C 
ENDBRANCH  10  12
ENDBRANCH   9  10
ENDBRANCH   7   9
ENDBRANCH   6   7
ENDBRANCH   5   6
ENDBRANCH   1   5
BRANCH   2  13
ATOM     13  C   UNL     1       3.353   2.499  19.883  0.00  0.00    +0.000 C 
BRANCH  13  14
ATOM     14  S   UNL     1       1.725   3.351  20.086  0.00  0.00    +0.000 S 
BRANCH  14  15
ATOM     15  C   UNL     1       2.259   4.856  20.967  0.00  0.00    +0.000 C 
BRANCH  15  16
ATOM     16  C   UNL     1       2.095   6.148  20.189  0.00  0.00    +0.000 A 
ATOM     17  C   UNL     1       1.541   7.271  20.806  0.00  0.00    +0.000 A 
ATOM     18  C   UNL     1       1.394   8.491  20.133  0.00  0.00    +0.000 A 
ATOM     19  C   UNL     1       1.814   8.615  18.804  0.00  0.00    +0.000 A 
ATOM     20  C   UNL     1       1.651   9.908  18.056  0.00  0.00    +0.000 C 
ATOM     21  C   UNL     1       2.391   7.511  18.179  0.00  0.00    +0.000 A 
ATOM     22  C   UNL     1       2.535   6.285  18.855  0.00  0.00    +0.000 A 
ENDBRANCH  15  16
ENDBRANCH  14  15
ENDBRANCH  13  14
ENDBRANCH   2  13
TORSDOF 10
ENDMDL
MODEL 3
REMARK VINA RESULT:      -5.7      1.145      1.324
REMARK  Name = 
REMARK  13 active torsions:
REMARK  status: ('A' for Active; 'I' for Inactive)
REMARK    1  A    between atoms: C_1  and  C_2
REMARK    2  A    between atoms: C_2  and  C_3
REMARK    3  A    between atoms: C_3  and  C_4
REMARK    4  A    between atoms: C_4  and  N_5
REMARK    5  A    between atoms: N_5  and  C_6
REMARK    6  A    between atoms: N_5  and  C_7
REMARK    7  A    between atoms: C_7  and  C_8
REMARK    8  A    between atoms: C_8  and  N_9
REMARK    9  A    between atoms: C_10  and  C_12
REMARK   10  A    between atoms: C_12  and  S_13
REMARK   11  A    between atoms: S_13  and  C_14
REMARK   12  A    between atoms: C_14  and  C_15
REMARK   13  A    between atoms: C_18  and  C_19
REMARK                            x       y       z     vdW  Elec       q    Type
REMARK                         _______ _______ _______ _____ _____    ______ ____
ROOT
ATOM      1  N   UNL     1       4.055   2.853  18.047  0.00  0.00    +0.000 N 
ATOM      2  C   UNL     1       2.714   3.092  18.260  0.00  0.00    +0.000 C 
ATOM      3  O   UNL     1       1.967   3.482  17.350  0.00  0.00    +0.000 OA
ATOM      4  H   UNL     1       4.618   2.384  18.771  0.00  0.00    +0.000 HD
ENDROOT
BRANCH   1   5
ATOM      5  C   UNL     1       4.597   3.033  16.722  0.00  0.00    +0.000 C 
BRANCH   5   6
ATOM      6  C   UNL     1       5.631   4.162  16.546  0.00  0.00    +0.000 C 
BRANCH   6   7
ATOM      7  N   UNL     1       5.047   5.522  16.637  0.00  0.00    +0.000 NA
ATOM      8  C   UNL     1       5.256   6.265  15.387  0.00  0.00    +0.000 C 
BRANCH   7   9
ATOM      9  C   UNL     1       5.620   6.253  17.788  0.00  0.00    +0.000 C 
BRANCH   9  10
ATOM     10  C   UNL     1       6.754   7.211  17.407  0.00  0.00    +0.000 C 
BRANCH  10  12
ATOM     11  C   UNL     1       7.849   5.814  19.169  0.00  0.00    +0.000 C 
ATOM     12  C   UNL     1       7.986   7.050  18.295  0.00  0.00    +0.000 C 
ENDBRANCH  10  12
ENDBRANCH   9  10
ENDBRANCH   7   9
ENDBRANCH   6   7
ENDBRANCH   5   6
ENDBRANCH   1   5
BRANCH   2  13
ATOM     13  C   UNL     1       2.200   2.850  19.669  0.00  0.00    +0.000 C 
BRANCH  13  14
ATOM     14  S   UNL     1       1.423   4.370  20.377  0.00  0.00    +0.000 S 
BRANCH  14  15
ATOM     15  C   UNL     1       2.718   5.597  20.002  0.00  0.00    +0.000 C 
BRANCH  15  16
ATOM     16  C   UNL     1       2.210   6.995  19.700  0.00  0.00    +0.000 A 
ATOM     17  C   UNL     1       2.337   7.522  18.413  0.00  0.00    +0.000 A 
ATOM     18  C   UNL     1       1.860   8.797  18.084  0.00  0.00    +0.000 A 
ATOM     19  C   UNL     1       1.227   9.583  19.054  0.00  0.00    +0.000 A 
ATOM     20  C   UNL     1       0.722  10.961  18.729  0.00  0.00    +0.000 C 
ATOM     21  C   UNL     1       1.071   9.064  20.337  0.00  0.00    +0.000 A 
ATOM     22  C   UNL     1       1.553   7.784  20.668  0.00  0.00    +0.000 A 
ENDBRANCH  15  16
ENDBRANCH  14  15
ENDBRANCH  13  14
ENDBRANCH   2  13
TORSDOF 10
ENDMDL
MODEL 4
REMARK VINA RESULT:      -5.6      2.688      6.641
REMARK  Name = 
REMARK  13 active torsions:
REMARK  status: ('A' for Active; 'I' for Inactive)
REMARK    1  A    between atoms: C_1  and  C_2
REMARK    2  A    between atoms: C_2  and  C_3
REMARK    3  A    between atoms: C_3  and  C_4
REMARK    4  A    between atoms: C_4  and  N_5
REMARK    5  A    between atoms: N_5  and  C_6
REMARK    6  A    between atoms: N_5  and  C_7
REMARK    7  A    between atoms: C_7  and  C_8
REMARK    8  A    between atoms: C_8  and  N_9
REMARK    9  A    between atoms: C_10  and  C_12
REMARK   10  A    between atoms: C_12  and  S_13
REMARK   11  A    between atoms: S_13  and  C_14
REMARK   12  A    between atoms: C_14  and  C_15
REMARK   13  A    between atoms: C_18  and  C_19
REMARK                            x       y       z     vdW  Elec       q    Type
REMARK                         _______ _______ _______ _____ _____    ______ ____
ROOT
ATOM      1  N   UNL     1       3.956   5.864  18.866  0.00  0.00    +0.000 N 
ATOM      2  C   UNL     1       3.813   6.800  17.863  0.00  0.00    +0.000 C 
ATOM      3  O   UNL     1       2.812   7.528  17.786  0.00  0.00    +0.000 OA
ATOM      4  H   UNL     1       4.857   5.385  19.001  0.00  0.00    +0.000 HD
ENDROOT
BRANCH   1   5
ATOM      5  C   UNL     1       2.925   5.749  19.868  0.00  0.00    +0.000 C 
BRANCH   5   6
ATOM      6  C   UNL     1       2.834   4.405  20.616  0.00  0.00    +0.000 C 
BRANCH   6   7
ATOM      7  N   UNL     1       1.451   3.884  20.737  0.00  0.00    +0.000 NA
ATOM      8  C   UNL     1       1.416   2.695  21.599  0.00  0.00    +0.000 C 
BRANCH   7   9
ATOM      9  C   UNL     1       0.894   3.585  19.401  0.00  0.00    +0.000 C 
BRANCH   9  10
ATOM     10  C   UNL     1       1.330   2.227  18.841  0.00  0.00    +0.000 C 
BRANCH  10  12
ATOM     11  C   UNL     1       3.619   1.499  18.144  0.00  0.00    +0.000 C 
ATOM     12  C   UNL     1       2.415   2.349  17.774  0.00  0.00    +0.000 C 
ENDBRANCH  10  12
ENDBRANCH   9  10
ENDBRANCH   7   9
ENDBRANCH   6   7
ENDBRANCH   5   6
ENDBRANCH   1   5
BRANCH   2  13
ATOM     13  C   UNL     1       4.950   6.895  16.860  0.00  0.00    +0.000 C 
BRANCH  13  14
ATOM     14  S   UNL     1       6.595   6.940  17.703  0.00  0.00    +0.000 S 
BRANCH  14  15
ATOM     15  C   UNL     1       7.186   5.253  17.345  0.00  0.00    +0.000 C 
BRANCH  15  16
ATOM     16  C   UNL     1       6.824   4.725  15.969  0.00  0.00    +0.000 A 
ATOM     17  C   UNL     1       5.749   3.847  15.817  0.00  0.00    +0.000 A 
ATOM     18  C   UNL     1       5.365   3.355  14.563  0.00  0.00    +0.000 A 
ATOM     19  C   UNL     1       6.058   3.746  13.413  0.00  0.00    +0.000 A 
ATOM     20  C   UNL     1       5.676   3.218  12.058  0.00  0.00    +0.000 C 
ATOM     21  C   UNL     1       7.119   4.640  13.542  0.00  0.00    +0.000 A 
ATOM     22  C   UNL     1       7.507   5.131  14.802  0.00  0.00    +0.000 A 
ENDBRANCH  15  16
ENDBRANCH  14  15
ENDBRANCH  13  14
ENDBRANCH   2  13
TORSDOF 10
ENDMDL
MODEL 5
REMARK VINA RESULT:      -5.5      4.926      6.616
REMARK  Name = 
REMARK  13 active torsions:
REMARK  status: ('A' for Active; 'I' for Inactive)
REMARK    1  A    between atoms: C_1  and  C_2
REMARK    2  A    between atoms: C_2  and  C_3
REMARK    3  A    between atoms: C_3  and  C_4
REMARK    4  A    between atoms: C_4  and  N_5
REMARK    5  A    between atoms: N_5  and  C_6
REMARK    6  A    between atoms: N_5  and  C_7
REMARK    7  A    between atoms: C_7  and  C_8
REMARK    8  A    between atoms: C_8  and  N_9
REMARK    9  A    between atoms: C_10  and  C_12
REMARK   10  A    between atoms: C_12  and  S_13
REMARK   11  A    between atoms: S_13  and  C_14
REMARK   12  A    between atoms: C_14  and  C_15
REMARK   13  A    between atoms: C_18  and  C_19
REMARK                            x       y       z     vdW  Elec       q    Type
REMARK                         _______ _______ _______ _____ _____    ______ ____
ROOT
ATOM      1  N   UNL     1       7.710   6.949  17.935  0.00  0.00    +0.000 N 
ATOM      2  C   UNL     1       7.632   5.724  18.562  0.00  0.00    +0.000 C 
ATOM      3  O   UNL     1       8.139   5.526  19.678  0.00  0.00    +0.000 OA
ATOM      4  H   UNL     1       7.153   7.134  17.090  0.00  0.00    +0.000 HD
ENDROOT
BRANCH   1   5
ATOM      5  C   UNL     1       8.375   8.039  18.608  0.00  0.00    +0.000 C 
BRANCH   5   6
ATOM      6  C   UNL     1       8.245   9.432  17.963  0.00  0.00    +0.000 C 
BRANCH   6   7
ATOM      7  N   UNL     1       9.288  10.390  18.401  0.00  0.00    +0.000 NA
ATOM      8  C   UNL     1       9.396  10.410  19.867  0.00  0.00    +0.000 C 
BRANCH   7   9
ATOM      9  C   UNL     1       9.003  11.741  17.874  0.00  0.00    +0.000 C 
BRANCH   9  10
ATOM     10  C   UNL     1       9.819  12.850  18.546  0.00  0.00    +0.000 C 
BRANCH  10  12
ATOM     11  C   UNL     1      11.369  14.028  16.974  0.00  0.00    +0.000 C 
ATOM     12  C   UNL     1      10.007  14.071  17.648  0.00  0.00    +0.000 C 
ENDBRANCH  10  12
ENDBRANCH   9  10
ENDBRANCH   7   9
ENDBRANCH   6   7
ENDBRANCH   5   6
ENDBRANCH   1   5
BRANCH   2  13
ATOM     13  C   UNL     1       6.889   4.629  17.817  0.00  0.00    +0.000 C 
BRANCH  13  14
ATOM     14  S   UNL     1       6.128   5.268  16.258  0.00  0.00    +0.000 S 
BRANCH  14  15
ATOM     15  C   UNL     1       4.810   4.031  16.014  0.00  0.00    +0.000 C 
BRANCH  15  16
ATOM     16  C   UNL     1       3.785   3.958  17.131  0.00  0.00    +0.000 A 
ATOM     17  C   UNL     1       3.438   2.722  17.681  0.00  0.00    +0.000 A 
ATOM     18  C   UNL     1       2.515   2.609  18.729  0.00  0.00    +0.000 A 
ATOM     19  C   UNL     1       1.916   3.756  19.264  0.00  0.00    +0.000 A 
ATOM     20  C   UNL     1       0.911   3.659  20.377  0.00  0.00    +0.000 C 
ATOM     21  C   UNL     1       2.268   4.999  18.743  0.00  0.00    +0.000 A 
ATOM     22  C   UNL     1       3.192   5.111  17.688  0.00  0.00    +0.000 A 
ENDBRANCH  15  16
ENDBRANCH  14  15
ENDBRANCH  13  14
ENDBRANCH   2  13
TORSDOF 10
ENDMDL
MODEL 6
REMARK VINA RESULT:      -5.5      1.413      1.582
REMARK  Name = 
REMARK  13 active torsions:
REMARK  status: ('A' for Active; 'I' for Inactive)
REMARK    1  A    between atoms: C_1  and  C_2
REMARK    2  A    between atoms: C_2  and  C_3
REMARK    3  A    between atoms: C_3  and  C_4
REMARK    4  A    between atoms: C_4  and  N_5
REMARK    5  A    between atoms: N_5  and  C_6
REMARK    6  A    between atoms: N_5  and  C_7
REMARK    7  A    between atoms: C_7  and  C_8
REMARK    8  A    between atoms: C_8  and  N_9
REMARK    9  A    between atoms: C_10  and  C_12
REMARK   10  A    between atoms: C_12  and  S_13
REMARK   11  A    between atoms: S_13  and  C_14
REMARK   12  A    between atoms: C_14  and  C_15
REMARK   13  A    between atoms: C_18  and  C_19
REMARK                            x       y       z     vdW  Elec       q    Type
REMARK                         _______ _______ _______ _____ _____    ______ ____
ROOT
ATOM      1  N   UNL     1       3.370   3.584  17.509  0.00  0.00    +0.000 N 
ATOM      2  C   UNL     1       3.617   3.384  18.851  0.00  0.00    +0.000 C 
ATOM      3  O   UNL     1       4.772   3.326  19.301  0.00  0.00    +0.000 OA
ATOM      4  H   UNL     1       2.413   3.784  17.184  0.00  0.00    +0.000 HD
ENDROOT
BRANCH   1   5
ATOM      5  C   UNL     1       4.484   3.757  16.609  0.00  0.00    +0.000 C 
BRANCH   5   6
ATOM      6  C   UNL     1       4.812   5.202  16.186  0.00  0.00    +0.000 C 
BRANCH   6   7
ATOM      7  N   UNL     1       6.025   5.312  15.340  0.00  0.00    +0.000 NA
ATOM      8  C   UNL     1       6.370   4.012  14.750  0.00  0.00    +0.000 C 
BRANCH   7   9
ATOM      9  C   UNL     1       7.155   5.853  16.126  0.00  0.00    +0.000 C 
BRANCH   9  10
ATOM     10  C   UNL     1       6.725   6.562  17.415  0.00  0.00    +0.000 C 
BRANCH  10  12
ATOM     11  C   UNL     1       7.717   5.640  19.518  0.00  0.00    +0.000 C 
ATOM     12  C   UNL     1       7.863   6.687  18.426  0.00  0.00    +0.000 C 
ENDBRANCH  10  12
ENDBRANCH   9  10
ENDBRANCH   7   9
ENDBRANCH   6   7
ENDBRANCH   5   6
ENDBRANCH   1   5
BRANCH   2  13
ATOM     13  C   UNL     1       2.401   3.243  19.749  0.00  0.00    +0.000 C 
BRANCH  13  14
ATOM     14  S   UNL     1       2.100   4.782  20.728  0.00  0.00    +0.000 S 
BRANCH  14  15
ATOM     15  C   UNL     1       3.005   5.993  19.708  0.00  0.00    +0.000 C 
BRANCH  15  16
ATOM     16  C   UNL     1       2.284   7.310  19.487  0.00  0.00    +0.000 A 
ATOM     17  C   UNL     1       2.216   7.863  18.206  0.00  0.00    +0.000 A 
ATOM     18  C   UNL     1       1.541   9.064  17.951  0.00  0.00    +0.000 A 
ATOM     19  C   UNL     1       0.901   9.744  18.993  0.00  0.00    +0.000 A 
ATOM     20  C   UNL     1       0.184  11.043  18.748  0.00  0.00    +0.000 C 
ATOM     21  C   UNL     1       0.939   9.196  20.273  0.00  0.00    +0.000 A 
ATOM     22  C   UNL     1       1.620   7.992  20.529  0.00  0.00    +0.000 A 
ENDBRANCH  15  16
ENDBRANCH  14  15
ENDBRANCH  13  14
ENDBRANCH   2  13
TORSDOF 10
ENDMDL
MODEL 7
REMARK VINA RESULT:      -5.5      1.755      2.234
REMARK  Name = 
REMARK  13 active torsions:
REMARK  status: ('A' for Active; 'I' for Inactive)
REMARK    1  A    between atoms: C_1  and  C_2
REMARK    2  A    between atoms: C_2  and  C_3
REMARK    3  A    between atoms: C_3  and  C_4
REMARK    4  A    between atoms: C_4  and  N_5
REMARK    5  A    between atoms: N_5  and  C_6
REMARK    6  A    between atoms: N_5  and  C_7
REMARK    7  A    between atoms: C_7  and  C_8
REMARK    8  A    between atoms: C_8  and  N_9
REMARK    9  A    between atoms: C_10  and  C_12
REMARK   10  A    between atoms: C_12  and  S_13
REMARK   11  A    between atoms: S_13  and  C_14
REMARK   12  A    between atoms: C_14  and  C_15
REMARK   13  A    between atoms: C_18  and  C_19
REMARK                            x       y       z     vdW  Elec       q    Type
REMARK                         _______ _______ _______ _____ _____    ______ ____
ROOT
ATOM      1  N   UNL     1       3.960   3.828  18.400  0.00  0.00    +0.000 N 
ATOM      2  C   UNL     1       2.617   3.713  18.109  0.00  0.00    +0.000 C 
ATOM      3  O   UNL     1       2.212   3.526  16.951  0.00  0.00    +0.000 OA
ATOM      4  H   UNL     1       4.278   3.826  19.379  0.00  0.00    +0.000 HD
ENDROOT
BRANCH   1   5
ATOM      5  C   UNL     1       4.921   3.699  17.333  0.00  0.00    +0.000 C 
BRANCH   5   6
ATOM      6  C   UNL     1       5.133   4.936  16.439  0.00  0.00    +0.000 C 
BRANCH   6   7
ATOM      7  N   UNL     1       6.460   5.576  16.614  0.00  0.00    +0.000 NA
ATOM      8  C   UNL     1       7.416   4.637  17.218  0.00  0.00    +0.000 C 
BRANCH   7   9
ATOM      9  C   UNL     1       6.337   6.803  17.428  0.00  0.00    +0.000 C 
BRANCH   9  10
ATOM     10  C   UNL     1       7.682   7.360  17.909  0.00  0.00    +0.000 C 
BRANCH  10  12
ATOM     11  C   UNL     1       8.825   9.481  18.582  0.00  0.00    +0.000 C 
ATOM     12  C   UNL     1       7.846   8.848  17.606  0.00  0.00    +0.000 C 
ENDBRANCH  10  12
ENDBRANCH   9  10
ENDBRANCH   7   9
ENDBRANCH   6   7
ENDBRANCH   5   6
ENDBRANCH   1   5
BRANCH   2  13
ATOM     13  C   UNL     1       1.658   3.824  19.282  0.00  0.00    +0.000 C 
BRANCH  13  14
ATOM     14  S   UNL     1       2.137   5.200  20.420  0.00  0.00    +0.000 S 
BRANCH  14  15
ATOM     15  C   UNL     1       2.745   6.420  19.209  0.00  0.00    +0.000 C 
BRANCH  15  16
ATOM     16  C   UNL     1       2.031   7.759  19.234  0.00  0.00    +0.000 A 
ATOM     17  C   UNL     1       1.851   8.478  18.050  0.00  0.00    +0.000 A 
ATOM     18  C   UNL     1       1.176   9.705  18.022  0.00  0.00    +0.000 A 
ATOM     19  C   UNL     1       0.652  10.245  19.202  0.00  0.00    +0.000 A 
ATOM     20  C   UNL     1      -0.061  11.569  19.201  0.00  0.00    +0.000 C 
ATOM     21  C   UNL     1       0.802   9.531  20.389  0.00  0.00    +0.000 A 
ATOM     22  C   UNL     1       1.483   8.300  20.416  0.00  0.00    +0.000 A 
ENDBRANCH  15  16
ENDBRANCH  14  15
ENDBRANCH  13  14
ENDBRANCH   2  13
TORSDOF 10
ENDMDL
MODEL 8
REMARK VINA RESULT:      -5.5      3.215      6.983
REMARK  Name = 
REMARK  13 active torsions:
REMARK  status: ('A' for Active; 'I' for Inactive)
REMARK    1  A    between atoms: C_1  and  C_2
REMARK    2  A    between atoms: C_2  and  C_3
REMARK    3  A    between atoms: C_3  and  C_4
REMARK    4  A    between atoms: C_4  and  N_5
REMARK    5  A    between atoms: N_5  and  C_6
REMARK    6  A    between atoms: N_5  and  C_7
REMARK    7  A    between atoms: C_7  and  C_8
REMARK    8  A    between atoms: C_8  and  N_9
REMARK    9  A    between atoms: C_10  and  C_12
REMARK   10  A    between atoms: C_12  and  S_13
REMARK   11  A    between atoms: S_13  and  C_14
REMARK   12  A    between atoms: C_14  and  C_15
REMARK   13  A    between atoms: C_18  and  C_19
REMARK                            x       y       z     vdW  Elec       q    Type
REMARK                         _______ _______ _______ _____ _____    ______ ____
ROOT
ATOM      1  N   UNL     1       1.640   6.840  20.985  0.00  0.00    +0.000 N 
ATOM      2  C   UNL     1       2.180   6.372  19.806  0.00  0.00    +0.000 C 
ATOM      3  O   UNL     1       2.549   7.140  18.904  0.00  0.00    +0.000 OA
ATOM      4  H   UNL     1       1.488   6.198  21.775  0.00  0.00    +0.000 HD
ENDROOT
BRANCH   1   5
ATOM      5  C   UNL     1       1.528   8.264  21.187  0.00  0.00    +0.000 C 
BRANCH   5   6
ATOM      6  C   UNL     1       0.146   8.893  20.930  0.00  0.00    +0.000 C 
BRANCH   6   7
ATOM      7  N   UNL     1       0.202  10.158  20.159  0.00  0.00    +0.000 NA
ATOM      8  C   UNL     1       0.614  11.275  21.020  0.00  0.00    +0.000 C 
BRANCH   7   9
ATOM      9  C   UNL     1      -1.105  10.434  19.525  0.00  0.00    +0.000 C 
BRANCH   9  10
ATOM     10  C   UNL     1      -1.002  10.824  18.047  0.00  0.00    +0.000 C 
BRANCH  10  12
ATOM     11  C   UNL     1      -3.198   9.668  17.725  0.00  0.00    +0.000 C 
ATOM     12  C   UNL     1      -1.816   9.906  17.137  0.00  0.00    +0.000 C 
ENDBRANCH  10  12
ENDBRANCH   9  10
ENDBRANCH   7   9
ENDBRANCH   6   7
ENDBRANCH   5   6
ENDBRANCH   1   5
BRANCH   2  13
ATOM     13  C   UNL     1       2.302   4.864  19.670  0.00  0.00    +0.000 C 
BRANCH  13  14
ATOM     14  S   UNL     1       2.064   4.319  17.920  0.00  0.00    +0.000 S 
BRANCH  14  15
ATOM     15  C   UNL     1       3.738   3.701  17.546  0.00  0.00    +0.000 C 
BRANCH  15  16
ATOM     16  C   UNL     1       4.831   4.754  17.569  0.00  0.00    +0.000 A 
ATOM     17  C   UNL     1       4.798   5.816  16.663  0.00  0.00    +0.000 A 
ATOM     18  C   UNL     1       5.772   6.823  16.665  0.00  0.00    +0.000 A 
ATOM     19  C   UNL     1       6.815   6.790  17.598  0.00  0.00    +0.000 A 
ATOM     20  C   UNL     1       7.881   7.849  17.609  0.00  0.00    +0.000 C 
ATOM     21  C   UNL     1       6.851   5.750  18.524  0.00  0.00    +0.000 A 
ATOM     22  C   UNL     1       5.875   4.737  18.519  0.00  0.00    +0.000 A 
ENDBRANCH  15  16
ENDBRANCH  14  15
ENDBRANCH  13  14
ENDBRANCH   2  13
TORSDOF 10
ENDMDL
MODEL 9
REMARK VINA RESULT:      -5.4      1.575      2.012
REMARK  Name = 
REMARK  13 active torsions:
REMARK  status: ('A' for Active; 'I' for Inactive)
REMARK    1  A    between atoms: C_1  and  C_2
REMARK    2  A    between atoms: C_2  and  C_3
REMARK    3  A    between atoms: C_3  and  C_4
REMARK    4  A    between atoms: C_4  and  N_5
REMARK    5  A    between atoms: N_5  and  C_6
REMARK    6  A    between atoms: N_5  and  C_7
REMARK    7  A    between atoms: C_7  and  C_8
REMARK    8  A    between atoms: C_8  and  N_9
REMARK    9  A    between atoms: C_10  and  C_12
REMARK   10  A    between atoms: C_12  and  S_13
REMARK   11  A    between atoms: S_13  and  C_14
REMARK   12  A    between atoms: C_14  and  C_15
REMARK   13  A    between atoms: C_18  and  C_19
REMARK                            x       y       z     vdW  Elec       q    Type
REMARK                         _______ _______ _______ _____ _____    ______ ____
ROOT
ATOM      1  N   UNL     1       3.356   3.172  18.092  0.00  0.00    +0.000 N 
ATOM      2  C   UNL     1       3.855   3.191  19.377  0.00  0.00    +0.000 C 
ATOM      3  O   UNL     1       5.075   3.226  19.605  0.00  0.00    +0.000 OA
ATOM      4  H   UNL     1       2.348   3.301  17.928  0.00  0.00    +0.000 HD
ENDROOT
BRANCH   1   5
ATOM      5  C   UNL     1       4.276   3.223  16.983  0.00  0.00    +0.000 C 
BRANCH   5   6
ATOM      6  C   UNL     1       5.411   4.260  17.072  0.00  0.00    +0.000 C 
BRANCH   6   7
ATOM      7  N   UNL     1       5.041   5.594  16.540  0.00  0.00    +0.000 NA
ATOM      8  C   UNL     1       5.359   5.691  15.109  0.00  0.00    +0.000 C 
BRANCH   7   9
ATOM      9  C   UNL     1       5.720   6.661  17.306  0.00  0.00    +0.000 C 
BRANCH   9  10
ATOM     10  C   UNL     1       7.245   6.648  17.162  0.00  0.00    +0.000 C 
BRANCH  10  12
ATOM     11  C   UNL     1       7.926   5.777  19.406  0.00  0.00    +0.000 C 
ATOM     12  C   UNL     1       7.964   6.974  18.470  0.00  0.00    +0.000 C 
ENDBRANCH  10  12
ENDBRANCH   9  10
ENDBRANCH   7   9
ENDBRANCH   6   7
ENDBRANCH   5   6
ENDBRANCH   1   5
BRANCH   2  13
ATOM     13  C   UNL     1       2.833   3.172  20.501  0.00  0.00    +0.000 C 
BRANCH  13  14
ATOM     14  S   UNL     1       1.701   4.630  20.412  0.00  0.00    +0.000 S 
BRANCH  14  15
ATOM     15  C   UNL     1       2.866   5.906  19.831  0.00  0.00    +0.000 C 
BRANCH  15  16
ATOM     16  C   UNL     1       2.240   7.253  19.521  0.00  0.00    +0.000 A 
ATOM     17  C   UNL     1       1.585   7.968  20.526  0.00  0.00    +0.000 A 
ATOM     18  C   UNL     1       1.015   9.226  20.291  0.00  0.00    +0.000 A 
ATOM     19  C   UNL     1       1.097   9.808  19.021  0.00  0.00    +0.000 A 
ATOM     20  C   UNL     1       0.479  11.149  18.739  0.00  0.00    +0.000 C 
ATOM     21  C   UNL     1       1.768   9.120  18.012  0.00  0.00    +0.000 A 
ATOM     22  C   UNL     1       2.337   7.855  18.248  0.00  0.00    +0.000 A 
ENDBRANCH  15  16
ENDBRANCH  14  15
ENDBRANCH  13  14
ENDBRANCH   2  13
TORSDOF 10
ENDMDL
