MODEL 1
REMARK VINA RESULT:      -7.9      0.000      0.000
REMARK  Name = 
REMARK  8 active torsions:
REMARK  status: ('A' for Active; 'I' for Inactive)
REMARK    1  A    between atoms: C_1  and  C_2
REMARK    2  A    between atoms: C_2  and  O_4
REMARK    3  A    between atoms: O_4  and  C_5
REMARK    4  A    between atoms: C_5  and  C_6
REMARK    5  A    between atoms: C_11  and  S_12
REMARK    6  A    between atoms: S_12  and  C_13
REMARK    7  A    between atoms: C_18  and  C_19
REMARK    8  A    between atoms: N_21  and  C_22
REMARK                            x       y       z     vdW  Elec       q    Type
REMARK                         _______ _______ _______ _____ _____    ______ ____
ROOT
ATOM      1  C   UNL     1       2.327   4.397  19.710  0.00  0.00    +0.000 A 
ATOM      2  C   UNL     1       1.065   4.096  20.263  0.00  0.00    +0.000 A 
ATOM      3  C   UNL     1       0.292   3.040  19.776  0.00  0.00    +0.000 A 
ATOM      4  C   UNL     1       0.773   2.259  18.737  0.00  0.00    +0.000 A 
ATOM      5  C   UNL     1       2.020   2.544  18.181  0.00  0.00    +0.000 A 
ATOM      6  C   UNL     1       2.808   3.625  18.634  0.00  0.00    +0.000 A 
ENDROOT
BRANCH   6   7
ATOM      7  C   UNL     1       4.101   3.830  17.879  0.00  0.00    +0.000 C 
ATOM      8  O   UNL     1       5.144   3.768  18.528  0.00  0.00    +0.000 OA
ATOM      9  N   UNL     1       4.047   4.144  16.527  0.00  0.00    +0.000 N 
ATOM     10  H   UNL     1       3.139   4.286  16.114  0.00  0.00    +0.000 HD
BRANCH   9  11
ATOM     11  C   UNL     1       5.153   4.376  15.681  0.00  0.00    +0.000 A 
ATOM     12  C   UNL     1       5.269   3.811  14.407  0.00  0.00    +0.000 A 
ATOM     13  C   UNL     1       6.394   4.044  13.615  0.00  0.00    +0.000 A 
ATOM     14  C   UNL     1       7.423   4.850  14.087  0.00  0.00    +0.000 A 
ATOM     15  C   UNL     1       7.314   5.444  15.343  0.00  0.00    +0.000 A 
ATOM     16  C   UNL     1       6.174   5.223  16.132  0.00  0.00    +0.000 A 
ENDBRANCH   9  11
ENDBRANCH   6   7
BRANCH   1  17
ATOM     17  S   UNL     1       3.103   5.882  20.286  0.00  0.00    +0.000 S 
BRANCH  17  23
ATOM     18  C   UNL     1       1.435   8.263  20.237  0.00  0.00    +0.000 A 
ATOM     19  C   UNL     1       1.053   9.396  19.483  0.00  0.00    +0.000 A 
ATOM     20  C   UNL     1       1.439   9.577  18.158  0.00  0.00    +0.000 A 
ATOM     21  C   UNL     1       2.196   8.608  17.527  0.00  0.00    +0.000 A 
ATOM     22  C   UNL     1       2.593   7.483  18.245  0.00  0.00    +0.000 A 
ATOM     23  C   UNL     1       2.240   7.291  19.600  0.00  0.00    +0.000 A 
BRANCH  18  24
ATOM     24  C   UNL     1       0.884   8.154  21.649  0.00  0.00    +0.000 C 
BRANCH  24  25
ATOM     25  O   UNL     1      -0.213   9.067  21.867  0.00  0.00    +0.000 OA
BRANCH  25  27
ATOM     26  C   UNL     1      -1.142  10.956  22.895  0.00  0.00    +0.000 C 
ATOM     27  C   UNL     1      -0.181   9.808  23.003  0.00  0.00    +0.000 C 
ATOM     28  O   UNL     1       0.479   9.562  24.003  0.00  0.00    +0.000 OA
ENDBRANCH  25  27
ENDBRANCH  24  25
ENDBRANCH  18  24
ENDBRANCH  17  23
ENDBRANCH   1  17
TORSDOF 7
ENDMDL
MODEL 2
REMARK VINA RESULT:      -7.8      2.705      7.535
REMARK  Name = 
REMARK  8 active torsions:
REMARK  status: ('A' for Active; 'I' for Inactive)
REMARK    1  A    between atoms: C_1  and  C_2
REMARK    2  A    between atoms: C_2  and  O_4
REMARK    3  A    between atoms: O_4  and  C_5
REMARK    4  A    between atoms: C_5  and  C_6
REMARK    5  A    between atoms: C_11  and  S_12
REMARK    6  A    between atoms: S_12  and  C_13
REMARK    7  A    between atoms: C_18  and  C_19
REMARK    8  A    between atoms: N_21  and  C_22
REMARK                            x       y       z     vdW  Elec       q    Type
REMARK                         _______ _______ _______ _____ _____    ______ ____
ROOT
ATOM      1  C   UNL     1       3.145   3.513  19.103  0.00  0.00    +0.000 A 
ATOM      2  C   UNL     1       3.399   2.351  19.861  0.00  0.00    +0.000 A 
ATOM      3  C   UNL     1       2.995   2.251  21.194  0.00  0.00    +0.000 A 
ATOM      4  C   UNL     1       2.317   3.304  21.787  0.00  0.00    +0.000 A 
ATOM      5  C   UNL     1       2.057   4.459  21.049  0.00  0.00    +0.000 A 
ATOM      6  C   UNL     1       2.482   4.598  19.711  0.00  0.00    +0.000 A 
ENDROOT
BRANCH   6   7
ATOM      7  C   UNL     1       2.174   5.938  19.081  0.00  0.00    +0.000 C 
ATOM      8  O   UNL     1       2.121   5.979  17.853  0.00  0.00    +0.000 OA
ATOM      9  N   UNL     1       2.040   7.051  19.901  0.00  0.00    +0.000 N 
ATOM     10  H   UNL     1       2.217   6.932  20.885  0.00  0.00    +0.000 HD
BRANCH   9  11
ATOM     11  C   UNL     1       1.764   8.369  19.478  0.00  0.00    +0.000 A 
ATOM     12  C   UNL     1       2.204   8.883  18.254  0.00  0.00    +0.000 A 
ATOM     13  C   UNL     1       1.934  10.203  17.888  0.00  0.00    +0.000 A 
ATOM     14  C   UNL     1       1.217  11.030  18.745  0.00  0.00    +0.000 A 
ATOM     15  C   UNL     1       0.747  10.528  19.957  0.00  0.00    +0.000 A 
ATOM     16  C   UNL     1       1.005   9.196  20.317  0.00  0.00    +0.000 A 
ENDBRANCH   9  11
ENDBRANCH   6   7
BRANCH   1  17
ATOM     17  S   UNL     1       3.892   3.582  17.498  0.00  0.00    +0.000 S 
BRANCH  17  23
ATOM     18  C   UNL     1       6.042   5.318  16.597  0.00  0.00    +0.000 A 
ATOM     19  C   UNL     1       7.091   6.175  17.006  0.00  0.00    +0.000 A 
ATOM     20  C   UNL     1       7.485   6.289  18.336  0.00  0.00    +0.000 A 
ATOM     21  C   UNL     1       6.866   5.521  19.304  0.00  0.00    +0.000 A 
ATOM     22  C   UNL     1       5.826   4.673  18.933  0.00  0.00    +0.000 A 
ATOM     23  C   UNL     1       5.385   4.562  17.594  0.00  0.00    +0.000 A 
BRANCH  18  24
ATOM     24  C   UNL     1       5.761   5.233  15.106  0.00  0.00    +0.000 C 
BRANCH  24  25
ATOM     25  O   UNL     1       6.643   4.298  14.449  0.00  0.00    +0.000 OA
BRANCH  25  27
ATOM     26  C   UNL     1       6.986   4.061  12.143  0.00  0.00    +0.000 C 
ATOM     27  C   UNL     1       7.376   4.768  13.409  0.00  0.00    +0.000 C 
ATOM     28  O   UNL     1       8.195   5.675  13.460  0.00  0.00    +0.000 OA
ENDBRANCH  25  27
ENDBRANCH  24  25
ENDBRANCH  18  24
ENDBRANCH  17  23
ENDBRANCH   1  17
TORSDOF 7
ENDMDL
MODEL 3
REMARK VINA RESULT:      -7.7      2.435      4.917
REMARK  Name = 
REMARK  8 active torsions:
REMARK  status: ('A' for Active; 'I' for Inactive)
REMARK    1  A    between atoms: C_1  and  C_2
REMARK    2  A    between atoms: C_2  and  O_4
REMARK    3  A    between atoms: O_4  and  C_5
REMARK    4  A    between atoms: C_5  and  C_6
REMARK    5  A    between atoms: C_11  and  S_12
REMARK    6  A    between atoms: S_12  and  C_13
REMARK    7  A    between atoms: C_18  and  C_19
REMARK    8  A    between atoms: N_21  and  C_22
REMARK                            x       y       z     vdW  Elec       q    Type
REMARK                         _______ _______ _______ _____ _____    ______ ____
ROOT
ATOM      1  C   UNL     1       5.839   4.844  18.145  0.00  0.00    +0.000 A 
ATOM      2  C   UNL     1       6.363   5.090  19.432  0.00  0.00    +0.000 A 
ATOM      3  C   UNL     1       7.409   5.993  19.630  0.00  0.00    +0.000 A 
ATOM      4  C   UNL     1       7.941   6.676  18.547  0.00  0.00    +0.000 A 
ATOM      5  C   UNL     1       7.432   6.445  17.269  0.00  0.00    +0.000 A 
ATOM      6  C   UNL     1       6.396   5.514  17.038  0.00  0.00    +0.000 A 
ENDROOT
BRANCH   6   7
ATOM      7  C   UNL     1       6.009   5.340  15.587  0.00  0.00    +0.000 C 
ATOM      8  O   UNL     1       5.337   6.234  15.076  0.00  0.00    +0.000 OA
ATOM      9  N   UNL     1       6.364   4.166  14.934  0.00  0.00    +0.000 N 
ATOM     10  H   UNL     1       6.813   3.446  15.475  0.00  0.00    +0.000 HD
BRANCH   9  11
ATOM     11  C   UNL     1       6.074   3.840  13.591  0.00  0.00    +0.000 A 
ATOM     12  C   UNL     1       4.779   3.574  13.135  0.00  0.00    +0.000 A 
ATOM     13  C   UNL     1       4.542   3.225  11.804  0.00  0.00    +0.000 A 
ATOM     14  C   UNL     1       5.601   3.140  10.907  0.00  0.00    +0.000 A 
ATOM     15  C   UNL     1       6.894   3.428  11.337  0.00  0.00    +0.000 A 
ATOM     16  C   UNL     1       7.131   3.794  12.671  0.00  0.00    +0.000 A 
ENDBRANCH   9  11
ENDBRANCH   6   7
BRANCH   1  17
ATOM     17  S   UNL     1       4.659   3.529  18.016  0.00  0.00    +0.000 S 
BRANCH  17  23
ATOM     18  C   UNL     1       2.297   4.657  19.281  0.00  0.00    +0.000 A 
ATOM     19  C   UNL     1       1.323   4.477  20.290  0.00  0.00    +0.000 A 
ATOM     20  C   UNL     1       1.413   3.465  21.242  0.00  0.00    +0.000 A 
ATOM     21  C   UNL     1       2.503   2.615  21.239  0.00  0.00    +0.000 A 
ATOM     22  C   UNL     1       3.476   2.764  20.253  0.00  0.00    +0.000 A 
ATOM     23  C   UNL     1       3.392   3.763  19.257  0.00  0.00    +0.000 A 
BRANCH  18  24
ATOM     24  C   UNL     1       2.117   5.845  18.350  0.00  0.00    +0.000 C 
BRANCH  24  25
ATOM     25  O   UNL     1       2.812   7.013  18.834  0.00  0.00    +0.000 OA
BRANCH  25  27
ATOM     26  C   UNL     1       1.890   8.925  17.841  0.00  0.00    +0.000 C 
ATOM     27  C   UNL     1       2.063   8.114  19.092  0.00  0.00    +0.000 C 
ATOM     28  O   UNL     1       1.543   8.394  20.164  0.00  0.00    +0.000 OA
ENDBRANCH  25  27
ENDBRANCH  24  25
ENDBRANCH  18  24
ENDBRANCH  17  23
ENDBRANCH   1  17
TORSDOF 7
ENDMDL
MODEL 4
REMARK VINA RESULT:      -7.7      3.585      5.863
REMARK  Name = 
REMARK  8 active torsions:
REMARK  status: ('A' for Active; 'I' for Inactive)
REMARK    1  A    between atoms: C_1  and  C_2
REMARK    2  A    between atoms: C_2  and  O_4
REMARK    3  A    between atoms: O_4  and  C_5
REMARK    4  A    between atoms: C_5  and  C_6
REMARK    5  A    between atoms: C_11  and  S_12
REMARK    6  A    between atoms: S_12  and  C_13
REMARK    7  A    between atoms: C_18  and  C_19
REMARK    8  A    between atoms: N_21  and  C_22
REMARK                            x       y       z     vdW  Elec       q    Type
REMARK                         _______ _______ _______ _____ _____    ______ ____
ROOT
ATOM      1  C   UNL     1       6.018   4.917  17.596  0.00  0.00    +0.000 A 
ATOM      2  C   UNL     1       5.384   4.024  16.706  0.00  0.00    +0.000 A 
ATOM      3  C   UNL     1       5.658   4.047  15.338  0.00  0.00    +0.000 A 
ATOM      4  C   UNL     1       6.580   4.952  14.836  0.00  0.00    +0.000 A 
ATOM      5  C   UNL     1       7.216   5.840  15.704  0.00  0.00    +0.000 A 
ATOM      6  C   UNL     1       6.934   5.859  17.087  0.00  0.00    +0.000 A 
ENDROOT
BRANCH   6   7
ATOM      7  C   UNL     1       7.664   6.926  17.871  0.00  0.00    +0.000 C 
ATOM      8  O   UNL     1       8.176   6.586  18.936  0.00  0.00    +0.000 OA
ATOM      9  N   UNL     1       7.659   8.231  17.394  0.00  0.00    +0.000 N 
ATOM     10  H   UNL     1       7.112   8.428  16.572  0.00  0.00    +0.000 HD
BRANCH   9  11
ATOM     11  C   UNL     1       8.279   9.343  18.004  0.00  0.00    +0.000 A 
ATOM     12  C   UNL     1       9.003   9.251  19.197  0.00  0.00    +0.000 A 
ATOM     13  C   UNL     1       9.575  10.383  19.782  0.00  0.00    +0.000 A 
ATOM     14  C   UNL     1       9.431  11.626  19.178  0.00  0.00    +0.000 A 
ATOM     15  C   UNL     1       8.737  11.733  17.975  0.00  0.00    +0.000 A 
ATOM     16  C   UNL     1       8.176  10.593  17.379  0.00  0.00    +0.000 A 
ENDBRANCH   9  11
ENDBRANCH   6   7
BRANCH   1  17
ATOM     17  S   UNL     1       5.426   4.914  19.266  0.00  0.00    +0.000 S 
BRANCH  17  23
ATOM     18  C   UNL     1       2.567   4.994  18.747  0.00  0.00    +0.000 A 
ATOM     19  C   UNL     1       1.373   4.237  18.705  0.00  0.00    +0.000 A 
ATOM     20  C   UNL     1       1.306   2.924  19.163  0.00  0.00    +0.000 A 
ATOM     21  C   UNL     1       2.426   2.332  19.714  0.00  0.00    +0.000 A 
ATOM     22  C   UNL     1       3.618   3.050  19.763  0.00  0.00    +0.000 A 
ATOM     23  C   UNL     1       3.721   4.373  19.276  0.00  0.00    +0.000 A 
BRANCH  18  24
ATOM     24  C   UNL     1       2.485   6.439  18.283  0.00  0.00    +0.000 C 
BRANCH  24  25
ATOM     25  O   UNL     1       2.414   7.355  19.396  0.00  0.00    +0.000 OA
BRANCH  25  27
ATOM     26  C   UNL     1       1.848   8.927  17.753  0.00  0.00    +0.000 C 
ATOM     27  C   UNL     1       1.750   8.521  19.195  0.00  0.00    +0.000 C 
ATOM     28  O   UNL     1       1.109   9.136  20.035  0.00  0.00    +0.000 OA
ENDBRANCH  25  27
ENDBRANCH  24  25
ENDBRANCH  18  24
ENDBRANCH  17  23
ENDBRANCH   1  17
TORSDOF 7
ENDMDL
MODEL 5
REMARK VINA RESULT:      -7.6      2.698      7.496
REMARK  Name = 
REMARK  8 active torsions:
REMARK  status: ('A' for Active; 'I' for Inactive)
REMARK    1  A    between atoms: C_1  and  C_2
REMARK    2  A    between atoms: C_2  and  O_4
REMARK    3  A    between atoms: O_4  and  C_5
REMARK    4  A    between atoms: C_5  and  C_6
REMARK    5  A    between atoms: C_11  and  S_12
REMARK    6  A    between atoms: S_12  and  C_13
REMARK    7  A    between atoms: C_18  and  C_19
REMARK    8  A    between atoms: N_21  and  C_22
REMARK                            x       y       z     vdW  Elec       q    Type
REMARK                         _______ _______ _______ _____ _____    ______ ____
ROOT
ATOM      1  C   UNL     1       3.405   3.375  18.981  0.00  0.00    +0.000 A 
ATOM      2  C   UNL     1       3.810   2.217  19.678  0.00  0.00    +0.000 A 
ATOM      3  C   UNL     1       3.445   2.006  21.009  0.00  0.00    +0.000 A 
ATOM      4  C   UNL     1       2.658   2.941  21.662  0.00  0.00    +0.000 A 
ATOM      5  C   UNL     1       2.248   4.090  20.985  0.00  0.00    +0.000 A 
ATOM      6  C   UNL     1       2.629   4.342  19.650  0.00  0.00    +0.000 A 
ENDROOT
BRANCH   6   7
ATOM      7  C   UNL     1       2.152   5.663  19.090  0.00  0.00    +0.000 C 
ATOM      8  O   UNL     1       1.732   5.662  17.934  0.00  0.00    +0.000 OA
ATOM      9  N   UNL     1       2.275   6.806  19.870  0.00  0.00    +0.000 N 
ATOM     10  H   UNL     1       2.740   6.720  20.759  0.00  0.00    +0.000 HD
BRANCH   9  11
ATOM     11  C   UNL     1       1.891   8.113  19.499  0.00  0.00    +0.000 A 
ATOM     12  C   UNL     1       1.093   8.931  20.306  0.00  0.00    +0.000 A 
ATOM     13  C   UNL     1       0.712  10.206  19.887  0.00  0.00    +0.000 A 
ATOM     14  C   UNL     1       1.127  10.684  18.649  0.00  0.00    +0.000 A 
ATOM     15  C   UNL     1       1.944   9.895  17.842  0.00  0.00    +0.000 A 
ATOM     16  C   UNL     1       2.340   8.619  18.271  0.00  0.00    +0.000 A 
ENDBRANCH   9  11
ENDBRANCH   6   7
BRANCH   1  17
ATOM     17  S   UNL     1       4.109   3.608  17.372  0.00  0.00    +0.000 S 
BRANCH  17  23
ATOM     18  C   UNL     1       6.179   5.481  16.561  0.00  0.00    +0.000 A 
ATOM     19  C   UNL     1       7.190   6.360  17.013  0.00  0.00    +0.000 A 
ATOM     20  C   UNL     1       7.585   6.421  18.347  0.00  0.00    +0.000 A 
ATOM     21  C   UNL     1       7.003   5.577  19.274  0.00  0.00    +0.000 A 
ATOM     22  C   UNL     1       5.999   4.705  18.860  0.00  0.00    +0.000 A 
ATOM     23  C   UNL     1       5.559   4.646  17.518  0.00  0.00    +0.000 A 
BRANCH  18  24
ATOM     24  C   UNL     1       5.896   5.462  15.068  0.00  0.00    +0.000 C 
BRANCH  24  25
ATOM     25  O   UNL     1       5.910   4.119  14.539  0.00  0.00    +0.000 OA
BRANCH  25  27
ATOM     26  C   UNL     1       7.484   4.927  13.002  0.00  0.00    +0.000 C 
ATOM     27  C   UNL     1       6.367   3.960  13.272  0.00  0.00    +0.000 C 
ATOM     28  O   UNL     1       5.983   3.120  12.470  0.00  0.00    +0.000 OA
ENDBRANCH  25  27
ENDBRANCH  24  25
ENDBRANCH  18  24
ENDBRANCH  17  23
ENDBRANCH   1  17
TORSDOF 7
ENDMDL
MODEL 6
REMARK VINA RESULT:      -7.6      2.546      7.022
REMARK  Name = 
REMARK  8 active torsions:
REMARK  status: ('A' for Active; 'I' for Inactive)
REMARK    1  A    between atoms: C_1  and  C_2
REMARK    2  A    between atoms: C_2  and  O_4
REMARK    3  A    between atoms: O_4  and  C_5
REMARK    4  A    between atoms: C_5  and  C_6
REMARK    5  A    between atoms: C_11  and  S_12
REMARK    6  A    between atoms: S_12  and  C_13
REMARK    7  A    between atoms: C_18  and  C_19
REMARK    8  A    between atoms: N_21  and  C_22
REMARK                            x       y       z     vdW  Elec       q    Type
REMARK                         _______ _______ _______ _____ _____    ______ ____
ROOT
ATOM      1  C   UNL     1       3.558   4.249  19.767  0.00  0.00    +0.000 A 
ATOM      2  C   UNL     1       3.570   2.872  20.073  0.00  0.00    +0.000 A 
ATOM      3  C   UNL     1       2.452   2.240  20.620  0.00  0.00    +0.000 A 
ATOM      4  C   UNL     1       1.299   2.970  20.860  0.00  0.00    +0.000 A 
ATOM      5  C   UNL     1       1.271   4.333  20.561  0.00  0.00    +0.000 A 
ATOM      6  C   UNL     1       2.398   5.002  20.036  0.00  0.00    +0.000 A 
ENDROOT
BRANCH   6   7
ATOM      7  C   UNL     1       2.217   6.489  19.831  0.00  0.00    +0.000 C 
ATOM      8  O   UNL     1       2.816   7.000  18.886  0.00  0.00    +0.000 OA
ATOM      9  N   UNL     1       1.454   7.204  20.744  0.00  0.00    +0.000 N 
ATOM     10  H   UNL     1       1.101   6.712  21.549  0.00  0.00    +0.000 HD
BRANCH   9  11
ATOM     11  C   UNL     1       1.194   8.591  20.707  0.00  0.00    +0.000 A 
ATOM     12  C   UNL     1       1.140   9.324  19.517  0.00  0.00    +0.000 A 
ATOM     13  C   UNL     1       0.909  10.701  19.528  0.00  0.00    +0.000 A 
ATOM     14  C   UNL     1       0.727  11.366  20.735  0.00  0.00    +0.000 A 
ATOM     15  C   UNL     1       0.750  10.649  21.929  0.00  0.00    +0.000 A 
ATOM     16  C   UNL     1       0.966   9.262  21.916  0.00  0.00    +0.000 A 
ENDBRANCH   9  11
ENDBRANCH   6   7
BRANCH   1  17
ATOM     17  S   UNL     1       5.105   4.956  19.271  0.00  0.00    +0.000 S 
BRANCH  17  23
ATOM     18  C   UNL     1       5.637   5.959  16.595  0.00  0.00    +0.000 A 
ATOM     19  C   UNL     1       5.811   5.606  15.237  0.00  0.00    +0.000 A 
ATOM     20  C   UNL     1       5.564   4.321  14.763  0.00  0.00    +0.000 A 
ATOM     21  C   UNL     1       5.100   3.348  15.628  0.00  0.00    +0.000 A 
ATOM     22  C   UNL     1       4.926   3.664  16.973  0.00  0.00    +0.000 A 
ATOM     23  C   UNL     1       5.199   4.952  17.485  0.00  0.00    +0.000 A 
BRANCH  18  24
ATOM     24  C   UNL     1       5.871   7.414  16.967  0.00  0.00    +0.000 C 
BRANCH  24  25
ATOM     25  O   UNL     1       7.259   7.784  16.832  0.00  0.00    +0.000 OA
BRANCH  25  27
ATOM     26  C   UNL     1       8.412   9.312  18.185  0.00  0.00    +0.000 C 
ATOM     27  C   UNL     1       7.984   7.888  17.974  0.00  0.00    +0.000 C 
ATOM     28  O   UNL     1       8.215   6.982  18.763  0.00  0.00    +0.000 OA
ENDBRANCH  25  27
ENDBRANCH  24  25
ENDBRANCH  18  24
ENDBRANCH  17  23
ENDBRANCH   1  17
TORSDOF 7
ENDMDL
MODEL 7
REMARK VINA RESULT:      -7.6      2.489      8.118
REMARK  Name = 
REMARK  8 active torsions:
REMARK  status: ('A' for Active; 'I' for Inactive)
REMARK    1  A    between atoms: C_1  and  C_2
REMARK    2  A    between atoms: C_2  and  O_4
REMARK    3  A    between atoms: O_4  and  C_5
REMARK    4  A    between atoms: C_5  and  C_6
REMARK    5  A    between atoms: C_11  and  S_12
REMARK    6  A    between atoms: S_12  and  C_13
REMARK    7  A    between atoms: C_18  and  C_19
REMARK    8  A    between atoms: N_21  and  C_22
REMARK                            x       y       z     vdW  Elec       q    Type
REMARK                         _______ _______ _______ _____ _____    ______ ____
ROOT
ATOM      1  C   UNL     1       2.560   4.481  18.950  0.00  0.00    +0.000 A 
ATOM      2  C   UNL     1       2.651   3.074  18.980  0.00  0.00    +0.000 A 
ATOM      3  C   UNL     1       2.112   2.333  20.032  0.00  0.00    +0.000 A 
ATOM      4  C   UNL     1       1.459   2.984  21.067  0.00  0.00    +0.000 A 
ATOM      5  C   UNL     1       1.359   4.376  21.051  0.00  0.00    +0.000 A 
ATOM      6  C   UNL     1       1.923   5.150  20.014  0.00  0.00    +0.000 A 
ENDROOT
BRANCH   6   7
ATOM      7  C   UNL     1       1.778   6.645  20.186  0.00  0.00    +0.000 C 
ATOM      8  O   UNL     1       2.598   7.357  19.608  0.00  0.00    +0.000 OA
ATOM      9  N   UNL     1       0.788   7.132  21.031  0.00  0.00    +0.000 N 
ATOM     10  H   UNL     1       0.243   6.462  21.549  0.00  0.00    +0.000 HD
BRANCH   9  11
ATOM     11  C   UNL     1       0.525   8.490  21.310  0.00  0.00    +0.000 A 
ATOM     12  C   UNL     1      -0.101   8.918  22.485  0.00  0.00    +0.000 A 
ATOM     13  C   UNL     1      -0.370  10.270  22.707  0.00  0.00    +0.000 A 
ATOM     14  C   UNL     1      -0.013  11.216  21.753  0.00  0.00    +0.000 A 
ATOM     15  C   UNL     1       0.635  10.812  20.588  0.00  0.00    +0.000 A 
ATOM     16  C   UNL     1       0.920   9.454  20.373  0.00  0.00    +0.000 A 
ENDBRANCH   9  11
ENDBRANCH   6   7
BRANCH   1  17
ATOM     17  S   UNL     1       3.463   5.301  17.665  0.00  0.00    +0.000 S 
BRANCH  17  23
ATOM     18  C   UNL     1       6.170   4.473  17.003  0.00  0.00    +0.000 A 
ATOM     19  C   UNL     1       7.530   4.543  17.382  0.00  0.00    +0.000 A 
ATOM     20  C   UNL     1       7.941   5.099  18.590  0.00  0.00    +0.000 A 
ATOM     21  C   UNL     1       6.998   5.576  19.481  0.00  0.00    +0.000 A 
ATOM     22  C   UNL     1       5.650   5.526  19.133  0.00  0.00    +0.000 A 
ATOM     23  C   UNL     1       5.210   4.995  17.899  0.00  0.00    +0.000 A 
BRANCH  18  24
ATOM     24  C   UNL     1       5.853   3.775  15.690  0.00  0.00    +0.000 C 
BRANCH  24  25
ATOM     25  O   UNL     1       5.783   4.708  14.592  0.00  0.00    +0.000 OA
BRANCH  25  27
ATOM     26  C   UNL     1       6.648   3.913  12.564  0.00  0.00    +0.000 C 
ATOM     27  C   UNL     1       6.861   4.778  13.772  0.00  0.00    +0.000 C 
ATOM     28  O   UNL     1       7.847   5.483  13.941  0.00  0.00    +0.000 OA
ENDBRANCH  25  27
ENDBRANCH  24  25
ENDBRANCH  18  24
ENDBRANCH  17  23
ENDBRANCH   1  17
TORSDOF 7
ENDMDL
MODEL 8
REMARK VINA RESULT:      -7.6      2.468      4.576
REMARK  Name = 
REMARK  8 active torsions:
REMARK  status: ('A' for Active; 'I' for Inactive)
REMARK    1  A    between atoms: C_1  and  C_2
REMARK    2  A    between atoms: C_2  and  O_4
REMARK    3  A    between atoms: O_4  and  C_5
REMARK    4  A    between atoms: C_5  and  C_6
REMARK    5  A    between atoms: C_11  and  S_12
REMARK    6  A    between atoms: S_12  and  C_13
REMARK    7  A    between atoms: C_18  and  C_19
REMARK    8  A    between atoms: N_21  and  C_22
REMARK                            x       y       z     vdW  Elec       q    Type
REMARK                         _______ _______ _______ _____ _____    ______ ____
ROOT
ATOM      1  C   UNL     1       5.212   5.435  18.086  0.00  0.00    +0.000 A 
ATOM      2  C   UNL     1       5.636   5.495  19.431  0.00  0.00    +0.000 A 
ATOM      3  C   UNL     1       6.990   5.555  19.763  0.00  0.00    +0.000 A 
ATOM      4  C   UNL     1       7.944   5.569  18.757  0.00  0.00    +0.000 A 
ATOM      5  C   UNL     1       7.540   5.513  17.423  0.00  0.00    +0.000 A 
ATOM      6  C   UNL     1       6.179   5.420  17.062  0.00  0.00    +0.000 A 
ENDROOT
BRANCH   6   7
ATOM      7  C   UNL     1       5.921   5.302  15.577  0.00  0.00    +0.000 C 
ATOM      8  O   UNL     1       5.475   6.297  15.006  0.00  0.00    +0.000 OA
ATOM      9  N   UNL     1       6.129   4.078  14.954  0.00  0.00    +0.000 N 
ATOM     10  H   UNL     1       6.385   3.295  15.533  0.00  0.00    +0.000 HD
BRANCH   9  11
ATOM     11  C   UNL     1       5.929   3.795  13.585  0.00  0.00    +0.000 A 
ATOM     12  C   UNL     1       4.674   3.498  13.045  0.00  0.00    +0.000 A 
ATOM     13  C   UNL     1       4.526   3.195  11.690  0.00  0.00    +0.000 A 
ATOM     14  C   UNL     1       5.636   3.186  10.854  0.00  0.00    +0.000 A 
ATOM     15  C   UNL     1       6.890   3.505  11.368  0.00  0.00    +0.000 A 
ATOM     16  C   UNL     1       7.036   3.826  12.727  0.00  0.00    +0.000 A 
ENDBRANCH   9  11
ENDBRANCH   6   7
BRANCH   1  17
ATOM     17  S   UNL     1       3.482   5.156  17.820  0.00  0.00    +0.000 S 
BRANCH  17  23
ATOM     18  C   UNL     1       2.129   6.450  20.044  0.00  0.00    +0.000 A 
ATOM     19  C   UNL     1       1.593   7.666  20.527  0.00  0.00    +0.000 A 
ATOM     20  C   UNL     1       1.471   8.798  19.727  0.00  0.00    +0.000 A 
ATOM     21  C   UNL     1       1.851   8.744  18.399  0.00  0.00    +0.000 A 
ATOM     22  C   UNL     1       2.388   7.561  17.896  0.00  0.00    +0.000 A 
ATOM     23  C   UNL     1       2.552   6.408  18.696  0.00  0.00    +0.000 A 
BRANCH  18  24
ATOM     24  C   UNL     1       2.138   5.270  21.001  0.00  0.00    +0.000 C 
BRANCH  24  25
ATOM     25  O   UNL     1       1.080   4.333  20.704  0.00  0.00    +0.000 OA
BRANCH  25  27
ATOM     26  C   UNL     1       1.593   2.309  19.639  0.00  0.00    +0.000 C 
ATOM     27  C   UNL     1       1.335   3.021  20.936  0.00  0.00    +0.000 C 
ATOM     28  O   UNL     1       1.410   2.487  22.034  0.00  0.00    +0.000 OA
ENDBRANCH  25  27
ENDBRANCH  24  25
ENDBRANCH  18  24
ENDBRANCH  17  23
ENDBRANCH   1  17
TORSDOF 7
ENDMDL
MODEL 9
REMARK VINA RESULT:      -7.6      2.686      5.099
REMARK  Name = 
REMARK  8 active torsions:
REMARK  status: ('A' for Active; 'I' for Inactive)
REMARK    1  A    between atoms: C_1  and  C_2
REMARK    2  A    between atoms: C_2  and  O_4
REMARK    3  A    between atoms: O_4  and  C_5
REMARK    4  A    between atoms: C_5  and  C_6
REMARK    5  A    between atoms: C_11  and  S_12
REMARK    6  A    between atoms: S_12  and  C_13
REMARK    7  A    between atoms: C_18  and  C_19
REMARK    8  A    between atoms: N_21  and  C_22
REMARK                            x       y       z     vdW  Elec       q    Type
REMARK                         _______ _______ _______ _____ _____    ______ ____
ROOT
ATOM      1  C   UNL     1       5.881   4.790  18.167  0.00  0.00    +0.000 A 
ATOM      2  C   UNL     1       6.391   5.020  19.462  0.00  0.00    +0.000 A 
ATOM      3  C   UNL     1       7.424   5.932  19.685  0.00  0.00    +0.000 A 
ATOM      4  C   UNL     1       7.956   6.641  18.619  0.00  0.00    +0.000 A 
ATOM      5  C   UNL     1       7.461   6.426  17.333  0.00  0.00    +0.000 A 
ATOM      6  C   UNL     1       6.439   5.487  17.076  0.00  0.00    +0.000 A 
ENDROOT
BRANCH   6   7
ATOM      7  C   UNL     1       6.066   5.334  15.619  0.00  0.00    +0.000 C 
ATOM      8  O   UNL     1       5.387   6.229  15.118  0.00  0.00    +0.000 OA
ATOM      9  N   UNL     1       6.441   4.177  14.948  0.00  0.00    +0.000 N 
ATOM     10  H   UNL     1       6.895   3.452  15.480  0.00  0.00    +0.000 HD
BRANCH   9  11
ATOM     11  C   UNL     1       6.167   3.871  13.597  0.00  0.00    +0.000 A 
ATOM     12  C   UNL     1       7.143   3.906  12.596  0.00  0.00    +0.000 A 
ATOM     13  C   UNL     1       6.821   3.626  11.267  0.00  0.00    +0.000 A 
ATOM     14  C   UNL     1       5.514   3.303  10.920  0.00  0.00    +0.000 A 
ATOM     15  C   UNL     1       4.534   3.237  11.908  0.00  0.00    +0.000 A 
ATOM     16  C   UNL     1       4.861   3.503  13.247  0.00  0.00    +0.000 A 
ENDBRANCH   9  11
ENDBRANCH   6   7
BRANCH   1  17
ATOM     17  S   UNL     1       4.719   3.463  18.005  0.00  0.00    +0.000 S 
BRANCH  17  23
ATOM     18  C   UNL     1       2.218   4.471  19.092  0.00  0.00    +0.000 A 
ATOM     19  C   UNL     1       1.240   4.303  20.099  0.00  0.00    +0.000 A 
ATOM     20  C   UNL     1       1.405   3.419  21.161  0.00  0.00    +0.000 A 
ATOM     21  C   UNL     1       2.577   2.694  21.273  0.00  0.00    +0.000 A 
ATOM     22  C   UNL     1       3.556   2.833  20.294  0.00  0.00    +0.000 A 
ATOM     23  C   UNL     1       3.399   3.700  19.188  0.00  0.00    +0.000 A 
BRANCH  18  24
ATOM     24  C   UNL     1       1.944   5.522  18.029  0.00  0.00    +0.000 C 
BRANCH  24  25
ATOM     25  O   UNL     1       2.890   6.609  18.096  0.00  0.00    +0.000 OA
BRANCH  25  27
ATOM     26  C   UNL     1       1.888   8.037  19.661  0.00  0.00    +0.000 C 
ATOM     27  C   UNL     1       2.385   7.858  18.256  0.00  0.00    +0.000 C 
ATOM     28  O   UNL     1       2.379   8.744  17.412  0.00  0.00    +0.000 OA
ENDBRANCH  25  27
ENDBRANCH  24  25
ENDBRANCH  18  24
ENDBRANCH  17  23
ENDBRANCH   1  17
TORSDOF 7
ENDMDL
