MODEL 1
REMARK VINA RESULT:      -6.8      0.000      0.000
REMARK  Name = 
REMARK  3 active torsions:
REMARK  status: ('A' for Active; 'I' for Inactive)
REMARK    1  A    between atoms: C_1  and  N_2
REMARK    2  A    between atoms: C_3  and  O_5
REMARK    3  A    between atoms: O_5  and  C_6
REMARK                            x       y       z     vdW  Elec       q    Type
REMARK                         _______ _______ _______ _____ _____    ______ ____
ROOT
ATOM      1  C   UNL     1       5.521   4.261  19.011  0.00  0.00    +0.000 A 
ATOM      2  N   UNL     1       4.704   5.284  19.151  0.00  0.00    +0.000 NA
ATOM      3  C   UNL     1       3.539   4.751  19.668  0.00  0.00    +0.000 A 
ATOM      4  C   UNL     1       2.325   5.371  19.993  0.00  0.00    +0.000 A 
ATOM      5  C   UNL     1       1.275   4.576  20.477  0.00  0.00    +0.000 A 
ATOM      6  C   UNL     1       1.433   3.198  20.648  0.00  0.00    +0.000 A 
ATOM      7  C   UNL     1       2.642   2.566  20.347  0.00  0.00    +0.000 A 
ATOM      8  C   UNL     1       3.662   3.380  19.857  0.00  0.00    +0.000 A 
ATOM      9  N   UNL     1       4.936   3.102  19.454  0.00  0.00    +0.000 N 
ATOM     10  H   UNL     1       5.388   2.195  19.439  0.00  0.00    +0.000 HD
ENDROOT
BRANCH   1  11
ATOM     11  O   UNL     1       6.737   4.359  18.491  0.00  0.00    +0.000 OA
BRANCH  11  14
ATOM     12  C   UNL     1       6.080   3.921  14.985  0.00  0.00    +0.000 C 
ATOM     13  N   UNL     1       6.093   3.810  16.419  0.00  0.00    +0.000 N 
ATOM     14  C   UNL     1       6.840   4.666  17.178  0.00  0.00    +0.000 C 
ATOM     15  O   UNL     1       7.509   5.573  16.693  0.00  0.00    +0.000 OA
ATOM     16  H   UNL     1       5.626   3.046  16.890  0.00  0.00    +0.000 HD
ENDBRANCH  11  14
ENDBRANCH   1  11
TORSDOF 2
ENDMDL
MODEL 2
REMARK VINA RESULT:      -6.8      0.250      1.566
REMARK  Name = 
REMARK  3 active torsions:
REMARK  status: ('A' for Active; 'I' for Inactive)
REMARK    1  A    between atoms: C_1  and  N_2
REMARK    2  A    between atoms: C_3  and  O_5
REMARK    3  A    between atoms: O_5  and  C_6
REMARK                            x       y       z     vdW  Elec       q    Type
REMARK                         _______ _______ _______ _____ _____    ______ ____
ROOT
ATOM      1  C   UNL     1       5.361   4.357  19.120  0.00  0.00    +0.000 A 
ATOM      2  N   UNL     1       4.843   3.174  19.378  0.00  0.00    +0.000 NA
ATOM      3  C   UNL     1       3.551   3.426  19.796  0.00  0.00    +0.000 A 
ATOM      4  C   UNL     1       2.548   2.546  20.223  0.00  0.00    +0.000 A 
ATOM      5  C   UNL     1       1.315   3.080  20.631  0.00  0.00    +0.000 A 
ATOM      6  C   UNL     1       1.081   4.457  20.602  0.00  0.00    +0.000 A 
ATOM      7  C   UNL     1       2.063   5.348  20.161  0.00  0.00    +0.000 A 
ATOM      8  C   UNL     1       3.279   4.789  19.773  0.00  0.00    +0.000 A 
ATOM      9  N   UNL     1       4.438   5.350  19.320  0.00  0.00    +0.000 N 
ATOM     10  H   UNL     1       4.624   6.337  19.179  0.00  0.00    +0.000 HD
ENDROOT
BRANCH   1  11
ATOM     11  O   UNL     1       6.617   4.539  18.736  0.00  0.00    +0.000 OA
BRANCH  11  14
ATOM     12  C   UNL     1       6.251   3.863  15.226  0.00  0.00    +0.000 C 
ATOM     13  N   UNL     1       6.129   3.863  16.658  0.00  0.00    +0.000 N 
ATOM     14  C   UNL     1       6.855   4.736  17.419  0.00  0.00    +0.000 C 
ATOM     15  O   UNL     1       7.615   5.568  16.934  0.00  0.00    +0.000 OA
ATOM     16  H   UNL     1       5.579   3.163  17.138  0.00  0.00    +0.000 HD
ENDBRANCH  11  14
ENDBRANCH   1  11
TORSDOF 2
ENDMDL
MODEL 3
REMARK VINA RESULT:      -6.6      1.684      1.993
REMARK  Name = 
REMARK  3 active torsions:
REMARK  status: ('A' for Active; 'I' for Inactive)
REMARK    1  A    between atoms: C_1  and  N_2
REMARK    2  A    between atoms: C_3  and  O_5
REMARK    3  A    between atoms: O_5  and  C_6
REMARK                            x       y       z     vdW  Elec       q    Type
REMARK                         _______ _______ _______ _____ _____    ______ ____
ROOT
ATOM      1  C   UNL     1       5.518   4.102  18.802  0.00  0.00    +0.000 A 
ATOM      2  N   UNL     1       4.627   4.872  18.215  0.00  0.00    +0.000 NA
ATOM      3  C   UNL     1       3.422   4.213  18.362  0.00  0.00    +0.000 A 
ATOM      4  C   UNL     1       2.140   4.555  17.913  0.00  0.00    +0.000 A 
ATOM      5  C   UNL     1       1.079   3.674  18.175  0.00  0.00    +0.000 A 
ATOM      6  C   UNL     1       1.287   2.487  18.881  0.00  0.00    +0.000 A 
ATOM      7  C   UNL     1       2.555   2.138  19.353  0.00  0.00    +0.000 A 
ATOM      8  C   UNL     1       3.589   3.027  19.067  0.00  0.00    +0.000 A 
ATOM      9  N   UNL     1       4.924   2.995  19.351  0.00  0.00    +0.000 N 
ATOM     10  H   UNL     1       5.424   2.270  19.851  0.00  0.00    +0.000 HD
ENDROOT
BRANCH   1  11
ATOM     11  O   UNL     1       6.816   4.372  18.829  0.00  0.00    +0.000 OA
BRANCH  11  14
ATOM     12  C   UNL     1       7.657   7.579  17.442  0.00  0.00    +0.000 C 
ATOM     13  N   UNL     1       7.227   6.508  18.299  0.00  0.00    +0.000 N 
ATOM     14  C   UNL     1       7.308   5.208  17.886  0.00  0.00    +0.000 C 
ATOM     15  O   UNL     1       7.765   4.885  16.795  0.00  0.00    +0.000 OA
ATOM     16  H   UNL     1       6.773   6.695  19.184  0.00  0.00    +0.000 HD
ENDBRANCH  11  14
ENDBRANCH   1  11
TORSDOF 2
ENDMDL
MODEL 4
REMARK VINA RESULT:      -6.5      1.300      1.708
REMARK  Name = 
REMARK  3 active torsions:
REMARK  status: ('A' for Active; 'I' for Inactive)
REMARK    1  A    between atoms: C_1  and  N_2
REMARK    2  A    between atoms: C_3  and  O_5
REMARK    3  A    between atoms: O_5  and  C_6
REMARK                            x       y       z     vdW  Elec       q    Type
REMARK                         _______ _______ _______ _____ _____    ______ ____
ROOT
ATOM      1  C   UNL     1       5.754   4.343  18.857  0.00  0.00    +0.000 A 
ATOM      2  N   UNL     1       4.947   5.378  18.961  0.00  0.00    +0.000 NA
ATOM      3  C   UNL     1       3.791   4.883  19.532  0.00  0.00    +0.000 A 
ATOM      4  C   UNL     1       2.589   5.528  19.851  0.00  0.00    +0.000 A 
ATOM      5  C   UNL     1       1.544   4.768  20.400  0.00  0.00    +0.000 A 
ATOM      6  C   UNL     1       1.697   3.400  20.640  0.00  0.00    +0.000 A 
ATOM      7  C   UNL     1       2.896   2.744  20.346  0.00  0.00    +0.000 A 
ATOM      8  C   UNL     1       3.909   3.523  19.791  0.00  0.00    +0.000 A 
ATOM      9  N   UNL     1       5.172   3.215  19.373  0.00  0.00    +0.000 N 
ATOM     10  H   UNL     1       5.617   2.304  19.396  0.00  0.00    +0.000 HD
ENDROOT
BRANCH   1  11
ATOM     11  O   UNL     1       6.958   4.405  18.306  0.00  0.00    +0.000 OA
BRANCH  11  14
ATOM     12  C   UNL     1       7.799   7.842  17.675  0.00  0.00    +0.000 C 
ATOM     13  N   UNL     1       7.507   6.575  18.290  0.00  0.00    +0.000 N 
ATOM     14  C   UNL     1       7.243   5.473  17.526  0.00  0.00    +0.000 C 
ATOM     15  O   UNL     1       7.264   5.494  16.300  0.00  0.00    +0.000 OA
ATOM     16  H   UNL     1       7.400   6.492  19.293  0.00  0.00    +0.000 HD
ENDBRANCH  11  14
ENDBRANCH   1  11
TORSDOF 2
ENDMDL
MODEL 5
REMARK VINA RESULT:      -6.5      1.602      2.049
REMARK  Name = 
REMARK  3 active torsions:
REMARK  status: ('A' for Active; 'I' for Inactive)
REMARK    1  A    between atoms: C_1  and  N_2
REMARK    2  A    between atoms: C_3  and  O_5
REMARK    3  A    between atoms: O_5  and  C_6
REMARK                            x       y       z     vdW  Elec       q    Type
REMARK                         _______ _______ _______ _____ _____    ______ ____
ROOT
ATOM      1  C   UNL     1       6.149   4.574  17.009  0.00  0.00    +0.000 A 
ATOM      2  N   UNL     1       5.093   5.316  16.747  0.00  0.00    +0.000 NA
ATOM      3  C   UNL     1       4.149   4.950  17.687  0.00  0.00    +0.000 A 
ATOM      4  C   UNL     1       2.833   5.393  17.870  0.00  0.00    +0.000 A 
ATOM      5  C   UNL     1       2.069   4.820  18.899  0.00  0.00    +0.000 A 
ATOM      6  C   UNL     1       2.606   3.839  19.736  0.00  0.00    +0.000 A 
ATOM      7  C   UNL     1       3.923   3.399  19.580  0.00  0.00    +0.000 A 
ATOM      8  C   UNL     1       4.653   3.977  18.543  0.00  0.00    +0.000 A 
ATOM      9  N   UNL     1       5.928   3.776  18.102  0.00  0.00    +0.000 N 
ATOM     10  H   UNL     1       6.609   3.126  18.478  0.00  0.00    +0.000 HD
ENDROOT
BRANCH   1  11
ATOM     11  O   UNL     1       7.259   4.599  16.285  0.00  0.00    +0.000 OA
BRANCH  11  14
ATOM     12  C   UNL     1       6.082   3.598  13.041  0.00  0.00    +0.000 C 
ATOM     13  N   UNL     1       6.327   3.713  14.453  0.00  0.00    +0.000 N 
ATOM     14  C   UNL     1       7.137   4.699  14.942  0.00  0.00    +0.000 C 
ATOM     15  O   UNL     1       7.670   5.538  14.223  0.00  0.00    +0.000 OA
ATOM     16  H   UNL     1       5.983   3.019  15.103  0.00  0.00    +0.000 HD
ENDBRANCH  11  14
ENDBRANCH   1  11
TORSDOF 2
ENDMDL
MODEL 6
REMARK VINA RESULT:      -6.5      1.538      1.805
REMARK  Name = 
REMARK  3 active torsions:
REMARK  status: ('A' for Active; 'I' for Inactive)
REMARK    1  A    between atoms: C_1  and  N_2
REMARK    2  A    between atoms: C_3  and  O_5
REMARK    3  A    between atoms: O_5  and  C_6
REMARK                            x       y       z     vdW  Elec       q    Type
REMARK                         _______ _______ _______ _____ _____    ______ ____
ROOT
ATOM      1  C   UNL     1       4.761   3.884  17.572  0.00  0.00    +0.000 A 
ATOM      2  N   UNL     1       3.573   4.427  17.409  0.00  0.00    +0.000 NA
ATOM      3  C   UNL     1       2.843   4.045  18.518  0.00  0.00    +0.000 A 
ATOM      4  C   UNL     1       1.511   4.312  18.863  0.00  0.00    +0.000 A 
ATOM      5  C   UNL     1       1.003   3.763  20.050  0.00  0.00    +0.000 A 
ATOM      6  C   UNL     1       1.805   2.979  20.883  0.00  0.00    +0.000 A 
ATOM      7  C   UNL     1       3.141   2.719  20.565  0.00  0.00    +0.000 A 
ATOM      8  C   UNL     1       3.613   3.267  19.374  0.00  0.00    +0.000 A 
ATOM      9  N   UNL     1       4.829   3.201  18.758  0.00  0.00    +0.000 N 
ATOM     10  H   UNL     1       5.652   2.707  19.084  0.00  0.00    +0.000 HD
ENDROOT
BRANCH   1  11
ATOM     11  O   UNL     1       5.739   3.982  16.682  0.00  0.00    +0.000 OA
BRANCH  11  14
ATOM     12  C   UNL     1       7.395   7.040  17.589  0.00  0.00    +0.000 C 
ATOM     13  N   UNL     1       6.421   6.032  17.266  0.00  0.00    +0.000 N 
ATOM     14  C   UNL     1       6.807   4.750  16.998  0.00  0.00    +0.000 C 
ATOM     15  O   UNL     1       7.978   4.385  17.040  0.00  0.00    +0.000 OA
ATOM     16  H   UNL     1       5.445   6.268  17.140  0.00  0.00    +0.000 HD
ENDBRANCH  11  14
ENDBRANCH   1  11
TORSDOF 2
ENDMDL
MODEL 7
REMARK VINA RESULT:      -6.5      1.831      2.136
REMARK  Name = 
REMARK  3 active torsions:
REMARK  status: ('A' for Active; 'I' for Inactive)
REMARK    1  A    between atoms: C_1  and  N_2
REMARK    2  A    between atoms: C_3  and  O_5
REMARK    3  A    between atoms: O_5  and  C_6
REMARK                            x       y       z     vdW  Elec       q    Type
REMARK                         _______ _______ _______ _____ _____    ______ ____
ROOT
ATOM      1  C   UNL     1       3.965   5.849  18.263  0.00  0.00    +0.000 A 
ATOM      2  N   UNL     1       3.145   5.050  17.612  0.00  0.00    +0.000 NA
ATOM      3  C   UNL     1       2.403   4.416  18.588  0.00  0.00    +0.000 A 
ATOM      4  C   UNL     1       1.400   3.444  18.477  0.00  0.00    +0.000 A 
ATOM      5  C   UNL     1       0.824   2.935  19.652  0.00  0.00    +0.000 A 
ATOM      6  C   UNL     1       1.227   3.394  20.909  0.00  0.00    +0.000 A 
ATOM      7  C   UNL     1       2.212   4.376  21.038  0.00  0.00    +0.000 A 
ATOM      8  C   UNL     1       2.773   4.853  19.855  0.00  0.00    +0.000 A 
ATOM      9  N   UNL     1       3.749   5.776  19.614  0.00  0.00    +0.000 N 
ATOM     10  H   UNL     1       4.269   6.308  20.303  0.00  0.00    +0.000 HD
ENDROOT
BRANCH   1  11
ATOM     11  O   UNL     1       4.883   6.599  17.668  0.00  0.00    +0.000 OA
BRANCH  11  14
ATOM     12  C   UNL     1       6.635   4.411  15.420  0.00  0.00    +0.000 C 
ATOM     13  N   UNL     1       6.019   5.013  16.571  0.00  0.00    +0.000 N 
ATOM     14  C   UNL     1       5.345   6.197  16.463  0.00  0.00    +0.000 C 
ATOM     15  O   UNL     1       5.208   6.788  15.397  0.00  0.00    +0.000 OA
ATOM     16  H   UNL     1       6.148   4.626  17.497  0.00  0.00    +0.000 HD
ENDBRANCH  11  14
ENDBRANCH   1  11
TORSDOF 2
ENDMDL
MODEL 8
REMARK VINA RESULT:      -6.5      1.704      2.415
REMARK  Name = 
REMARK  3 active torsions:
REMARK  status: ('A' for Active; 'I' for Inactive)
REMARK    1  A    between atoms: C_1  and  N_2
REMARK    2  A    between atoms: C_3  and  O_5
REMARK    3  A    between atoms: O_5  and  C_6
REMARK                            x       y       z     vdW  Elec       q    Type
REMARK                         _______ _______ _______ _____ _____    ______ ____
ROOT
ATOM      1  C   UNL     1       5.067   4.079  18.610  0.00  0.00    +0.000 A 
ATOM      2  N   UNL     1       4.272   3.256  17.958  0.00  0.00    +0.000 NA
ATOM      3  C   UNL     1       3.056   3.334  18.608  0.00  0.00    +0.000 A 
ATOM      4  C   UNL     1       1.853   2.658  18.365  0.00  0.00    +0.000 A 
ATOM      5  C   UNL     1       0.762   2.902  19.213  0.00  0.00    +0.000 A 
ATOM      6  C   UNL     1       0.861   3.809  20.271  0.00  0.00    +0.000 A 
ATOM      7  C   UNL     1       2.047   4.506  20.518  0.00  0.00    +0.000 A 
ATOM      8  C   UNL     1       3.116   4.233  19.666  0.00  0.00    +0.000 A 
ATOM      9  N   UNL     1       4.395   4.706  19.627  0.00  0.00    +0.000 N 
ATOM     10  H   UNL     1       4.816   5.380  20.256  0.00  0.00    +0.000 HD
ENDROOT
BRANCH   1  11
ATOM     11  O   UNL     1       6.349   4.247  18.314  0.00  0.00    +0.000 OA
BRANCH  11  14
ATOM     12  C   UNL     1       7.879   7.488  18.052  0.00  0.00    +0.000 C 
ATOM     13  N   UNL     1       7.195   6.251  17.788  0.00  0.00    +0.000 N 
ATOM     14  C   UNL     1       6.968   5.351  18.790  0.00  0.00    +0.000 C 
ATOM     15  O   UNL     1       7.304   5.553  19.953  0.00  0.00    +0.000 OA
ATOM     16  H   UNL     1       6.950   5.979  16.844  0.00  0.00    +0.000 HD
ENDBRANCH  11  14
ENDBRANCH   1  11
TORSDOF 2
ENDMDL
MODEL 9
REMARK VINA RESULT:      -6.4      1.370      1.791
REMARK  Name = 
REMARK  3 active torsions:
REMARK  status: ('A' for Active; 'I' for Inactive)
REMARK    1  A    between atoms: C_1  and  N_2
REMARK    2  A    between atoms: C_3  and  O_5
REMARK    3  A    between atoms: O_5  and  C_6
REMARK                            x       y       z     vdW  Elec       q    Type
REMARK                         _______ _______ _______ _____ _____    ______ ____
ROOT
ATOM      1  C   UNL     1       4.726   4.038  17.886  0.00  0.00    +0.000 A 
ATOM      2  N   UNL     1       3.961   5.052  18.230  0.00  0.00    +0.000 NA
ATOM      3  C   UNL     1       3.019   4.522  19.089  0.00  0.00    +0.000 A 
ATOM      4  C   UNL     1       1.941   5.135  19.742  0.00  0.00    +0.000 A 
ATOM      5  C   UNL     1       1.105   4.343  20.545  0.00  0.00    +0.000 A 
ATOM      6  C   UNL     1       1.345   2.976  20.707  0.00  0.00    +0.000 A 
ATOM      7  C   UNL     1       2.426   2.352  20.079  0.00  0.00    +0.000 A 
ATOM      8  C   UNL     1       3.230   3.162  19.279  0.00  0.00    +0.000 A 
ATOM      9  N   UNL     1       4.332   2.889  18.522  0.00  0.00    +0.000 N 
ATOM     10  H   UNL     1       4.783   1.989  18.402  0.00  0.00    +0.000 HD
ENDROOT
BRANCH   1  11
ATOM     11  O   UNL     1       5.728   4.135  17.022  0.00  0.00    +0.000 OA
BRANCH  11  14
ATOM     12  C   UNL     1       7.941   5.673  19.400  0.00  0.00    +0.000 C 
ATOM     13  N   UNL     1       6.798   5.123  18.723  0.00  0.00    +0.000 N 
ATOM     14  C   UNL     1       6.928   4.550  17.489  0.00  0.00    +0.000 C 
ATOM     15  O   UNL     1       8.006   4.452  16.911  0.00  0.00    +0.000 OA
ATOM     16  H   UNL     1       5.865   5.227  19.099  0.00  0.00    +0.000 HD
ENDBRANCH  11  14
ENDBRANCH   1  11
TORSDOF 2
ENDMDL
