MODEL 1
REMARK VINA RESULT:      -6.9      0.000      0.000
REMARK  Name = 
REMARK  5 active torsions:
REMARK  status: ('A' for Active; 'I' for Inactive)
REMARK    1  A    between atoms: C_1  and  C_2
REMARK    2  A    between atoms: N_4  and  C_5
REMARK    3  A    between atoms: C_5  and  C_6
REMARK    4  A    between atoms: C_6  and  C_7
REMARK    5  A    between atoms: C_13  and  C_14
REMARK                            x       y       z     vdW  Elec       q    Type
REMARK                         _______ _______ _______ _____ _____    ______ ____
ROOT
ATOM      1  C   UNL     1       4.730   3.682  18.535  0.00  0.00    +0.000 C 
ATOM      2  O   UNL     1       5.579   4.027  19.360  0.00  0.00    +0.000 OA
ATOM      3  N   UNL     1       3.572   3.013  18.909  0.00  0.00    +0.000 N 
ATOM      4  C   UNL     1       2.526   2.539  18.007  0.00  0.00    +0.000 C 
ATOM      5  C   UNL     1       1.178   3.170  18.353  0.00  0.00    +0.000 C 
ATOM      6  C   UNL     1       0.846   3.001  19.838  0.00  0.00    +0.000 C 
ATOM      7  C   UNL     1       1.997   3.449  20.757  0.00  0.00    +0.000 C 
ATOM      8  C   UNL     1       2.139   4.975  20.775  0.00  0.00    +0.000 C 
ATOM      9  C   UNL     1       3.312   2.778  20.329  0.00  0.00    +0.000 C 
ENDROOT
BRANCH   1  10
ATOM     10  C   UNL     1       4.887   4.020  17.063  0.00  0.00    +0.000 C 
BRANCH  10  11
ATOM     11  C   UNL     1       4.767   5.524  16.840  0.00  0.00    +0.000 C 
BRANCH  11  15
ATOM     12  C   UNL     1       7.877   7.290  18.094  0.00  0.00    +0.000 C 
ATOM     13  C   UNL     1       7.005   6.501  17.160  0.00  0.00    +0.000 C 
ATOM     14  O   UNL     1       7.406   6.112  16.067  0.00  0.00    +0.000 OA
ATOM     15  N   UNL     1       5.731   6.282  17.628  0.00  0.00    +0.000 N 
ATOM     16  H   UNL     1       5.519   6.477  18.594  0.00  0.00    +0.000 HD
ENDBRANCH  11  15
ENDBRANCH  10  11
ENDBRANCH   1  10
TORSDOF 3
ENDMDL
MODEL 2
REMARK VINA RESULT:      -6.6      1.047      1.091
REMARK  Name = 
REMARK  5 active torsions:
REMARK  status: ('A' for Active; 'I' for Inactive)
REMARK    1  A    between atoms: C_1  and  C_2
REMARK    2  A    between atoms: N_4  and  C_5
REMARK    3  A    between atoms: C_5  and  C_6
REMARK    4  A    between atoms: C_6  and  C_7
REMARK    5  A    between atoms: C_13  and  C_14
REMARK                            x       y       z     vdW  Elec       q    Type
REMARK                         _______ _______ _______ _____ _____    ______ ____
ROOT
ATOM      1  C   UNL     1       4.886   3.867  18.607  0.00  0.00    +0.000 C 
ATOM      2  O   UNL     1       5.692   4.043  19.523  0.00  0.00    +0.000 OA
ATOM      3  N   UNL     1       3.689   3.191  18.803  0.00  0.00    +0.000 N 
ATOM      4  C   UNL     1       2.687   2.907  17.778  0.00  0.00    +0.000 C 
ATOM      5  C   UNL     1       1.339   3.526  18.145  0.00  0.00    +0.000 C 
ATOM      6  C   UNL     1       0.911   3.136  19.562  0.00  0.00    +0.000 C 
ATOM      7  C   UNL     1       2.016   3.387  20.604  0.00  0.00    +0.000 C 
ATOM      8  C   UNL     1       2.199   4.884  20.876  0.00  0.00    +0.000 C 
ATOM      9  C   UNL     1       3.335   2.743  20.149  0.00  0.00    +0.000 C 
ENDROOT
BRANCH   1  10
ATOM     10  C   UNL     1       5.144   4.429  17.221  0.00  0.00    +0.000 C 
BRANCH  10  11
ATOM     11  C   UNL     1       6.631   4.702  17.017  0.00  0.00    +0.000 C 
BRANCH  11  15
ATOM     12  C   UNL     1       7.810   8.246  17.659  0.00  0.00    +0.000 C 
ATOM     13  C   UNL     1       7.593   6.783  17.916  0.00  0.00    +0.000 C 
ATOM     14  O   UNL     1       8.002   6.233  18.935  0.00  0.00    +0.000 OA
ATOM     15  N   UNL     1       6.925   6.125  16.910  0.00  0.00    +0.000 N 
ATOM     16  H   UNL     1       6.471   6.661  16.187  0.00  0.00    +0.000 HD
ENDBRANCH  11  15
ENDBRANCH  10  11
ENDBRANCH   1  10
TORSDOF 3
ENDMDL
MODEL 3
REMARK VINA RESULT:      -6.5      1.949      2.319
REMARK  Name = 
REMARK  5 active torsions:
REMARK  status: ('A' for Active; 'I' for Inactive)
REMARK    1  A    between atoms: C_1  and  C_2
REMARK    2  A    between atoms: N_4  and  C_5
REMARK    3  A    between atoms: C_5  and  C_6
REMARK    4  A    between atoms: C_6  and  C_7
REMARK    5  A    between atoms: C_13  and  C_14
REMARK                            x       y       z     vdW  Elec       q    Type
REMARK                         _______ _______ _______ _____ _____    ______ ____
ROOT
ATOM      1  C   UNL     1       4.578   3.572  18.368  0.00  0.00    +0.000 C 
ATOM      2  O   UNL     1       5.501   4.000  19.064  0.00  0.00    +0.000 OA
ATOM      3  N   UNL     1       3.505   2.881  18.915  0.00  0.00    +0.000 N 
ATOM      4  C   UNL     1       2.383   2.311  18.174  0.00  0.00    +0.000 C 
ATOM      5  C   UNL     1       1.057   2.908  18.644  0.00  0.00    +0.000 C 
ATOM      6  C   UNL     1       0.911   2.817  20.165  0.00  0.00    +0.000 C 
ATOM      7  C   UNL     1       2.140   3.365  20.912  0.00  0.00    +0.000 C 
ATOM      8  C   UNL     1       2.211   4.894  20.828  0.00  0.00    +0.000 C 
ATOM      9  C   UNL     1       3.425   2.723  20.367  0.00  0.00    +0.000 C 
ENDROOT
BRANCH   1  10
ATOM     10  C   UNL     1       4.544   3.826  16.871  0.00  0.00    +0.000 C 
BRANCH  10  11
ATOM     11  C   UNL     1       5.959   3.925  16.310  0.00  0.00    +0.000 C 
BRANCH  11  15
ATOM     12  C   UNL     1       6.722   3.919  12.597  0.00  0.00    +0.000 C 
ATOM     13  C   UNL     1       6.778   4.367  14.029  0.00  0.00    +0.000 C 
ATOM     14  O   UNL     1       7.466   5.318  14.388  0.00  0.00    +0.000 OA
ATOM     15  N   UNL     1       6.016   3.610  14.888  0.00  0.00    +0.000 N 
ATOM     16  H   UNL     1       5.348   2.957  14.510  0.00  0.00    +0.000 HD
ENDBRANCH  11  15
ENDBRANCH  10  11
ENDBRANCH   1  10
TORSDOF 3
ENDMDL
MODEL 4
REMARK VINA RESULT:      -6.5      1.533      2.313
REMARK  Name = 
REMARK  5 active torsions:
REMARK  status: ('A' for Active; 'I' for Inactive)
REMARK    1  A    between atoms: C_1  and  C_2
REMARK    2  A    between atoms: N_4  and  C_5
REMARK    3  A    between atoms: C_5  and  C_6
REMARK    4  A    between atoms: C_6  and  C_7
REMARK    5  A    between atoms: C_13  and  C_14
REMARK                            x       y       z     vdW  Elec       q    Type
REMARK                         _______ _______ _______ _____ _____    ______ ____
ROOT
ATOM      1  C   UNL     1       4.806   3.994  19.197  0.00  0.00    +0.000 C 
ATOM      2  O   UNL     1       5.335   2.881  19.181  0.00  0.00    +0.000 OA
ATOM      3  N   UNL     1       3.428   4.152  19.148  0.00  0.00    +0.000 N 
ATOM      4  C   UNL     1       2.711   5.425  19.132  0.00  0.00    +0.000 C 
ATOM      5  C   UNL     1       1.761   5.533  20.324  0.00  0.00    +0.000 C 
ATOM      6  C   UNL     1       0.853   4.305  20.427  0.00  0.00    +0.000 C 
ATOM      7  C   UNL     1       1.637   2.982  20.374  0.00  0.00    +0.000 C 
ATOM      8  C   UNL     1       2.417   2.740  21.670  0.00  0.00    +0.000 C 
ATOM      9  C   UNL     1       2.573   2.966  19.156  0.00  0.00    +0.000 C 
ENDROOT
BRANCH   1  10
ATOM     10  C   UNL     1       5.643   5.254  19.324  0.00  0.00    +0.000 C 
BRANCH  10  11
ATOM     11  C   UNL     1       6.581   5.402  18.130  0.00  0.00    +0.000 C 
BRANCH  11  15
ATOM     12  C   UNL     1       6.141   3.927  14.667  0.00  0.00    +0.000 C 
ATOM     13  C   UNL     1       6.693   4.821  15.740  0.00  0.00    +0.000 C 
ATOM     14  O   UNL     1       7.566   5.652  15.509  0.00  0.00    +0.000 OA
ATOM     15  N   UNL     1       6.154   4.606  16.986  0.00  0.00    +0.000 N 
ATOM     16  H   UNL     1       5.329   4.034  17.076  0.00  0.00    +0.000 HD
ENDBRANCH  11  15
ENDBRANCH  10  11
ENDBRANCH   1  10
TORSDOF 3
ENDMDL
MODEL 5
REMARK VINA RESULT:      -6.4      1.300      1.521
REMARK  Name = 
REMARK  5 active torsions:
REMARK  status: ('A' for Active; 'I' for Inactive)
REMARK    1  A    between atoms: C_1  and  C_2
REMARK    2  A    between atoms: N_4  and  C_5
REMARK    3  A    between atoms: C_5  and  C_6
REMARK    4  A    between atoms: C_6  and  C_7
REMARK    5  A    between atoms: C_13  and  C_14
REMARK                            x       y       z     vdW  Elec       q    Type
REMARK                         _______ _______ _______ _____ _____    ______ ____
ROOT
ATOM      1  C   UNL     1       4.833   4.342  18.561  0.00  0.00    +0.000 C 
ATOM      2  O   UNL     1       5.699   3.945  19.343  0.00  0.00    +0.000 OA
ATOM      3  N   UNL     1       3.731   3.566  18.230  0.00  0.00    +0.000 N 
ATOM      4  C   UNL     1       2.672   3.936  17.294  0.00  0.00    +0.000 C 
ATOM      5  C   UNL     1       1.309   3.943  17.985  0.00  0.00    +0.000 C 
ATOM      6  C   UNL     1       1.054   2.631  18.732  0.00  0.00    +0.000 C 
ATOM      7  C   UNL     1       2.220   2.240  19.658  0.00  0.00    +0.000 C 
ATOM      8  C   UNL     1       2.280   3.143  20.894  0.00  0.00    +0.000 C 
ATOM      9  C   UNL     1       3.547   2.272  18.885  0.00  0.00    +0.000 C 
ENDROOT
BRANCH   1  10
ATOM     10  C   UNL     1       4.907   5.733  17.955  0.00  0.00    +0.000 C 
BRANCH  10  11
ATOM     11  C   UNL     1       6.080   5.839  16.986  0.00  0.00    +0.000 C 
BRANCH  11  15
ATOM     12  C   UNL     1       8.218   8.847  17.847  0.00  0.00    +0.000 C 
ATOM     13  C   UNL     1       7.679   7.449  17.943  0.00  0.00    +0.000 C 
ATOM     14  O   UNL     1       8.096   6.646  18.772  0.00  0.00    +0.000 OA
ATOM     15  N   UNL     1       6.708   7.153  17.015  0.00  0.00    +0.000 N 
ATOM     16  H   UNL     1       6.293   7.900  16.479  0.00  0.00    +0.000 HD
ENDBRANCH  11  15
ENDBRANCH  10  11
ENDBRANCH   1  10
TORSDOF 3
ENDMDL
MODEL 6
REMARK VINA RESULT:      -6.4      1.456      2.266
REMARK  Name = 
REMARK  5 active torsions:
REMARK  status: ('A' for Active; 'I' for Inactive)
REMARK    1  A    between atoms: C_1  and  C_2
REMARK    2  A    between atoms: N_4  and  C_5
REMARK    3  A    between atoms: C_5  and  C_6
REMARK    4  A    between atoms: C_6  and  C_7
REMARK    5  A    between atoms: C_13  and  C_14
REMARK                            x       y       z     vdW  Elec       q    Type
REMARK                         _______ _______ _______ _____ _____    ______ ____
ROOT
ATOM      1  C   UNL     1       4.429   4.247  18.053  0.00  0.00    +0.000 C 
ATOM      2  O   UNL     1       4.460   3.691  16.953  0.00  0.00    +0.000 OA
ATOM      3  N   UNL     1       3.235   4.636  18.645  0.00  0.00    +0.000 N 
ATOM      4  C   UNL     1       3.098   5.325  19.926  0.00  0.00    +0.000 C 
ATOM      5  C   UNL     1       2.252   4.506  20.900  0.00  0.00    +0.000 C 
ATOM      6  C   UNL     1       0.921   4.087  20.269  0.00  0.00    +0.000 C 
ATOM      7  C   UNL     1       1.101   3.425  18.891  0.00  0.00    +0.000 C 
ATOM      8  C   UNL     1       1.691   2.017  19.019  0.00  0.00    +0.000 C 
ATOM      9  C   UNL     1       1.972   4.309  17.985  0.00  0.00    +0.000 C 
ENDROOT
BRANCH   1  10
ATOM     10  C   UNL     1       5.703   4.490  18.842  0.00  0.00    +0.000 C 
BRANCH  10  11
ATOM     11  C   UNL     1       6.881   4.736  17.903  0.00  0.00    +0.000 C 
BRANCH  11  15
ATOM     12  C   UNL     1       7.944   8.370  17.745  0.00  0.00    +0.000 C 
ATOM     13  C   UNL     1       7.190   7.123  17.383  0.00  0.00    +0.000 C 
ATOM     14  O   UNL     1       6.339   7.110  16.498  0.00  0.00    +0.000 OA
ATOM     15  N   UNL     1       7.520   6.023  18.140  0.00  0.00    +0.000 N 
ATOM     16  H   UNL     1       8.338   6.057  18.729  0.00  0.00    +0.000 HD
ENDBRANCH  11  15
ENDBRANCH  10  11
ENDBRANCH   1  10
TORSDOF 3
ENDMDL
MODEL 7
REMARK VINA RESULT:      -6.4      1.520      2.088
REMARK  Name = 
REMARK  5 active torsions:
REMARK  status: ('A' for Active; 'I' for Inactive)
REMARK    1  A    between atoms: C_1  and  C_2
REMARK    2  A    between atoms: N_4  and  C_5
REMARK    3  A    between atoms: C_5  and  C_6
REMARK    4  A    between atoms: C_6  and  C_7
REMARK    5  A    between atoms: C_13  and  C_14
REMARK                            x       y       z     vdW  Elec       q    Type
REMARK                         _______ _______ _______ _____ _____    ______ ____
ROOT
ATOM      1  C   UNL     1       4.744   4.132  18.849  0.00  0.00    +0.000 C 
ATOM      2  O   UNL     1       5.568   3.592  19.590  0.00  0.00    +0.000 OA
ATOM      3  N   UNL     1       3.622   3.460  18.386  0.00  0.00    +0.000 N 
ATOM      4  C   UNL     1       2.608   4.002  17.484  0.00  0.00    +0.000 C 
ATOM      5  C   UNL     1       1.226   3.976  18.136  0.00  0.00    +0.000 C 
ATOM      6  C   UNL     1       0.894   2.586  18.686  0.00  0.00    +0.000 C 
ATOM      7  C   UNL     1       2.014   2.019  19.577  0.00  0.00    +0.000 C 
ATOM      8  C   UNL     1       2.073   2.740  20.928  0.00  0.00    +0.000 C 
ATOM      9  C   UNL     1       3.365   2.098  18.850  0.00  0.00    +0.000 C 
ENDROOT
BRANCH   1  10
ATOM     10  C   UNL     1       4.894   5.589  18.445  0.00  0.00    +0.000 C 
BRANCH  10  11
ATOM     11  C   UNL     1       6.217   5.815  17.721  0.00  0.00    +0.000 C 
BRANCH  11  15
ATOM     12  C   UNL     1       6.316   4.016  14.387  0.00  0.00    +0.000 C 
ATOM     13  C   UNL     1       6.023   5.114  15.368  0.00  0.00    +0.000 C 
ATOM     14  O   UNL     1       5.478   6.161  15.030  0.00  0.00    +0.000 OA
ATOM     15  N   UNL     1       6.438   4.849  16.652  0.00  0.00    +0.000 N 
ATOM     16  H   UNL     1       6.722   3.913  16.896  0.00  0.00    +0.000 HD
ENDBRANCH  11  15
ENDBRANCH  10  11
ENDBRANCH   1  10
TORSDOF 3
ENDMDL
MODEL 8
REMARK VINA RESULT:      -6.3      2.024      2.995
REMARK  Name = 
REMARK  5 active torsions:
REMARK  status: ('A' for Active; 'I' for Inactive)
REMARK    1  A    between atoms: C_1  and  C_2
REMARK    2  A    between atoms: N_4  and  C_5
REMARK    3  A    between atoms: C_5  and  C_6
REMARK    4  A    between atoms: C_6  and  C_7
REMARK    5  A    between atoms: C_13  and  C_14
REMARK                            x       y       z     vdW  Elec       q    Type
REMARK                         _______ _______ _______ _____ _____    ______ ____
ROOT
ATOM      1  C   UNL     1       5.383   4.511  18.901  0.00  0.00    +0.000 C 
ATOM      2  O   UNL     1       5.312   3.435  19.496  0.00  0.00    +0.000 OA
ATOM      3  N   UNL     1       4.299   5.045  18.217  0.00  0.00    +0.000 N 
ATOM      4  C   UNL     1       4.294   6.294  17.459  0.00  0.00    +0.000 C 
ATOM      5  C   UNL     1       3.252   7.266  18.014  0.00  0.00    +0.000 C 
ATOM      6  C   UNL     1       1.878   6.603  18.136  0.00  0.00    +0.000 C 
ATOM      7  C   UNL     1       1.934   5.257  18.881  0.00  0.00    +0.000 C 
ATOM      8  C   UNL     1       2.172   5.458  20.382  0.00  0.00    +0.000 C 
ATOM      9  C   UNL     1       3.013   4.352  18.267  0.00  0.00    +0.000 C 
ENDROOT
BRANCH   1  10
ATOM     10  C   UNL     1       6.657   5.337  18.929  0.00  0.00    +0.000 C 
BRANCH  10  11
ATOM     11  C   UNL     1       7.690   4.768  17.961  0.00  0.00    +0.000 C 
BRANCH  11  15
ATOM     12  C   UNL     1       6.371   3.978  14.497  0.00  0.00    +0.000 C 
ATOM     13  C   UNL     1       7.048   4.763  15.584  0.00  0.00    +0.000 C 
ATOM     14  O   UNL     1       7.546   5.866  15.377  0.00  0.00    +0.000 OA
ATOM     15  N   UNL     1       7.075   4.130  16.804  0.00  0.00    +0.000 N 
ATOM     16  H   UNL     1       6.506   3.311  16.949  0.00  0.00    +0.000 HD
ENDBRANCH  11  15
ENDBRANCH  10  11
ENDBRANCH   1  10
TORSDOF 3
ENDMDL
MODEL 9
REMARK VINA RESULT:      -6.3      1.656      2.515
REMARK  Name = 
REMARK  5 active torsions:
REMARK  status: ('A' for Active; 'I' for Inactive)
REMARK    1  A    between atoms: C_1  and  C_2
REMARK    2  A    between atoms: N_4  and  C_5
REMARK    3  A    between atoms: C_5  and  C_6
REMARK    4  A    between atoms: C_6  and  C_7
REMARK    5  A    between atoms: C_13  and  C_14
REMARK                            x       y       z     vdW  Elec       q    Type
REMARK                         _______ _______ _______ _____ _____    ______ ____
ROOT
ATOM      1  C   UNL     1       4.235   4.176  18.088  0.00  0.00    +0.000 C 
ATOM      2  O   UNL     1       4.282   3.483  17.070  0.00  0.00    +0.000 OA
ATOM      3  N   UNL     1       3.030   4.563  18.657  0.00  0.00    +0.000 N 
ATOM      4  C   UNL     1       2.872   5.405  19.841  0.00  0.00    +0.000 C 
ATOM      5  C   UNL     1       2.102   4.670  20.937  0.00  0.00    +0.000 C 
ATOM      6  C   UNL     1       0.790   4.087  20.404  0.00  0.00    +0.000 C 
ATOM      7  C   UNL     1       0.987   3.262  19.120  0.00  0.00    +0.000 C 
ATOM      8  C   UNL     1       1.673   1.923  19.414  0.00  0.00    +0.000 C 
ATOM      9  C   UNL     1       1.779   4.071  18.082  0.00  0.00    +0.000 C 
ENDROOT
BRANCH   1  10
ATOM     10  C   UNL     1       5.506   4.602  18.802  0.00  0.00    +0.000 C 
BRANCH  10  11
ATOM     11  C   UNL     1       6.164   5.774  18.080  0.00  0.00    +0.000 C 
BRANCH  11  15
ATOM     12  C   UNL     1       6.971   4.789  14.511  0.00  0.00    +0.000 C 
ATOM     13  C   UNL     1       7.114   4.850  16.004  0.00  0.00    +0.000 C 
ATOM     14  O   UNL     1       8.005   4.251  16.599  0.00  0.00    +0.000 OA
ATOM     15  N   UNL     1       6.155   5.610  16.632  0.00  0.00    +0.000 N 
ATOM     16  H   UNL     1       5.560   6.208  16.081  0.00  0.00    +0.000 HD
ENDBRANCH  11  15
ENDBRANCH  10  11
ENDBRANCH   1  10
TORSDOF 3
ENDMDL
