MODEL 1
REMARK VINA RESULT:      -8.1      0.000      0.000
REMARK  Name = 
REMARK  5 active torsions:
REMARK  status: ('A' for Active; 'I' for Inactive)
REMARK    1  A    between atoms: C_1  and  O_2
REMARK    2  A    between atoms: O_2  and  C_3
REMARK    3  A    between atoms: C_6  and  S_7
REMARK    4  A    between atoms: S_7  and  C_8
REMARK    5  A    between atoms: C_22  and  C_23
REMARK                            x       y       z     vdW  Elec       q    Type
REMARK                         _______ _______ _______ _____ _____    ______ ____
ROOT
ATOM      1  C   UNL     1       3.460   5.848  18.341  0.00  0.00    +0.000 A 
ATOM      2  C   UNL     1       2.879   4.619  17.944  0.00  0.00    +0.000 A 
ATOM      3  C   UNL     1       3.445   3.785  16.931  0.00  0.00    +0.000 A 
ATOM      4  C   UNL     1       4.639   4.230  16.349  0.00  0.00    +0.000 A 
ATOM      5  C   UNL     1       5.359   5.088  17.183  0.00  0.00    +0.000 A 
ATOM      6  C   UNL     1       6.694   4.716  17.097  0.00  0.00    +0.000 A 
ATOM      7  C   UNL     1       7.474   4.835  18.242  0.00  0.00    +0.000 A 
ATOM      8  C   UNL     1       6.974   5.689  19.236  0.00  0.00    +0.000 A 
ATOM      9  C   UNL     1       5.800   6.436  19.037  0.00  0.00    +0.000 A 
ATOM     10  C   UNL     1       4.840   5.911  18.151  0.00  0.00    +0.000 A 
ATOM     11  C   UNL     1       6.929   4.212  15.800  0.00  0.00    +0.000 C 
ATOM     12  N   UNL     1       7.819   4.677  14.994  0.00  0.00    +0.000 NA
ATOM     13  C   UNL     1       7.136   4.738  13.833  0.00  0.00    +0.000 C 
ATOM     14  O   UNL     1       7.496   5.352  12.839  0.00  0.00    +0.000 OA
ATOM     15  C   UNL     1       5.811   4.009  13.988  0.00  0.00    +0.000 C 
ATOM     16  C   UNL     1       5.621   3.621  15.270  0.00  0.00    +0.000 C 
ENDROOT
BRANCH  15  17
ATOM     17  C   UNL     1       5.606   3.386  12.617  0.00  0.00    +0.000 C 
ATOM     18  N   UNL     1       5.436   2.870  11.479  0.00  0.00    +0.000 NA
ENDBRANCH  15  17
BRANCH   1  19
ATOM     19  S   UNL     1       2.379   7.231  17.842  0.00  0.00    +0.000 S 
BRANCH  19  23
ATOM     20  C   UNL     1       0.818   9.712  21.369  0.00  0.00    +0.000 A 
ATOM     21  C   UNL     1       0.861  10.219  20.072  0.00  0.00    +0.000 A 
ATOM     22  C   UNL     1       1.351   9.438  19.029  0.00  0.00    +0.000 A 
ATOM     23  C   UNL     1       1.854   8.149  19.270  0.00  0.00    +0.000 A 
ATOM     24  C   UNL     1       1.814   7.643  20.562  0.00  0.00    +0.000 A 
ATOM     25  C   UNL     1       1.296   8.427  21.612  0.00  0.00    +0.000 A 
BRANCH  20  27
ATOM     26  C   UNL     1      -0.735  10.071  23.131  0.00  0.00    +0.000 C 
ATOM     27  O   UNL     1       0.307  10.570  22.301  0.00  0.00    +0.000 OA
ENDBRANCH  20  27
ENDBRANCH  19  23
ENDBRANCH   1  19
TORSDOF 4
ENDMDL
MODEL 2
REMARK VINA RESULT:      -7.9      4.282      8.801
REMARK  Name = 
REMARK  5 active torsions:
REMARK  status: ('A' for Active; 'I' for Inactive)
REMARK    1  A    between atoms: C_1  and  O_2
REMARK    2  A    between atoms: O_2  and  C_3
REMARK    3  A    between atoms: C_6  and  S_7
REMARK    4  A    between atoms: S_7  and  C_8
REMARK    5  A    between atoms: C_22  and  C_23
REMARK                            x       y       z     vdW  Elec       q    Type
REMARK                         _______ _______ _______ _____ _____    ______ ____
ROOT
ATOM      1  C   UNL     1       1.621   8.206  20.192  0.00  0.00    +0.000 A 
ATOM      2  C   UNL     1       2.159   8.500  18.916  0.00  0.00    +0.000 A 
ATOM      3  C   UNL     1       1.442   9.232  17.920  0.00  0.00    +0.000 A 
ATOM      4  C   UNL     1       0.162   9.680  18.273  0.00  0.00    +0.000 A 
ATOM      5  C   UNL     1       0.003   9.825  19.653  0.00  0.00    +0.000 A 
ATOM      6  C   UNL     1      -0.677  11.017  19.862  0.00  0.00    +0.000 A 
ATOM      7  C   UNL     1      -0.354  11.757  20.994  0.00  0.00    +0.000 A 
ATOM      8  C   UNL     1       0.304  11.055  22.016  0.00  0.00    +0.000 A 
ATOM      9  C   UNL     1       0.540   9.673  21.920  0.00  0.00    +0.000 A 
ATOM     10  C   UNL     1       0.666   9.125  20.630  0.00  0.00    +0.000 A 
ATOM     11  C   UNL     1      -1.540  11.231  18.766  0.00  0.00    +0.000 C 
ATOM     12  N   UNL     1      -2.813  11.397  18.869  0.00  0.00    +0.000 NA
ATOM     13  C   UNL     1      -3.274  10.606  17.879  0.00  0.00    +0.000 C 
ATOM     14  O   UNL     1      -4.437  10.248  17.752  0.00  0.00    +0.000 OA
ATOM     15  C   UNL     1      -2.112  10.155  17.009  0.00  0.00    +0.000 C 
ATOM     16  C   UNL     1      -0.931  10.552  17.538  0.00  0.00    +0.000 C 
ENDROOT
BRANCH  15  17
ATOM     17  C   UNL     1      -2.727  10.111  15.620  0.00  0.00    +0.000 C 
ATOM     18  N   UNL     1      -3.237  10.076  14.468  0.00  0.00    +0.000 NA
ENDBRANCH  15  17
BRANCH   1  19
ATOM     19  S   UNL     1       1.335   6.410  20.343  0.00  0.00    +0.000 S 
BRANCH  19  23
ATOM     20  C   UNL     1       4.235   4.174  17.583  0.00  0.00    +0.000 A 
ATOM     21  C   UNL     1       2.861   4.187  17.355  0.00  0.00    +0.000 A 
ATOM     22  C   UNL     1       2.011   4.870  18.221  0.00  0.00    +0.000 A 
ATOM     23  C   UNL     1       2.515   5.514  19.363  0.00  0.00    +0.000 A 
ATOM     24  C   UNL     1       3.884   5.500  19.594  0.00  0.00    +0.000 A 
ATOM     25  C   UNL     1       4.744   4.828  18.703  0.00  0.00    +0.000 A 
BRANCH  20  27
ATOM     26  C   UNL     1       5.656   4.245  15.680  0.00  0.00    +0.000 C 
ATOM     27  O   UNL     1       4.962   3.480  16.659  0.00  0.00    +0.000 OA
ENDBRANCH  20  27
ENDBRANCH  19  23
ENDBRANCH   1  19
TORSDOF 4
ENDMDL
MODEL 3
REMARK VINA RESULT:      -7.9      2.969      4.437
REMARK  Name = 
REMARK  5 active torsions:
REMARK  status: ('A' for Active; 'I' for Inactive)
REMARK    1  A    between atoms: C_1  and  O_2
REMARK    2  A    between atoms: O_2  and  C_3
REMARK    3  A    between atoms: C_6  and  S_7
REMARK    4  A    between atoms: S_7  and  C_8
REMARK    5  A    between atoms: C_22  and  C_23
REMARK                            x       y       z     vdW  Elec       q    Type
REMARK                         _______ _______ _______ _____ _____    ______ ____
ROOT
ATOM      1  C   UNL     1       1.296   7.433  20.274  0.00  0.00    +0.000 A 
ATOM      2  C   UNL     1       1.451   8.180  19.081  0.00  0.00    +0.000 A 
ATOM      3  C   UNL     1       2.478   7.910  18.124  0.00  0.00    +0.000 A 
ATOM      4  C   UNL     1       3.331   6.836  18.409  0.00  0.00    +0.000 A 
ATOM      5  C   UNL     1       2.745   5.890  19.253  0.00  0.00    +0.000 A 
ATOM      6  C   UNL     1       3.068   4.637  18.748  0.00  0.00    +0.000 A 
ATOM      7  C   UNL     1       2.123   3.625  18.875  0.00  0.00    +0.000 A 
ATOM      8  C   UNL     1       1.131   3.833  19.845  0.00  0.00    +0.000 A 
ATOM      9  C   UNL     1       1.152   4.960  20.684  0.00  0.00    +0.000 A 
ATOM     10  C   UNL     1       1.770   6.124  20.191  0.00  0.00    +0.000 A 
ATOM     11  C   UNL     1       4.334   4.723  18.131  0.00  0.00    +0.000 C 
ATOM     12  N   UNL     1       5.345   3.991  18.448  0.00  0.00    +0.000 NA
ATOM     13  C   UNL     1       6.341   4.899  18.489  0.00  0.00    +0.000 C 
ATOM     14  O   UNL     1       7.441   4.711  18.991  0.00  0.00    +0.000 OA
ATOM     15  C   UNL     1       5.852   6.213  17.904  0.00  0.00    +0.000 C 
ATOM     16  C   UNL     1       4.527   6.157  17.631  0.00  0.00    +0.000 C 
ENDROOT
BRANCH  15  17
ATOM     17  C   UNL     1       7.088   6.753  17.205  0.00  0.00    +0.000 C 
ATOM     18  N   UNL     1       8.114   7.201  16.625  0.00  0.00    +0.000 NA
ENDBRANCH  15  17
BRANCH   1  19
ATOM     19  S   UNL     1       1.687   8.484  21.715  0.00  0.00    +0.000 S 
BRANCH  19  23
ATOM     20  C   UNL     1      -1.340  11.865  22.372  0.00  0.00    +0.000 A 
ATOM     21  C   UNL     1      -1.248  10.779  23.238  0.00  0.00    +0.000 A 
ATOM     22  C   UNL     1      -0.322   9.766  23.000  0.00  0.00    +0.000 A 
ATOM     23  C   UNL     1       0.498   9.797  21.861  0.00  0.00    +0.000 A 
ATOM     24  C   UNL     1       0.407  10.877  20.994  0.00  0.00    +0.000 A 
ATOM     25  C   UNL     1      -0.515  11.912  21.251  0.00  0.00    +0.000 A 
BRANCH  20  27
ATOM     26  C   UNL     1      -3.359  12.348  23.528  0.00  0.00    +0.000 C 
ATOM     27  O   UNL     1      -2.277  12.795  22.719  0.00  0.00    +0.000 OA
ENDBRANCH  20  27
ENDBRANCH  19  23
ENDBRANCH   1  19
TORSDOF 4
ENDMDL
MODEL 4
REMARK VINA RESULT:      -7.3      8.527     11.099
REMARK  Name = 
REMARK  5 active torsions:
REMARK  status: ('A' for Active; 'I' for Inactive)
REMARK    1  A    between atoms: C_1  and  O_2
REMARK    2  A    between atoms: O_2  and  C_3
REMARK    3  A    between atoms: C_6  and  S_7
REMARK    4  A    between atoms: S_7  and  C_8
REMARK    5  A    between atoms: C_22  and  C_23
REMARK                            x       y       z     vdW  Elec       q    Type
REMARK                         _______ _______ _______ _____ _____    ______ ____
ROOT
ATOM      1  C   UNL     1       0.489  10.690  19.517  0.00  0.00    +0.000 A 
ATOM      2  C   UNL     1       0.965  12.018  19.643  0.00  0.00    +0.000 A 
ATOM      3  C   UNL     1       0.363  12.980  20.511  0.00  0.00    +0.000 A 
ATOM      4  C   UNL     1      -0.730  12.540  21.270  0.00  0.00    +0.000 A 
ATOM      5  C   UNL     1      -0.722  11.159  21.477  0.00  0.00    +0.000 A 
ATOM      6  C   UNL     1      -1.067  10.943  22.804  0.00  0.00    +0.000 A 
ATOM      7  C   UNL     1      -0.470   9.873  23.462  0.00  0.00    +0.000 A 
ATOM      8  C   UNL     1       0.084   8.882  22.638  0.00  0.00    +0.000 A 
ATOM      9  C   UNL     1      -0.037   8.940  21.239  0.00  0.00    +0.000 A 
ATOM     10  C   UNL     1      -0.167  10.213  20.652  0.00  0.00    +0.000 A 
ATOM     11  C   UNL     1      -1.946  11.972  23.205  0.00  0.00    +0.000 C 
ATOM     12  N   UNL     1      -3.124  11.771  23.684  0.00  0.00    +0.000 NA
ATOM     13  C   UNL     1      -3.854  12.686  23.014  0.00  0.00    +0.000 C 
ATOM     14  O   UNL     1      -5.075  12.701  22.954  0.00  0.00    +0.000 OA
ATOM     15  C   UNL     1      -2.922  13.630  22.272  0.00  0.00    +0.000 C 
ATOM     16  C   UNL     1      -1.637  13.218  22.372  0.00  0.00    +0.000 C 
ENDROOT
BRANCH  15  17
ATOM     17  C   UNL     1      -3.651  14.960  22.356  0.00  0.00    +0.000 C 
ATOM     18  N   UNL     1      -4.257  16.064  22.426  0.00  0.00    +0.000 NA
ENDBRANCH  15  17
BRANCH   1  19
ATOM     19  S   UNL     1      -0.215  10.443  17.852  0.00  0.00    +0.000 S 
BRANCH  19  23
ATOM     20  C   UNL     1      -4.776  10.894  17.985  0.00  0.00    +0.000 A 
ATOM     21  C   UNL     1      -4.163   9.752  17.475  0.00  0.00    +0.000 A 
ATOM     22  C   UNL     1      -2.774   9.656  17.442  0.00  0.00    +0.000 A 
ATOM     23  C   UNL     1      -1.969  10.723  17.876  0.00  0.00    +0.000 A 
ATOM     24  C   UNL     1      -2.579  11.862  18.383  0.00  0.00    +0.000 A 
ATOM     25  C   UNL     1      -3.985  11.947  18.436  0.00  0.00    +0.000 A 
BRANCH  20  27
ATOM     26  C   UNL     1      -6.783  10.313  19.117  0.00  0.00    +0.000 C 
ATOM     27  O   UNL     1      -6.141  10.863  17.972  0.00  0.00    +0.000 OA
ENDBRANCH  20  27
ENDBRANCH  19  23
ENDBRANCH   1  19
TORSDOF 4
ENDMDL
MODEL 5
REMARK VINA RESULT:      -7.1      9.195     11.176
REMARK  Name = 
REMARK  5 active torsions:
REMARK  status: ('A' for Active; 'I' for Inactive)
REMARK    1  A    between atoms: C_1  and  O_2
REMARK    2  A    between atoms: O_2  and  C_3
REMARK    3  A    between atoms: C_6  and  S_7
REMARK    4  A    between atoms: S_7  and  C_8
REMARK    5  A    between atoms: C_22  and  C_23
REMARK                            x       y       z     vdW  Elec       q    Type
REMARK                         _______ _______ _______ _____ _____    ______ ____
ROOT
ATOM      1  C   UNL     1      10.864  12.867  18.464  0.00  0.00    +0.000 A 
ATOM      2  C   UNL     1       9.759  12.244  17.834  0.00  0.00    +0.000 A 
ATOM      3  C   UNL     1       8.504  12.899  17.640  0.00  0.00    +0.000 A 
ATOM      4  C   UNL     1       8.415  14.224  18.086  0.00  0.00    +0.000 A 
ATOM      5  C   UNL     1       9.658  14.859  18.143  0.00  0.00    +0.000 A 
ATOM      6  C   UNL     1       9.487  16.137  17.628  0.00  0.00    +0.000 A 
ATOM      7  C   UNL     1      10.539  16.691  16.908  0.00  0.00    +0.000 A 
ATOM      8  C   UNL     1      11.797  16.106  17.116  0.00  0.00    +0.000 A 
ATOM      9  C   UNL     1      11.980  15.079  18.059  0.00  0.00    +0.000 A 
ATOM     10  C   UNL     1      10.875  14.257  18.345  0.00  0.00    +0.000 A 
ATOM     11  C   UNL     1       8.174  16.561  17.927  0.00  0.00    +0.000 C 
ATOM     12  N   UNL     1       7.891  17.635  18.579  0.00  0.00    +0.000 NA
ATOM     13  C   UNL     1       6.943  17.198  19.432  0.00  0.00    +0.000 C 
ATOM     14  O   UNL     1       6.552  17.807  20.418  0.00  0.00    +0.000 OA
ATOM     15  C   UNL     1       6.510  15.797  19.031  0.00  0.00    +0.000 C 
ATOM     16  C   UNL     1       7.281  15.323  18.025  0.00  0.00    +0.000 C 
ENDROOT
BRANCH  15  17
ATOM     17  C   UNL     1       5.028  15.793  19.365  0.00  0.00    +0.000 C 
ATOM     18  N   UNL     1       3.798  15.788  19.643  0.00  0.00    +0.000 NA
ENDBRANCH  15  17
BRANCH   1  19
ATOM     19  S   UNL     1      11.198  12.058  20.065  0.00  0.00    +0.000 S 
BRANCH  19  23
ATOM     20  C   UNL     1       7.980  12.884  23.227  0.00  0.00    +0.000 A 
ATOM     21  C   UNL     1       8.162  11.619  22.672  0.00  0.00    +0.000 A 
ATOM     22  C   UNL     1       9.143  11.410  21.707  0.00  0.00    +0.000 A 
ATOM     23  C   UNL     1       9.933  12.475  21.242  0.00  0.00    +0.000 A 
ATOM     24  C   UNL     1       9.752  13.736  21.791  0.00  0.00    +0.000 A 
ATOM     25  C   UNL     1       8.773  13.940  22.785  0.00  0.00    +0.000 A 
BRANCH  20  27
ATOM     26  C   UNL     1       6.148  11.823  24.305  0.00  0.00    +0.000 C 
ATOM     27  O   UNL     1       6.995  12.959  24.169  0.00  0.00    +0.000 OA
ENDBRANCH  20  27
ENDBRANCH  19  23
ENDBRANCH   1  19
TORSDOF 4
ENDMDL
MODEL 6
REMARK VINA RESULT:      -7.1      8.934     11.727
REMARK  Name = 
REMARK  5 active torsions:
REMARK  status: ('A' for Active; 'I' for Inactive)
REMARK    1  A    between atoms: C_1  and  O_2
REMARK    2  A    between atoms: O_2  and  C_3
REMARK    3  A    between atoms: C_6  and  S_7
REMARK    4  A    between atoms: S_7  and  C_8
REMARK    5  A    between atoms: C_22  and  C_23
REMARK                            x       y       z     vdW  Elec       q    Type
REMARK                         _______ _______ _______ _____ _____    ______ ____
ROOT
ATOM      1  C   UNL     1       0.340  12.107  19.898  0.00  0.00    +0.000 A 
ATOM      2  C   UNL     1       0.758  13.323  20.492  0.00  0.00    +0.000 A 
ATOM      3  C   UNL     1       0.080  13.921  21.598  0.00  0.00    +0.000 A 
ATOM      4  C   UNL     1      -1.030  13.228  22.100  0.00  0.00    +0.000 A 
ATOM      5  C   UNL     1      -0.979  11.858  21.828  0.00  0.00    +0.000 A 
ATOM      6  C   UNL     1      -1.377  11.198  22.982  0.00  0.00    +0.000 A 
ATOM      7  C   UNL     1      -0.772   9.980  23.273  0.00  0.00    +0.000 A 
ATOM      8  C   UNL     1      -0.142   9.339  22.196  0.00  0.00    +0.000 A 
ATOM      9  C   UNL     1      -0.199   9.867  20.895  0.00  0.00    +0.000 A 
ATOM     10  C   UNL     1      -0.349  11.260  20.766  0.00  0.00    +0.000 A 
ATOM     11  C   UNL     1      -2.313  12.012  23.656  0.00  0.00    +0.000 C 
ATOM     12  N   UNL     1      -3.504  11.637  23.971  0.00  0.00    +0.000 NA
ATOM     13  C   UNL     1      -4.236  12.710  23.608  0.00  0.00    +0.000 C 
ATOM     14  O   UNL     1      -5.453  12.720  23.487  0.00  0.00    +0.000 OA
ATOM     15  C   UNL     1      -3.307  13.868  23.284  0.00  0.00    +0.000 C 
ATOM     16  C   UNL     1      -2.013  13.472  23.313  0.00  0.00    +0.000 C 
ENDROOT
BRANCH  15  17
ATOM     17  C   UNL     1      -4.090  15.076  23.770  0.00  0.00    +0.000 C 
ATOM     18  N   UNL     1      -4.741  16.078  24.174  0.00  0.00    +0.000 NA
ENDBRANCH  15  17
BRANCH   1  19
ATOM     19  S   UNL     1      -0.275  12.426  18.210  0.00  0.00    +0.000 S 
BRANCH  19  23
ATOM     20  C   UNL     1      -4.647  11.099  17.825  0.00  0.00    +0.000 A 
ATOM     21  C   UNL     1      -4.220  11.945  18.846  0.00  0.00    +0.000 A 
ATOM     22  C   UNL     1      -2.882  12.318  18.935  0.00  0.00    +0.000 A 
ATOM     23  C   UNL     1      -1.933  11.812  18.031  0.00  0.00    +0.000 A 
ATOM     24  C   UNL     1      -2.356  10.968  17.015  0.00  0.00    +0.000 A 
ATOM     25  C   UNL     1      -3.715  10.610  16.913  0.00  0.00    +0.000 A 
BRANCH  20  27
ATOM     26  C   UNL     1      -6.575  10.569  19.109  0.00  0.00    +0.000 C 
ATOM     27  O   UNL     1      -5.983  10.816  17.839  0.00  0.00    +0.000 OA
ENDBRANCH  20  27
ENDBRANCH  19  23
ENDBRANCH   1  19
TORSDOF 4
ENDMDL
MODEL 7
REMARK VINA RESULT:      -7.1      8.433     11.040
REMARK  Name = 
REMARK  5 active torsions:
REMARK  status: ('A' for Active; 'I' for Inactive)
REMARK    1  A    between atoms: C_1  and  O_2
REMARK    2  A    between atoms: O_2  and  C_3
REMARK    3  A    between atoms: C_6  and  S_7
REMARK    4  A    between atoms: S_7  and  C_8
REMARK    5  A    between atoms: C_22  and  C_23
REMARK                            x       y       z     vdW  Elec       q    Type
REMARK                         _______ _______ _______ _____ _____    ______ ____
ROOT
ATOM      1  C   UNL     1       0.162  10.245  19.110  0.00  0.00    +0.000 A 
ATOM      2  C   UNL     1       0.476  11.595  18.820  0.00  0.00    +0.000 A 
ATOM      3  C   UNL     1      -0.203  12.697  19.426  0.00  0.00    +0.000 A 
ATOM      4  C   UNL     1      -1.199  12.382  20.359  0.00  0.00    +0.000 A 
ATOM      5  C   UNL     1      -1.011  11.128  20.946  0.00  0.00    +0.000 A 
ATOM      6  C   UNL     1      -1.268  11.269  22.302  0.00  0.00    +0.000 A 
ATOM      7  C   UNL     1      -0.516  10.504  23.187  0.00  0.00    +0.000 A 
ATOM      8  C   UNL     1       0.121   9.382  22.635  0.00  0.00    +0.000 A 
ATOM      9  C   UNL     1      -0.067   9.021  21.290  0.00  0.00    +0.000 A 
ATOM     10  C   UNL     1      -0.379  10.048  20.380  0.00  0.00    +0.000 A 
ATOM     11  C   UNL     1      -2.250  12.270  22.464  0.00  0.00    +0.000 C 
ATOM     12  N   UNL     1      -3.372  12.092  23.069  0.00  0.00    +0.000 NA
ATOM     13  C   UNL     1      -4.238  12.691  22.227  0.00  0.00    +0.000 C 
ATOM     14  O   UNL     1      -5.454  12.559  22.260  0.00  0.00    +0.000 OA
ATOM     15  C   UNL     1      -3.464  13.475  21.180  0.00  0.00    +0.000 C 
ATOM     16  C   UNL     1      -2.134  13.248  21.293  0.00  0.00    +0.000 C 
ENDROOT
BRANCH  15  17
ATOM     17  C   UNL     1      -4.348  14.687  20.942  0.00  0.00    +0.000 C 
ATOM     18  N   UNL     1      -5.082  15.693  20.744  0.00  0.00    +0.000 NA
ENDBRANCH  15  17
BRANCH   1  19
ATOM     19  S   UNL     1      -0.577   9.454  17.641  0.00  0.00    +0.000 S 
BRANCH  19  23
ATOM     20  C   UNL     1      -4.644  11.456  16.949  0.00  0.00    +0.000 A 
ATOM     21  C   UNL     1      -4.330  10.819  18.147  0.00  0.00    +0.000 A 
ATOM     22  C   UNL     1      -3.087  10.215  18.316  0.00  0.00    +0.000 A 
ATOM     23  C   UNL     1      -2.150  10.192  17.270  0.00  0.00    +0.000 A 
ATOM     24  C   UNL     1      -2.463  10.823  16.074  0.00  0.00    +0.000 A 
ATOM     25  C   UNL     1      -3.712  11.455  15.914  0.00  0.00    +0.000 A 
BRANCH  20  27
ATOM     26  C   UNL     1      -6.772  11.700  17.978  0.00  0.00    +0.000 C 
ATOM     27  O   UNL     1      -5.887  12.019  16.910  0.00  0.00    +0.000 OA
ENDBRANCH  20  27
ENDBRANCH  19  23
ENDBRANCH   1  19
TORSDOF 4
ENDMDL
MODEL 8
REMARK VINA RESULT:      -7.0      4.677      6.898
REMARK  Name = 
REMARK  5 active torsions:
REMARK  status: ('A' for Active; 'I' for Inactive)
REMARK    1  A    between atoms: C_1  and  O_2
REMARK    2  A    between atoms: O_2  and  C_3
REMARK    3  A    between atoms: C_6  and  S_7
REMARK    4  A    between atoms: S_7  and  C_8
REMARK    5  A    between atoms: C_22  and  C_23
REMARK                            x       y       z     vdW  Elec       q    Type
REMARK                         _______ _______ _______ _____ _____    ______ ____
ROOT
ATOM      1  C   UNL     1       7.348   7.043  17.380  0.00  0.00    +0.000 A 
ATOM      2  C   UNL     1       7.767   6.529  18.631  0.00  0.00    +0.000 A 
ATOM      3  C   UNL     1       7.042   5.523  19.340  0.00  0.00    +0.000 A 
ATOM      4  C   UNL     1       5.883   5.035  18.722  0.00  0.00    +0.000 A 
ATOM      5  C   UNL     1       5.907   5.186  17.333  0.00  0.00    +0.000 A 
ATOM      6  C   UNL     1       5.421   4.006  16.786  0.00  0.00    +0.000 A 
ATOM      7  C   UNL     1       5.969   3.576  15.583  0.00  0.00    +0.000 A 
ATOM      8  C   UNL     1       6.643   4.553  14.834  0.00  0.00    +0.000 A 
ATOM      9  C   UNL     1       6.680   5.895  15.248  0.00  0.00    +0.000 A 
ATOM     10  C   UNL     1       6.581   6.152  16.628  0.00  0.00    +0.000 A 
ATOM     11  C   UNL     1       4.471   3.464  17.679  0.00  0.00    +0.000 C 
ATOM     12  N   UNL     1       3.252   3.195  17.364  0.00  0.00    +0.000 NA
ATOM     13  C   UNL     1       2.577   3.692  18.419  0.00  0.00    +0.000 C 
ATOM     14  O   UNL     1       1.371   3.889  18.451  0.00  0.00    +0.000 OA
ATOM     15  C   UNL     1       3.560   4.055  19.521  0.00  0.00    +0.000 C 
ATOM     16  C   UNL     1       4.837   3.912  19.096  0.00  0.00    +0.000 C 
ENDROOT
BRANCH  15  17
ATOM     17  C   UNL     1       2.787   3.723  20.786  0.00  0.00    +0.000 C 
ATOM     18  N   UNL     1       2.145   3.447  21.836  0.00  0.00    +0.000 NA
ENDBRANCH  15  17
BRANCH   1  19
ATOM     19  S   UNL     1       6.846   8.788  17.566  0.00  0.00    +0.000 S 
BRANCH  19  23
ATOM     20  C   UNL     1      10.236  11.544  18.960  0.00  0.00    +0.000 A 
ATOM     21  C   UNL     1       9.487  11.815  17.817  0.00  0.00    +0.000 A 
ATOM     22  C   UNL     1       8.472  10.949  17.420  0.00  0.00    +0.000 A 
ATOM     23  C   UNL     1       8.217   9.766  18.133  0.00  0.00    +0.000 A 
ATOM     24  C   UNL     1       8.963   9.492  19.271  0.00  0.00    +0.000 A 
ATOM     25  C   UNL     1       9.975  10.383  19.683  0.00  0.00    +0.000 A 
BRANCH  20  27
ATOM     26  C   UNL     1      12.333  12.018  19.971  0.00  0.00    +0.000 C 
ATOM     27  O   UNL     1      11.194  12.472  19.249  0.00  0.00    +0.000 OA
ENDBRANCH  20  27
ENDBRANCH  19  23
ENDBRANCH   1  19
TORSDOF 4
ENDMDL
MODEL 9
REMARK VINA RESULT:      -7.0      8.799     12.485
REMARK  Name = 
REMARK  5 active torsions:
REMARK  status: ('A' for Active; 'I' for Inactive)
REMARK    1  A    between atoms: C_1  and  O_2
REMARK    2  A    between atoms: O_2  and  C_3
REMARK    3  A    between atoms: C_6  and  S_7
REMARK    4  A    between atoms: S_7  and  C_8
REMARK    5  A    between atoms: C_22  and  C_23
REMARK                            x       y       z     vdW  Elec       q    Type
REMARK                         _______ _______ _______ _____ _____    ______ ____
ROOT
ATOM      1  C   UNL     1      -1.924  13.942  22.596  0.00  0.00    +0.000 A 
ATOM      2  C   UNL     1      -2.308  15.097  21.872  0.00  0.00    +0.000 A 
ATOM      3  C   UNL     1      -3.471  15.142  21.043  0.00  0.00    +0.000 A 
ATOM      4  C   UNL     1      -4.249  13.978  20.993  0.00  0.00    +0.000 A 
ATOM      5  C   UNL     1      -4.097  13.178  22.128  0.00  0.00    +0.000 A 
ATOM      6  C   UNL     1      -5.363  12.740  22.490  0.00  0.00    +0.000 A 
ATOM      7  C   UNL     1      -5.632  12.588  23.846  0.00  0.00    +0.000 A 
ATOM      8  C   UNL     1      -4.512  12.486  24.684  0.00  0.00    +0.000 A 
ATOM      9  C   UNL     1      -3.207  12.456  24.161  0.00  0.00    +0.000 A 
ATOM     10  C   UNL     1      -2.987  13.103  22.931  0.00  0.00    +0.000 A 
ATOM     11  C   UNL     1      -6.139  12.610  21.318  0.00  0.00    +0.000 C 
ATOM     12  N   UNL     1      -6.722  11.522  20.953  0.00  0.00    +0.000 NA
ATOM     13  C   UNL     1      -6.422  11.475  19.639  0.00  0.00    +0.000 C 
ATOM     14  O   UNL     1      -6.553  10.491  18.925  0.00  0.00    +0.000 OA
ATOM     15  C   UNL     1      -5.811  12.800  19.213  0.00  0.00    +0.000 C 
ATOM     16  C   UNL     1      -5.610  13.605  20.282  0.00  0.00    +0.000 C 
ENDROOT
BRANCH  15  17
ATOM     17  C   UNL     1      -6.337  12.975  17.798  0.00  0.00    +0.000 C 
ATOM     18  N   UNL     1      -6.774  13.120  16.625  0.00  0.00    +0.000 NA
ENDBRANCH  15  17
BRANCH   1  19
ATOM     19  S   UNL     1      -0.375  13.267  21.906  0.00  0.00    +0.000 S 
BRANCH  19  23
ATOM     20  C   UNL     1      -1.347  10.703  18.230  0.00  0.00    +0.000 A 
ATOM     21  C   UNL     1      -0.867  10.145  19.413  0.00  0.00    +0.000 A 
ATOM     22  C   UNL     1      -0.574  10.958  20.505  0.00  0.00    +0.000 A 
ATOM     23  C   UNL     1      -0.710  12.354  20.419  0.00  0.00    +0.000 A 
ATOM     24  C   UNL     1      -1.185  12.912  19.241  0.00  0.00    +0.000 A 
ATOM     25  C   UNL     1      -1.502  12.084  18.145  0.00  0.00    +0.000 A 
BRANCH  20  27
ATOM     26  C   UNL     1      -2.753  10.046  16.431  0.00  0.00    +0.000 C 
ATOM     27  O   UNL     1      -1.606   9.803  17.238  0.00  0.00    +0.000 OA
ENDBRANCH  20  27
ENDBRANCH  19  23
ENDBRANCH   1  19
TORSDOF 4
ENDMDL
