MODEL 1
REMARK VINA RESULT:      -7.6      0.000      0.000
REMARK  Name = 
REMARK  8 active torsions:
REMARK  status: ('A' for Active; 'I' for Inactive)
REMARK    1  A    between atoms: C_1  and  C_2
REMARK    2  A    between atoms: C_2  and  C_3
REMARK    3  A    between atoms: C_2  and  C_4
REMARK    4  A    between atoms: C_2  and  N_5
REMARK    5  A    between atoms: C_9  and  C_10
REMARK    6  A    between atoms: C_10  and  C_11
REMARK    7  A    between atoms: C_10  and  N_18
REMARK    8  A    between atoms: N_21  and  C_22
REMARK                            x       y       z     vdW  Elec       q    Type
REMARK                         _______ _______ _______ _____ _____    ______ ____
ROOT
ATOM      1  C   UNL     1       3.739   5.353  17.080  0.00  0.00    +0.000 C 
ENDROOT
BRANCH   1   2
ATOM      2  C   UNL     1       3.098   4.023  17.650  0.00  0.00    +0.000 A 
ATOM      3  C   UNL     1       3.863   2.913  18.141  0.00  0.00    +0.000 A 
ATOM      4  C   UNL     1       3.303   1.812  18.769  0.00  0.00    +0.000 A 
ATOM      5  C   UNL     1       1.930   1.700  18.908  0.00  0.00    +0.000 A 
ATOM      6  C   UNL     1       1.110   2.723  18.415  0.00  0.00    +0.000 A 
ATOM      7  C   UNL     1       1.666   3.884  17.795  0.00  0.00    +0.000 A 
ATOM      8  F   UNL     1       0.822   4.839  17.369  0.00  0.00    +0.000 F 
ENDBRANCH   1   2
BRANCH   1   9
ATOM      9  N   UNL     1       3.768   6.390  18.258  0.00  0.00    +0.000 NA
ATOM     10  C   UNL     1       3.838   7.740  17.814  0.00  0.00    +0.000 C 
ATOM     11  C   UNL     1       2.426   8.287  17.677  0.00  0.00    +0.000 C 
ATOM     12  N   UNL     1       1.831   8.676  18.935  0.00  0.00    +0.000 NA
ATOM     13  C   UNL     1       1.765   7.389  19.789  0.00  0.00    +0.000 C 
ATOM     14  C   UNL     1       3.164   6.550  19.677  0.00  0.00    +0.000 C 
BRANCH  12  15
ATOM     15  C   UNL     1       0.770   9.782  18.704  0.00  0.00    +0.000 C 
ATOM     16  C   UNL     1      -0.337   9.883  19.786  0.00  0.00    +0.000 C 
ATOM     17  C   UNL     1      -1.258  11.021  19.335  0.00  0.00    +0.000 C 
ATOM     18  C   UNL     1      -0.267  12.032  18.700  0.00  0.00    +0.000 C 
ATOM     19  C   UNL     1       1.106  11.288  18.596  0.00  0.00    +0.000 C 
ENDBRANCH  12  15
ENDBRANCH   1   9
BRANCH   1  24
ATOM     20  N   UNL     1       6.457   4.884  16.919  0.00  0.00    +0.000 N 
ATOM     21  N   UNL     1       7.213   4.528  15.879  0.00  0.00    +0.000 NA
ATOM     22  N   UNL     1       6.474   4.368  14.799  0.00  0.00    +0.000 NA
ATOM     23  N   UNL     1       5.238   4.664  15.089  0.00  0.00    +0.000 NA
ATOM     24  C   UNL     1       5.146   4.914  16.451  0.00  0.00    +0.000 A 
BRANCH  20  26
ATOM     25  C   UNL     1       8.487   4.602  18.356  0.00  0.00    +0.000 C 
ATOM     26  C   UNL     1       7.173   5.418  18.130  0.00  0.00    +0.000 C 
ATOM     27  C   UNL     1       6.363   5.262  19.435  0.00  0.00    +0.000 C 
ATOM     28  C   UNL     1       7.610   6.854  17.858  0.00  0.00    +0.000 C 
ENDBRANCH  20  26
ENDBRANCH   1  24
TORSDOF 5
ENDMDL
MODEL 2
REMARK VINA RESULT:      -7.2      0.459      1.100
REMARK  Name = 
REMARK  8 active torsions:
REMARK  status: ('A' for Active; 'I' for Inactive)
REMARK    1  A    between atoms: C_1  and  C_2
REMARK    2  A    between atoms: C_2  and  C_3
REMARK    3  A    between atoms: C_2  and  C_4
REMARK    4  A    between atoms: C_2  and  N_5
REMARK    5  A    between atoms: C_9  and  C_10
REMARK    6  A    between atoms: C_10  and  C_11
REMARK    7  A    between atoms: C_10  and  N_18
REMARK    8  A    between atoms: N_21  and  C_22
REMARK                            x       y       z     vdW  Elec       q    Type
REMARK                         _______ _______ _______ _____ _____    ______ ____
ROOT
ATOM      1  C   UNL     1       3.632   5.316  17.100  0.00  0.00    +0.000 C 
ENDROOT
BRANCH   1   2
ATOM      2  C   UNL     1       2.958   4.044  17.757  0.00  0.00    +0.000 A 
ATOM      3  C   UNL     1       3.690   3.005  18.423  0.00  0.00    +0.000 A 
ATOM      4  C   UNL     1       3.091   1.969  19.120  0.00  0.00    +0.000 A 
ATOM      5  C   UNL     1       1.711   1.850  19.164  0.00  0.00    +0.000 A 
ATOM      6  C   UNL     1       0.926   2.801  18.501  0.00  0.00    +0.000 A 
ATOM      7  C   UNL     1       1.521   3.898  17.804  0.00  0.00    +0.000 A 
ATOM      8  F   UNL     1       0.705   4.788  17.213  0.00  0.00    +0.000 F 
ENDBRANCH   1   2
BRANCH   1   9
ATOM      9  N   UNL     1       3.757   6.403  18.225  0.00  0.00    +0.000 NA
ATOM     10  C   UNL     1       3.670   7.734  17.729  0.00  0.00    +0.000 C 
ATOM     11  C   UNL     1       2.218   8.184  17.779  0.00  0.00    +0.000 C 
ATOM     12  N   UNL     1       1.784   8.589  19.096  0.00  0.00    +0.000 NA
ATOM     13  C   UNL     1       1.929   7.339  19.995  0.00  0.00    +0.000 C 
ATOM     14  C   UNL     1       3.351   6.587  19.710  0.00  0.00    +0.000 C 
BRANCH  12  15
ATOM     15  C   UNL     1       0.627   9.615  18.984  0.00  0.00    +0.000 C 
ATOM     16  C   UNL     1       1.056  11.106  18.949  0.00  0.00    +0.000 C 
ATOM     17  C   UNL     1      -0.244  11.911  18.852  0.00  0.00    +0.000 C 
ATOM     18  C   UNL     1      -1.133  11.017  17.949  0.00  0.00    +0.000 C 
ATOM     19  C   UNL     1      -0.381   9.652  17.812  0.00  0.00    +0.000 C 
ENDBRANCH  12  15
ENDBRANCH   1   9
BRANCH   1  24
ATOM     20  N   UNL     1       6.325   4.757  16.833  0.00  0.00    +0.000 N 
ATOM     21  N   UNL     1       7.012   4.291  15.788  0.00  0.00    +0.000 NA
ATOM     22  N   UNL     1       6.210   4.061  14.767  0.00  0.00    +0.000 NA
ATOM     23  N   UNL     1       4.999   4.416  15.097  0.00  0.00    +0.000 NA
ATOM     24  C   UNL     1       4.991   4.784  16.435  0.00  0.00    +0.000 A 
BRANCH  20  26
ATOM     25  C   UNL     1       6.320   5.242  19.288  0.00  0.00    +0.000 C 
ATOM     26  C   UNL     1       7.120   5.371  17.951  0.00  0.00    +0.000 C 
ATOM     27  C   UNL     1       7.367   6.884  17.765  0.00  0.00    +0.000 C 
ATOM     28  C   UNL     1       8.404   4.569  18.150  0.00  0.00    +0.000 C 
ENDBRANCH  20  26
ENDBRANCH   1  24
TORSDOF 5
ENDMDL
MODEL 3
REMARK VINA RESULT:      -7.2      1.937      2.737
REMARK  Name = 
REMARK  8 active torsions:
REMARK  status: ('A' for Active; 'I' for Inactive)
REMARK    1  A    between atoms: C_1  and  C_2
REMARK    2  A    between atoms: C_2  and  C_3
REMARK    3  A    between atoms: C_2  and  C_4
REMARK    4  A    between atoms: C_2  and  N_5
REMARK    5  A    between atoms: C_9  and  C_10
REMARK    6  A    between atoms: C_10  and  C_11
REMARK    7  A    between atoms: C_10  and  N_18
REMARK    8  A    between atoms: N_21  and  C_22
REMARK                            x       y       z     vdW  Elec       q    Type
REMARK                         _______ _______ _______ _____ _____    ______ ____
ROOT
ATOM      1  C   UNL     1       3.177   6.271  18.517  0.00  0.00    +0.000 C 
ENDROOT
BRANCH   1   2
ATOM      2  C   UNL     1       2.404   5.067  19.193  0.00  0.00    +0.000 A 
ATOM      3  C   UNL     1       2.386   4.821  20.607  0.00  0.00    +0.000 A 
ATOM      4  C   UNL     1       1.596   3.855  21.207  0.00  0.00    +0.000 A 
ATOM      5  C   UNL     1       0.801   3.015  20.444  0.00  0.00    +0.000 A 
ATOM      6  C   UNL     1       0.797   3.163  19.052  0.00  0.00    +0.000 A 
ATOM      7  C   UNL     1       1.578   4.175  18.411  0.00  0.00    +0.000 A 
ATOM      8  F   UNL     1       1.505   4.277  17.073  0.00  0.00    +0.000 F 
ENDBRANCH   1   2
BRANCH   1   9
ATOM      9  N   UNL     1       2.789   7.569  19.309  0.00  0.00    +0.000 NA
ATOM     10  C   UNL     1       2.805   8.742  18.504  0.00  0.00    +0.000 C 
ATOM     11  C   UNL     1       1.417   8.961  17.924  0.00  0.00    +0.000 C 
ATOM     12  N   UNL     1       0.486   9.551  18.858  0.00  0.00    +0.000 NA
ATOM     13  C   UNL     1       0.363   8.547  20.027  0.00  0.00    +0.000 C 
ATOM     14  C   UNL     1       1.835   7.983  20.460  0.00  0.00    +0.000 C 
BRANCH  12  15
ATOM     15  C   UNL     1      -0.608  10.341  18.095  0.00  0.00    +0.000 C 
ATOM     16  C   UNL     1      -1.450   9.514  17.088  0.00  0.00    +0.000 C 
ATOM     17  C   UNL     1      -2.437  10.502  16.459  0.00  0.00    +0.000 C 
ATOM     18  C   UNL     1      -2.780  11.443  17.645  0.00  0.00    +0.000 C 
ATOM     19  C   UNL     1      -1.771  11.089  18.787  0.00  0.00    +0.000 C 
ENDBRANCH  12  15
ENDBRANCH   1   9
BRANCH   1  24
ATOM     20  N   UNL     1       5.659   5.570  17.526  0.00  0.00    +0.000 N 
ATOM     21  N   UNL     1       6.756   5.148  18.160  0.00  0.00    +0.000 NA
ATOM     22  N   UNL     1       6.555   5.107  19.462  0.00  0.00    +0.000 NA
ATOM     23  N   UNL     1       5.321   5.448  19.707  0.00  0.00    +0.000 NA
ATOM     24  C   UNL     1       4.722   5.843  18.518  0.00  0.00    +0.000 A 
BRANCH  20  26
ATOM     25  C   UNL     1       4.604   4.214  15.706  0.00  0.00    +0.000 C 
ATOM     26  C   UNL     1       5.611   5.363  16.037  0.00  0.00    +0.000 C 
ATOM     27  C   UNL     1       6.961   4.911  15.440  0.00  0.00    +0.000 C 
ATOM     28  C   UNL     1       5.049   6.619  15.377  0.00  0.00    +0.000 C 
ENDBRANCH  20  26
ENDBRANCH   1  24
TORSDOF 5
ENDMDL
MODEL 4
REMARK VINA RESULT:      -6.8      1.908      2.706
REMARK  Name = 
REMARK  8 active torsions:
REMARK  status: ('A' for Active; 'I' for Inactive)
REMARK    1  A    between atoms: C_1  and  C_2
REMARK    2  A    between atoms: C_2  and  C_3
REMARK    3  A    between atoms: C_2  and  C_4
REMARK    4  A    between atoms: C_2  and  N_5
REMARK    5  A    between atoms: C_9  and  C_10
REMARK    6  A    between atoms: C_10  and  C_11
REMARK    7  A    between atoms: C_10  and  N_18
REMARK    8  A    between atoms: N_21  and  C_22
REMARK                            x       y       z     vdW  Elec       q    Type
REMARK                         _______ _______ _______ _____ _____    ______ ____
ROOT
ATOM      1  C   UNL     1       3.225   6.229  18.572  0.00  0.00    +0.000 C 
ENDROOT
BRANCH   1   2
ATOM      2  C   UNL     1       2.441   5.024  19.234  0.00  0.00    +0.000 A 
ATOM      3  C   UNL     1       2.483   4.716  20.635  0.00  0.00    +0.000 A 
ATOM      4  C   UNL     1       1.688   3.753  21.233  0.00  0.00    +0.000 A 
ATOM      5  C   UNL     1       0.825   2.977  20.476  0.00  0.00    +0.000 A 
ATOM      6  C   UNL     1       0.758   3.187  19.093  0.00  0.00    +0.000 A 
ATOM      7  C   UNL     1       1.544   4.198  18.458  0.00  0.00    +0.000 A 
ATOM      8  F   UNL     1       1.409   4.362  17.131  0.00  0.00    +0.000 F 
ENDBRANCH   1   2
BRANCH   1   9
ATOM      9  N   UNL     1       2.840   7.523  19.373  0.00  0.00    +0.000 NA
ATOM     10  C   UNL     1       2.649   8.660  18.540  0.00  0.00    +0.000 C 
ATOM     11  C   UNL     1       1.182   8.746  18.151  0.00  0.00    +0.000 C 
ATOM     12  N   UNL     1       0.340   9.297  19.188  0.00  0.00    +0.000 NA
ATOM     13  C   UNL     1       0.461   8.333  20.391  0.00  0.00    +0.000 C 
ATOM     14  C   UNL     1       2.020   7.906  20.632  0.00  0.00    +0.000 C 
BRANCH  12  15
ATOM     15  C   UNL     1      -0.910   9.966  18.560  0.00  0.00    +0.000 C 
ATOM     16  C   UNL     1      -0.877  11.516  18.494  0.00  0.00    +0.000 C 
ATOM     17  C   UNL     1      -2.207  11.934  17.858  0.00  0.00    +0.000 C 
ATOM     18  C   UNL     1      -2.458  10.809  16.820  0.00  0.00    +0.000 C 
ATOM     19  C   UNL     1      -1.398   9.697  17.118  0.00  0.00    +0.000 C 
ENDBRANCH  12  15
ENDBRANCH   1   9
BRANCH   1  24
ATOM     20  N   UNL     1       5.677   5.411  17.596  0.00  0.00    +0.000 N 
ATOM     21  N   UNL     1       6.787   5.047  18.242  0.00  0.00    +0.000 NA
ATOM     22  N   UNL     1       6.620   5.141  19.546  0.00  0.00    +0.000 NA
ATOM     23  N   UNL     1       5.394   5.515  19.786  0.00  0.00    +0.000 NA
ATOM     24  C   UNL     1       4.767   5.791  18.579  0.00  0.00    +0.000 A 
BRANCH  20  26
ATOM     25  C   UNL     1       5.179   6.321  15.318  0.00  0.00    +0.000 C 
ATOM     26  C   UNL     1       5.590   5.054  16.138  0.00  0.00    +0.000 C 
ATOM     27  C   UNL     1       4.506   3.998  15.832  0.00  0.00    +0.000 C 
ATOM     28  C   UNL     1       6.976   4.660  15.637  0.00  0.00    +0.000 C 
ENDBRANCH  20  26
ENDBRANCH   1  24
TORSDOF 5
ENDMDL
MODEL 5
REMARK VINA RESULT:      -6.8      2.607      4.719
REMARK  Name = 
REMARK  8 active torsions:
REMARK  status: ('A' for Active; 'I' for Inactive)
REMARK    1  A    between atoms: C_1  and  C_2
REMARK    2  A    between atoms: C_2  and  C_3
REMARK    3  A    between atoms: C_2  and  C_4
REMARK    4  A    between atoms: C_2  and  N_5
REMARK    5  A    between atoms: C_9  and  C_10
REMARK    6  A    between atoms: C_10  and  C_11
REMARK    7  A    between atoms: C_10  and  N_18
REMARK    8  A    between atoms: N_21  and  C_22
REMARK                            x       y       z     vdW  Elec       q    Type
REMARK                         _______ _______ _______ _____ _____    ______ ____
ROOT
ATOM      1  C   UNL     1       3.603   6.027  19.371  0.00  0.00    +0.000 C 
ENDROOT
BRANCH   1   2
ATOM      2  C   UNL     1       4.637   5.474  18.307  0.00  0.00    +0.000 A 
ATOM      3  C   UNL     1       4.362   5.375  16.902  0.00  0.00    +0.000 A 
ATOM      4  C   UNL     1       5.313   5.027  15.957  0.00  0.00    +0.000 A 
ATOM      5  C   UNL     1       6.602   4.693  16.339  0.00  0.00    +0.000 A 
ATOM      6  C   UNL     1       6.937   4.722  17.699  0.00  0.00    +0.000 A 
ATOM      7  C   UNL     1       5.983   5.112  18.689  0.00  0.00    +0.000 A 
ATOM      8  F   UNL     1       6.381   5.144  19.972  0.00  0.00    +0.000 F 
ENDBRANCH   1   2
BRANCH   1   9
ATOM      9  N   UNL     1       2.577   6.924  18.591  0.00  0.00    +0.000 NA
ATOM     10  C   UNL     1       1.327   7.053  19.258  0.00  0.00    +0.000 C 
ATOM     11  C   UNL     1       1.370   8.284  20.150  0.00  0.00    +0.000 C 
ATOM     12  N   UNL     1       1.176   9.524  19.434  0.00  0.00    +0.000 NA
ATOM     13  C   UNL     1       2.347   9.620  18.428  0.00  0.00    +0.000 C 
ATOM     14  C   UNL     1       2.591   8.184  17.688  0.00  0.00    +0.000 C 
BRANCH  12  15
ATOM     15  C   UNL     1       0.573  10.596  20.377  0.00  0.00    +0.000 C 
ATOM     16  C   UNL     1      -0.792  11.184  19.934  0.00  0.00    +0.000 C 
ATOM     17  C   UNL     1      -1.168  12.216  21.003  0.00  0.00    +0.000 C 
ATOM     18  C   UNL     1      -0.639  11.564  22.308  0.00  0.00    +0.000 C 
ATOM     19  C   UNL     1       0.228  10.340  21.863  0.00  0.00    +0.000 C 
ENDBRANCH  12  15
ENDBRANCH   1   9
BRANCH   1  24
ATOM     20  N   UNL     1       2.485   3.523  19.701  0.00  0.00    +0.000 N 
ATOM     21  N   UNL     1       2.077   2.897  20.807  0.00  0.00    +0.000 NA
ATOM     22  N   UNL     1       2.296   3.642  21.872  0.00  0.00    +0.000 NA
ATOM     23  N   UNL     1       2.799   4.782  21.490  0.00  0.00    +0.000 NA
ATOM     24  C   UNL     1       3.028   4.733  20.122  0.00  0.00    +0.000 A 
BRANCH  20  26
ATOM     25  C   UNL     1       0.877   1.920  18.647  0.00  0.00    +0.000 C 
ATOM     26  C   UNL     1       2.016   2.960  18.388  0.00  0.00    +0.000 C 
ATOM     27  C   UNL     1       3.115   2.185  17.629  0.00  0.00    +0.000 C 
ATOM     28  C   UNL     1       1.385   4.078  17.562  0.00  0.00    +0.000 C 
ENDBRANCH  20  26
ENDBRANCH   1  24
TORSDOF 5
ENDMDL
MODEL 6
REMARK VINA RESULT:      -6.8      2.325      4.619
REMARK  Name = 
REMARK  8 active torsions:
REMARK  status: ('A' for Active; 'I' for Inactive)
REMARK    1  A    between atoms: C_1  and  C_2
REMARK    2  A    between atoms: C_2  and  C_3
REMARK    3  A    between atoms: C_2  and  C_4
REMARK    4  A    between atoms: C_2  and  N_5
REMARK    5  A    between atoms: C_9  and  C_10
REMARK    6  A    between atoms: C_10  and  C_11
REMARK    7  A    between atoms: C_10  and  N_18
REMARK    8  A    between atoms: N_21  and  C_22
REMARK                            x       y       z     vdW  Elec       q    Type
REMARK                         _______ _______ _______ _____ _____    ______ ____
ROOT
ATOM      1  C   UNL     1       4.145   5.609  19.173  0.00  0.00    +0.000 C 
ENDROOT
BRANCH   1   2
ATOM      2  C   UNL     1       5.202   5.863  18.022  0.00  0.00    +0.000 A 
ATOM      3  C   UNL     1       6.393   6.645  18.189  0.00  0.00    +0.000 A 
ATOM      4  C   UNL     1       7.384   6.748  17.227  0.00  0.00    +0.000 A 
ATOM      5  C   UNL     1       7.245   6.125  15.997  0.00  0.00    +0.000 A 
ATOM      6  C   UNL     1       6.088   5.378  15.740  0.00  0.00    +0.000 A 
ATOM      7  C   UNL     1       5.067   5.229  16.730  0.00  0.00    +0.000 A 
ATOM      8  F   UNL     1       3.997   4.476  16.425  0.00  0.00    +0.000 F 
ENDBRANCH   1   2
BRANCH   1   9
ATOM      9  N   UNL     1       2.806   6.296  18.727  0.00  0.00    +0.000 NA
ATOM     10  C   UNL     1       1.798   6.261  19.729  0.00  0.00    +0.000 C 
ATOM     11  C   UNL     1       1.893   7.525  20.568  0.00  0.00    +0.000 C 
ATOM     12  N   UNL     1       1.302   8.683  19.939  0.00  0.00    +0.000 NA
ATOM     13  C   UNL     1       2.101   8.912  18.635  0.00  0.00    +0.000 C 
ATOM     14  C   UNL     1       2.353   7.497  17.857  0.00  0.00    +0.000 C 
BRANCH  12  15
ATOM     15  C   UNL     1       0.829   9.693  21.016  0.00  0.00    +0.000 C 
ATOM     16  C   UNL     1      -0.068  10.849  20.501  0.00  0.00    +0.000 C 
ATOM     17  C   UNL     1      -0.389  11.707  21.729  0.00  0.00    +0.000 C 
ATOM     18  C   UNL     1      -0.521  10.651  22.858  0.00  0.00    +0.000 C 
ATOM     19  C   UNL     1      -0.011   9.301  22.254  0.00  0.00    +0.000 C 
ENDBRANCH  12  15
ENDBRANCH   1   9
BRANCH   1  24
ATOM     20  N   UNL     1       3.156   3.031  19.240  0.00  0.00    +0.000 N 
ATOM     21  N   UNL     1       3.708   1.904  19.695  0.00  0.00    +0.000 NA
ATOM     22  N   UNL     1       4.926   2.131  20.145  0.00  0.00    +0.000 NA
ATOM     23  N   UNL     1       5.180   3.406  20.046  0.00  0.00    +0.000 NA
ATOM     24  C   UNL     1       4.122   4.022  19.391  0.00  0.00    +0.000 A 
BRANCH  20  26
ATOM     25  C   UNL     1       1.205   1.539  18.757  0.00  0.00    +0.000 C 
ATOM     26  C   UNL     1       1.672   3.012  18.998  0.00  0.00    +0.000 C 
ATOM     27  C   UNL     1       1.250   3.789  17.732  0.00  0.00    +0.000 C 
ATOM     28  C   UNL     1       0.954   3.479  20.261  0.00  0.00    +0.000 C 
ENDBRANCH  20  26
ENDBRANCH   1  24
TORSDOF 5
ENDMDL
MODEL 7
REMARK VINA RESULT:      -6.7      2.063      2.841
REMARK  Name = 
REMARK  8 active torsions:
REMARK  status: ('A' for Active; 'I' for Inactive)
REMARK    1  A    between atoms: C_1  and  C_2
REMARK    2  A    between atoms: C_2  and  C_3
REMARK    3  A    between atoms: C_2  and  C_4
REMARK    4  A    between atoms: C_2  and  N_5
REMARK    5  A    between atoms: C_9  and  C_10
REMARK    6  A    between atoms: C_10  and  C_11
REMARK    7  A    between atoms: C_10  and  N_18
REMARK    8  A    between atoms: N_21  and  C_22
REMARK                            x       y       z     vdW  Elec       q    Type
REMARK                         _______ _______ _______ _____ _____    ______ ____
ROOT
ATOM      1  C   UNL     1       3.117   6.280  18.401  0.00  0.00    +0.000 C 
ENDROOT
BRANCH   1   2
ATOM      2  C   UNL     1       2.186   5.095  18.885  0.00  0.00    +0.000 A 
ATOM      3  C   UNL     1       1.501   4.201  17.994  0.00  0.00    +0.000 A 
ATOM      4  C   UNL     1       0.804   3.082  18.417  0.00  0.00    +0.000 A 
ATOM      5  C   UNL     1       0.683   2.791  19.766  0.00  0.00    +0.000 A 
ATOM      6  C   UNL     1       1.287   3.640  20.702  0.00  0.00    +0.000 A 
ATOM      7  C   UNL     1       2.041   4.782  20.288  0.00  0.00    +0.000 A 
ATOM      8  F   UNL     1       2.615   5.538  21.239  0.00  0.00    +0.000 F 
ENDBRANCH   1   2
BRANCH   1   9
ATOM      9  N   UNL     1       2.732   7.543  19.250  0.00  0.00    +0.000 NA
ATOM     10  C   UNL     1       2.773   8.753  18.504  0.00  0.00    +0.000 C 
ATOM     11  C   UNL     1       1.396   9.017  17.917  0.00  0.00    +0.000 C 
ATOM     12  N   UNL     1       0.459   9.572  18.866  0.00  0.00    +0.000 NA
ATOM     13  C   UNL     1       0.309   8.513  19.983  0.00  0.00    +0.000 C 
ATOM     14  C   UNL     1       1.768   7.912  20.407  0.00  0.00    +0.000 C 
BRANCH  12  15
ATOM     15  C   UNL     1      -0.615  10.411  18.128  0.00  0.00    +0.000 C 
ATOM     16  C   UNL     1      -1.551   9.614  17.181  0.00  0.00    +0.000 C 
ATOM     17  C   UNL     1      -2.501  10.648  16.568  0.00  0.00    +0.000 C 
ATOM     18  C   UNL     1      -2.731  11.638  17.740  0.00  0.00    +0.000 C 
ATOM     19  C   UNL     1      -1.697  11.250  18.848  0.00  0.00    +0.000 C 
ENDBRANCH  12  15
ENDBRANCH   1   9
BRANCH   1  24
ATOM     20  N   UNL     1       5.598   5.338  17.632  0.00  0.00    +0.000 N 
ATOM     21  N   UNL     1       6.606   4.858  18.363  0.00  0.00    +0.000 NA
ATOM     22  N   UNL     1       6.307   4.892  19.647  0.00  0.00    +0.000 NA
ATOM     23  N   UNL     1       5.091   5.342  19.783  0.00  0.00    +0.000 NA
ATOM     24  C   UNL     1       4.616   5.729  18.538  0.00  0.00    +0.000 A 
BRANCH  20  26
ATOM     25  C   UNL     1       7.110   4.733  15.731  0.00  0.00    +0.000 C 
ATOM     26  C   UNL     1       5.642   5.069  16.153  0.00  0.00    +0.000 C 
ATOM     27  C   UNL     1       5.239   6.290  15.298  0.00  0.00    +0.000 C 
ATOM     28  C   UNL     1       4.820   3.820  15.847  0.00  0.00    +0.000 C 
ENDBRANCH  20  26
ENDBRANCH   1  24
TORSDOF 5
ENDMDL
MODEL 8
REMARK VINA RESULT:      -6.7      1.995      6.291
REMARK  Name = 
REMARK  8 active torsions:
REMARK  status: ('A' for Active; 'I' for Inactive)
REMARK    1  A    between atoms: C_1  and  C_2
REMARK    2  A    between atoms: C_2  and  C_3
REMARK    3  A    between atoms: C_2  and  C_4
REMARK    4  A    between atoms: C_2  and  N_5
REMARK    5  A    between atoms: C_9  and  C_10
REMARK    6  A    between atoms: C_10  and  C_11
REMARK    7  A    between atoms: C_10  and  N_18
REMARK    8  A    between atoms: N_21  and  C_22
REMARK                            x       y       z     vdW  Elec       q    Type
REMARK                         _______ _______ _______ _____ _____    ______ ____
ROOT
ATOM      1  C   UNL     1       3.462   5.774  20.002  0.00  0.00    +0.000 C 
ENDROOT
BRANCH   1   2
ATOM      2  C   UNL     1       2.405   4.639  19.686  0.00  0.00    +0.000 A 
ATOM      3  C   UNL     1       1.836   4.414  18.388  0.00  0.00    +0.000 A 
ATOM      4  C   UNL     1       1.022   3.336  18.083  0.00  0.00    +0.000 A 
ATOM      5  C   UNL     1       0.662   2.422  19.060  0.00  0.00    +0.000 A 
ATOM      6  C   UNL     1       1.141   2.596  20.364  0.00  0.00    +0.000 A 
ATOM      7  C   UNL     1       2.009   3.682  20.695  0.00  0.00    +0.000 A 
ATOM      8  F   UNL     1       2.453   3.773  21.961  0.00  0.00    +0.000 F 
ENDBRANCH   1   2
BRANCH   1   9
ATOM      9  N   UNL     1       4.882   5.175  19.703  0.00  0.00    +0.000 NA
ATOM     10  C   UNL     1       4.832   3.944  18.991  0.00  0.00    +0.000 C 
ATOM     11  C   UNL     1       4.899   4.236  17.500  0.00  0.00    +0.000 C 
ATOM     12  N   UNL     1       6.233   4.518  17.025  0.00  0.00    +0.000 NA
ATOM     13  C   UNL     1       6.694   5.785  17.781  0.00  0.00    +0.000 C 
ATOM     14  C   UNL     1       6.307   5.683  19.366  0.00  0.00    +0.000 C 
BRANCH  12  15
ATOM     15  C   UNL     1       6.356   4.144  15.525  0.00  0.00    +0.000 C 
ATOM     16  C   UNL     1       5.045   4.242  14.702  0.00  0.00    +0.000 C 
ATOM     17  C   UNL     1       5.415   3.816  13.277  0.00  0.00    +0.000 C 
ATOM     18  C   UNL     1       6.847   4.391  13.110  0.00  0.00    +0.000 C 
ATOM     19  C   UNL     1       7.292   4.871  14.531  0.00  0.00    +0.000 C 
ENDBRANCH  12  15
ENDBRANCH   1   9
BRANCH   1  24
ATOM     20  N   UNL     1       2.155   8.123  19.363  0.00  0.00    +0.000 N 
ATOM     21  N   UNL     1       2.083   8.786  18.207  0.00  0.00    +0.000 NA
ATOM     22  N   UNL     1       2.792   8.178  17.277  0.00  0.00    +0.000 NA
ATOM     23  N   UNL     1       3.297   7.086  17.779  0.00  0.00    +0.000 NA
ATOM     24  C   UNL     1       3.001   7.041  19.135  0.00  0.00    +0.000 A 
BRANCH  20  26
ATOM     25  C   UNL     1       1.911   9.033  21.682  0.00  0.00    +0.000 C 
ATOM     26  C   UNL     1       1.155   8.494  20.424  0.00  0.00    +0.000 C 
ATOM     27  C   UNL     1       0.326   7.293  20.928  0.00  0.00    +0.000 C 
ATOM     28  C   UNL     1       0.298   9.651  19.919  0.00  0.00    +0.000 C 
ENDBRANCH  20  26
ENDBRANCH   1  24
TORSDOF 5
ENDMDL
MODEL 9
REMARK VINA RESULT:      -6.5      1.442      1.627
REMARK  Name = 
REMARK  8 active torsions:
REMARK  status: ('A' for Active; 'I' for Inactive)
REMARK    1  A    between atoms: C_1  and  C_2
REMARK    2  A    between atoms: C_2  and  C_3
REMARK    3  A    between atoms: C_2  and  C_4
REMARK    4  A    between atoms: C_2  and  N_5
REMARK    5  A    between atoms: C_9  and  C_10
REMARK    6  A    between atoms: C_10  and  C_11
REMARK    7  A    between atoms: C_10  and  N_18
REMARK    8  A    between atoms: N_21  and  C_22
REMARK                            x       y       z     vdW  Elec       q    Type
REMARK                         _______ _______ _______ _____ _____    ______ ____
ROOT
ATOM      1  C   UNL     1       2.764   5.405  17.954  0.00  0.00    +0.000 C 
ENDROOT
BRANCH   1   2
ATOM      2  C   UNL     1       2.327   4.386  19.084  0.00  0.00    +0.000 A 
ATOM      3  C   UNL     1       2.884   4.373  20.407  0.00  0.00    +0.000 A 
ATOM      4  C   UNL     1       2.402   3.579  21.434  0.00  0.00    +0.000 A 
ATOM      5  C   UNL     1       1.363   2.690  21.214  0.00  0.00    +0.000 A 
ATOM      6  C   UNL     1       0.794   2.612  19.936  0.00  0.00    +0.000 A 
ATOM      7  C   UNL     1       1.251   3.446  18.869  0.00  0.00    +0.000 A 
ATOM      8  F   UNL     1       0.641   3.337  17.677  0.00  0.00    +0.000 F 
ENDBRANCH   1   2
BRANCH   1   9
ATOM      9  N   UNL     1       3.052   6.777  18.658  0.00  0.00    +0.000 NA
ATOM     10  C   UNL     1       2.996   7.886  17.769  0.00  0.00    +0.000 C 
ATOM     11  C   UNL     1       1.584   8.448  17.770  0.00  0.00    +0.000 C 
ATOM     12  N   UNL     1       1.294   9.283  18.913  0.00  0.00    +0.000 NA
ATOM     13  C   UNL     1       1.449   8.373  20.154  0.00  0.00    +0.000 C 
ATOM     14  C   UNL     1       2.794   7.453  20.030  0.00  0.00    +0.000 C 
BRANCH  12  15
ATOM     15  C   UNL     1       0.193  10.313  18.557  0.00  0.00    +0.000 C 
ATOM     16  C   UNL     1      -0.961   9.779  17.669  0.00  0.00    +0.000 C 
ATOM     17  C   UNL     1      -1.901  10.968  17.445  0.00  0.00    +0.000 C 
ATOM     18  C   UNL     1      -1.834  11.716  18.803  0.00  0.00    +0.000 C 
ATOM     19  C   UNL     1      -0.667  11.054  19.608  0.00  0.00    +0.000 C 
ENDBRANCH  12  15
ENDBRANCH   1   9
BRANCH   1  24
ATOM     20  N   UNL     1       5.367   4.719  17.334  0.00  0.00    +0.000 N 
ATOM     21  N   UNL     1       5.856   4.013  16.313  0.00  0.00    +0.000 NA
ATOM     22  N   UNL     1       4.883   3.588  15.532  0.00  0.00    +0.000 NA
ATOM     23  N   UNL     1       3.750   4.044  15.988  0.00  0.00    +0.000 NA
ATOM     24  C   UNL     1       3.983   4.699  17.189  0.00  0.00    +0.000 A 
BRANCH  20  26
ATOM     25  C   UNL     1       7.778   4.925  17.978  0.00  0.00    +0.000 C 
ATOM     26  C   UNL     1       6.348   5.541  18.125  0.00  0.00    +0.000 C 
ATOM     27  C   UNL     1       6.057   5.547  19.641  0.00  0.00    +0.000 C 
ATOM     28  C   UNL     1       6.429   6.940  17.520  0.00  0.00    +0.000 C 
ENDBRANCH  20  26
ENDBRANCH   1  24
TORSDOF 5
ENDMDL
