MODEL 1
REMARK VINA RESULT:      -7.8      0.000      0.000
REMARK  Name = 
REMARK  3 active torsions:
REMARK  status: ('A' for Active; 'I' for Inactive)
REMARK    1  A    between atoms: S_2  and  C_4
REMARK    2  A    between atoms: S_2  and  C_12
REMARK    3  A    between atoms: C_22  and  N_23
REMARK                            x       y       z     vdW  Elec       q    Type
REMARK                         _______ _______ _______ _____ _____    ______ ____
ROOT
ATOM      1  C   UNL     1       3.501   5.551  18.166  0.00  0.00    +0.000 A 
ATOM      2  C   UNL     1       3.885   6.643  17.404  0.00  0.00    +0.000 A 
ATOM      3  N   UNL     1       3.416   7.890  17.575  0.00  0.00    +0.000 NA
ATOM      4  C   UNL     1       2.506   8.098  18.522  0.00  0.00    +0.000 A 
ATOM      5  C   UNL     1       2.083   9.414  18.639  0.00  0.00    +0.000 A 
ATOM      6  C   UNL     1       1.141   9.786  19.583  0.00  0.00    +0.000 A 
ATOM      7  F   UNL     1       0.766  11.066  19.682  0.00  0.00    +0.000 F 
ATOM      8  C   UNL     1       0.576   8.839  20.402  0.00  0.00    +0.000 A 
ATOM      9  C   UNL     1       0.970   7.502  20.265  0.00  0.00    +0.000 A 
ATOM     10  C   UNL     1       1.986   7.066  19.359  0.00  0.00    +0.000 A 
ATOM     11  C   UNL     1       2.517   5.707  19.189  0.00  0.00    +0.000 A 
ENDROOT
BRANCH  11  12
ATOM     12  N   UNL     1       2.129   4.639  20.012  0.00  0.00    +0.000 N 
ATOM     13  C   UNL     1       2.583   4.442  21.409  0.00  0.00    +0.000 C 
ATOM     14  C   UNL     1       2.646   2.948  21.776  0.00  0.00    +0.000 C 
ATOM     15  O   UNL     1       1.415   2.263  21.508  0.00  0.00    +0.000 OA
ATOM     16  C   UNL     1       1.072   2.416  20.119  0.00  0.00    +0.000 C 
ATOM     17  C   UNL     1       0.852   3.907  19.799  0.00  0.00    +0.000 C 
ENDBRANCH  11  12
BRANCH   1  19
ATOM     18  O   UNL     1       3.383   3.093  17.364  0.00  0.00    +0.000 OA
ATOM     19  S   UNL     1       4.380   4.057  17.794  0.00  0.00    +0.000 S 
ATOM     20  O   UNL     1       5.270   3.751  18.899  0.00  0.00    +0.000 OA
BRANCH  19  21
ATOM     21  C   UNL     1       5.491   4.224  16.401  0.00  0.00    +0.000 A 
ATOM     22  C   UNL     1       6.678   4.952  16.551  0.00  0.00    +0.000 A 
ATOM     23  C   UNL     1       7.453   5.244  15.427  0.00  0.00    +0.000 A 
ATOM     24  C   UNL     1       7.041   4.823  14.158  0.00  0.00    +0.000 A 
ATOM     25 CL   UNL     1       8.035   5.251  12.811  0.00  0.00    +0.000 Cl
ATOM     26  C   UNL     1       5.852   4.099  14.017  0.00  0.00    +0.000 A 
ATOM     27 CL   UNL     1       5.265   3.579  12.474  0.00  0.00    +0.000 Cl
ATOM     28  C   UNL     1       5.069   3.798  15.137  0.00  0.00    +0.000 A 
ENDBRANCH  19  21
ENDBRANCH   1  19
TORSDOF 3
ENDMDL
MODEL 2
REMARK VINA RESULT:      -6.9      6.256      8.510
REMARK  Name = 
REMARK  3 active torsions:
REMARK  status: ('A' for Active; 'I' for Inactive)
REMARK    1  A    between atoms: S_2  and  C_4
REMARK    2  A    between atoms: S_2  and  C_12
REMARK    3  A    between atoms: C_22  and  N_23
REMARK                            x       y       z     vdW  Elec       q    Type
REMARK                         _______ _______ _______ _____ _____    ______ ____
ROOT
ATOM      1  C   UNL     1      -1.008  11.236  19.471  0.00  0.00    +0.000 A 
ATOM      2  C   UNL     1      -1.371  10.338  18.480  0.00  0.00    +0.000 A 
ATOM      3  N   UNL     1      -2.591  10.278  17.920  0.00  0.00    +0.000 NA
ATOM      4  C   UNL     1      -3.526  11.119  18.353  0.00  0.00    +0.000 A 
ATOM      5  C   UNL     1      -4.753  10.998  17.716  0.00  0.00    +0.000 A 
ATOM      6  C   UNL     1      -5.823  11.807  18.056  0.00  0.00    +0.000 A 
ATOM      7  F   UNL     1      -6.988  11.679  17.412  0.00  0.00    +0.000 F 
ATOM      8  C   UNL     1      -5.696  12.727  19.069  0.00  0.00    +0.000 A 
ATOM      9  C   UNL     1      -4.473  12.830  19.743  0.00  0.00    +0.000 A 
ATOM     10  C   UNL     1      -3.311  12.072  19.392  0.00  0.00    +0.000 A 
ATOM     11  C   UNL     1      -1.971  12.154  19.987  0.00  0.00    +0.000 A 
ENDROOT
BRANCH  11  12
ATOM     12  N   UNL     1      -1.636  13.109  20.960  0.00  0.00    +0.000 N 
ATOM     13  C   UNL     1      -1.127  14.469  20.667  0.00  0.00    +0.000 C 
ATOM     14  C   UNL     1      -0.186  14.970  21.778  0.00  0.00    +0.000 C 
ATOM     15  O   UNL     1      -0.778  14.887  23.081  0.00  0.00    +0.000 OA
ATOM     16  C   UNL     1      -1.172  13.528  23.343  0.00  0.00    +0.000 C 
ATOM     17  C   UNL     1      -2.237  13.088  22.320  0.00  0.00    +0.000 C 
ENDBRANCH  11  12
BRANCH   1  19
ATOM     18  O   UNL     1       0.737  11.116  21.379  0.00  0.00    +0.000 OA
ATOM     19  S   UNL     1       0.704  11.164  19.928  0.00  0.00    +0.000 S 
ATOM     20  O   UNL     1       1.424  12.198  19.210  0.00  0.00    +0.000 OA
BRANCH  19  21
ATOM     21  C   UNL     1       1.508   9.655  19.399  0.00  0.00    +0.000 A 
ATOM     22  C   UNL     1       2.021   9.569  18.098  0.00  0.00    +0.000 A 
ATOM     23  C   UNL     1       2.480   8.340  17.619  0.00  0.00    +0.000 A 
ATOM     24  C   UNL     1       2.416   7.200  18.428  0.00  0.00    +0.000 A 
ATOM     25 CL   UNL     1       2.970   5.709  17.755  0.00  0.00    +0.000 Cl
ATOM     26  C   UNL     1       1.899   7.295  19.726  0.00  0.00    +0.000 A 
ATOM     27 CL   UNL     1       1.758   5.920  20.766  0.00  0.00    +0.000 Cl
ATOM     28  C   UNL     1       1.440   8.522  20.216  0.00  0.00    +0.000 A 
ENDBRANCH  19  21
ENDBRANCH   1  19
TORSDOF 3
ENDMDL
MODEL 3
REMARK VINA RESULT:      -6.8      0.559      1.060
REMARK  Name = 
REMARK  3 active torsions:
REMARK  status: ('A' for Active; 'I' for Inactive)
REMARK    1  A    between atoms: S_2  and  C_4
REMARK    2  A    between atoms: S_2  and  C_12
REMARK    3  A    between atoms: C_22  and  N_23
REMARK                            x       y       z     vdW  Elec       q    Type
REMARK                         _______ _______ _______ _____ _____    ______ ____
ROOT
ATOM      1  C   UNL     1       3.823   5.600  17.845  0.00  0.00    +0.000 A 
ATOM      2  C   UNL     1       4.233   6.707  17.119  0.00  0.00    +0.000 A 
ATOM      3  N   UNL     1       3.737   7.946  17.278  0.00  0.00    +0.000 NA
ATOM      4  C   UNL     1       2.772   8.129  18.175  0.00  0.00    +0.000 A 
ATOM      5  C   UNL     1       2.323   9.437  18.282  0.00  0.00    +0.000 A 
ATOM      6  C   UNL     1       1.324   9.784  19.176  0.00  0.00    +0.000 A 
ATOM      7  F   UNL     1       0.925  11.057  19.269  0.00  0.00    +0.000 F 
ATOM      8  C   UNL     1       0.727   8.818  19.949  0.00  0.00    +0.000 A 
ATOM      9  C   UNL     1       1.148   7.489  19.820  0.00  0.00    +0.000 A 
ATOM     10  C   UNL     1       2.221   7.079  18.967  0.00  0.00    +0.000 A 
ATOM     11  C   UNL     1       2.780   5.730  18.811  0.00  0.00    +0.000 A 
ENDROOT
BRANCH  11  12
ATOM     12  N   UNL     1       2.362   4.645  19.598  0.00  0.00    +0.000 N 
ATOM     13  C   UNL     1       1.383   3.619  19.169  0.00  0.00    +0.000 C 
ATOM     14  C   UNL     1       0.586   3.065  20.364  0.00  0.00    +0.000 C 
ATOM     15  O   UNL     1       1.433   2.592  21.419  0.00  0.00    +0.000 OA
ATOM     16  C   UNL     1       2.299   3.657  21.854  0.00  0.00    +0.000 C 
ATOM     17  C   UNL     1       3.209   4.095  20.690  0.00  0.00    +0.000 C 
ENDBRANCH  11  12
BRANCH   1  19
ATOM     18  O   UNL     1       3.765   3.083  17.245  0.00  0.00    +0.000 OA
ATOM     19  S   UNL     1       4.743   4.123  17.506  0.00  0.00    +0.000 S 
ATOM     20  O   UNL     1       5.745   3.949  18.541  0.00  0.00    +0.000 OA
BRANCH  19  21
ATOM     21  C   UNL     1       5.713   4.230  16.005  0.00  0.00    +0.000 A 
ATOM     22  C   UNL     1       6.900   4.973  16.004  0.00  0.00    +0.000 A 
ATOM     23  C   UNL     1       7.561   5.215  14.798  0.00  0.00    +0.000 A 
ATOM     24  C   UNL     1       7.034   4.729  13.597  0.00  0.00    +0.000 A 
ATOM     25 CL   UNL     1       7.888   5.097  12.141  0.00  0.00    +0.000 Cl
ATOM     26  C   UNL     1       5.845   3.990  13.606  0.00  0.00    +0.000 A 
ATOM     27 CL   UNL     1       5.119   3.391  12.155  0.00  0.00    +0.000 Cl
ATOM     28  C   UNL     1       5.177   3.739  14.810  0.00  0.00    +0.000 A 
ENDBRANCH  19  21
ENDBRANCH   1  19
TORSDOF 3
ENDMDL
MODEL 4
REMARK VINA RESULT:      -6.7      7.222      9.633
REMARK  Name = 
REMARK  3 active torsions:
REMARK  status: ('A' for Active; 'I' for Inactive)
REMARK    1  A    between atoms: S_2  and  C_4
REMARK    2  A    between atoms: S_2  and  C_12
REMARK    3  A    between atoms: C_22  and  N_23
REMARK                            x       y       z     vdW  Elec       q    Type
REMARK                         _______ _______ _______ _____ _____    ______ ____
ROOT
ATOM      1  C   UNL     1      -2.298  12.919  19.827  0.00  0.00    +0.000 A 
ATOM      2  C   UNL     1      -2.408  13.668  20.987  0.00  0.00    +0.000 A 
ATOM      3  N   UNL     1      -3.515  13.735  21.746  0.00  0.00    +0.000 NA
ATOM      4  C   UNL     1      -4.591  13.058  21.354  0.00  0.00    +0.000 A 
ATOM      5  C   UNL     1      -5.686  13.173  22.197  0.00  0.00    +0.000 A 
ATOM      6  C   UNL     1      -6.876  12.522  21.924  0.00  0.00    +0.000 A 
ATOM      7  F   UNL     1      -7.910  12.639  22.766  0.00  0.00    +0.000 F 
ATOM      8  C   UNL     1      -7.005  11.776  20.778  0.00  0.00    +0.000 A 
ATOM      9  C   UNL     1      -5.917  11.685  19.901  0.00  0.00    +0.000 A 
ATOM     10  C   UNL     1      -4.640  12.275  20.162  0.00  0.00    +0.000 A 
ATOM     11  C   UNL     1      -3.423  12.182  19.346  0.00  0.00    +0.000 A 
ENDROOT
BRANCH  11  12
ATOM     12  N   UNL     1      -3.345  11.377  18.199  0.00  0.00    +0.000 N 
ATOM     13  C   UNL     1      -2.823   9.990  18.175  0.00  0.00    +0.000 C 
ATOM     14  C   UNL     1      -2.173   9.656  16.821  0.00  0.00    +0.000 C 
ATOM     15  O   UNL     1      -3.041   9.923  15.712  0.00  0.00    +0.000 OA
ATOM     16  C   UNL     1      -3.442  11.305  15.739  0.00  0.00    +0.000 C 
ATOM     17  C   UNL     1      -4.236  11.591  17.028  0.00  0.00    +0.000 C 
ENDBRANCH  11  12
BRANCH   1  19
ATOM     18  O   UNL     1       0.060  13.983  19.768  0.00  0.00    +0.000 OA
ATOM     19  S   UNL     1      -0.679  12.924  19.106  0.00  0.00    +0.000 S 
ATOM     20  O   UNL     1      -0.811  12.912  17.661  0.00  0.00    +0.000 OA
BRANCH  19  21
ATOM     21  C   UNL     1       0.247  11.431  19.449  0.00  0.00    +0.000 A 
ATOM     22  C   UNL     1       0.833  10.726  18.391  0.00  0.00    +0.000 A 
ATOM     23  C   UNL     1       1.393   9.469  18.627  0.00  0.00    +0.000 A 
ATOM     24  C   UNL     1       1.359   8.913  19.911  0.00  0.00    +0.000 A 
ATOM     25 CL   UNL     1       2.042   7.340  20.120  0.00  0.00    +0.000 Cl
ATOM     26  C   UNL     1       0.769   9.623  20.963  0.00  0.00    +0.000 A 
ATOM     27 CL   UNL     1       0.660   8.980  22.565  0.00  0.00    +0.000 Cl
ATOM     28  C   UNL     1       0.208  10.885  20.737  0.00  0.00    +0.000 A 
ENDBRANCH  19  21
ENDBRANCH   1  19
TORSDOF 3
ENDMDL
MODEL 5
REMARK VINA RESULT:      -6.7      6.299      8.640
REMARK  Name = 
REMARK  3 active torsions:
REMARK  status: ('A' for Active; 'I' for Inactive)
REMARK    1  A    between atoms: S_2  and  C_4
REMARK    2  A    between atoms: S_2  and  C_12
REMARK    3  A    between atoms: C_22  and  N_23
REMARK                            x       y       z     vdW  Elec       q    Type
REMARK                         _______ _______ _______ _____ _____    ______ ____
ROOT
ATOM      1  C   UNL     1      -1.269  11.250  19.420  0.00  0.00    +0.000 A 
ATOM      2  C   UNL     1      -1.674  10.383  18.418  0.00  0.00    +0.000 A 
ATOM      3  N   UNL     1      -2.898  10.380  17.865  0.00  0.00    +0.000 NA
ATOM      4  C   UNL     1      -3.797  11.250  18.318  0.00  0.00    +0.000 A 
ATOM      5  C   UNL     1      -5.031  11.187  17.688  0.00  0.00    +0.000 A 
ATOM      6  C   UNL     1      -6.066  12.032  18.047  0.00  0.00    +0.000 A 
ATOM      7  F   UNL     1      -7.240  11.960  17.409  0.00  0.00    +0.000 F 
ATOM      8  C   UNL     1      -5.897  12.930  19.074  0.00  0.00    +0.000 A 
ATOM      9  C   UNL     1      -4.667  12.974  19.741  0.00  0.00    +0.000 A 
ATOM     10  C   UNL     1      -3.538  12.177  19.371  0.00  0.00    +0.000 A 
ATOM     11  C   UNL     1      -2.192  12.197  19.958  0.00  0.00    +0.000 A 
ENDROOT
BRANCH  11  12
ATOM     12  N   UNL     1      -1.813  13.122  20.943  0.00  0.00    +0.000 N 
ATOM     13  C   UNL     1      -1.272  14.473  20.668  0.00  0.00    +0.000 C 
ATOM     14  C   UNL     1      -0.298  14.925  21.771  0.00  0.00    +0.000 C 
ATOM     15  O   UNL     1      -0.870  14.832  23.083  0.00  0.00    +0.000 OA
ATOM     16  C   UNL     1      -1.296  13.479  23.325  0.00  0.00    +0.000 C 
ATOM     17  C   UNL     1      -2.391  13.089  22.313  0.00  0.00    +0.000 C 
ENDBRANCH  11  12
BRANCH   1  19
ATOM     18  O   UNL     1       0.526  11.433  21.276  0.00  0.00    +0.000 OA
ATOM     19  S   UNL     1       0.441  11.103  19.865  0.00  0.00    +0.000 S 
ATOM     20  O   UNL     1       1.241  11.824  18.891  0.00  0.00    +0.000 OA
BRANCH  19  21
ATOM     21  C   UNL     1       1.056   9.426  19.745  0.00  0.00    +0.000 A 
ATOM     22  C   UNL     1       0.939   8.570  20.847  0.00  0.00    +0.000 A 
ATOM     23  C   UNL     1       1.579   7.329  20.826  0.00  0.00    +0.000 A 
ATOM     24  C   UNL     1       2.342   6.949  19.717  0.00  0.00    +0.000 A 
ATOM     25 CL   UNL     1       3.132   5.414  19.778  0.00  0.00    +0.000 Cl
ATOM     26  C   UNL     1       2.457   7.812  18.621  0.00  0.00    +0.000 A 
ATOM     27 CL   UNL     1       3.413   7.421  17.234  0.00  0.00    +0.000 Cl
ATOM     28  C   UNL     1       1.816   9.056  18.631  0.00  0.00    +0.000 A 
ENDBRANCH  19  21
ENDBRANCH   1  19
TORSDOF 3
ENDMDL
MODEL 6
REMARK VINA RESULT:      -6.6      5.691      7.942
REMARK  Name = 
REMARK  3 active torsions:
REMARK  status: ('A' for Active; 'I' for Inactive)
REMARK    1  A    between atoms: S_2  and  C_4
REMARK    2  A    between atoms: S_2  and  C_12
REMARK    3  A    between atoms: C_22  and  N_23
REMARK                            x       y       z     vdW  Elec       q    Type
REMARK                         _______ _______ _______ _____ _____    ______ ____
ROOT
ATOM      1  C   UNL     1       1.062  11.784  19.483  0.00  0.00    +0.000 A 
ATOM      2  C   UNL     1       2.113  11.681  18.586  0.00  0.00    +0.000 A 
ATOM      3  N   UNL     1       2.738  12.729  18.023  0.00  0.00    +0.000 NA
ATOM      4  C   UNL     1       2.313  13.953  18.325  0.00  0.00    +0.000 A 
ATOM      5  C   UNL     1       3.017  14.978  17.711  0.00  0.00    +0.000 A 
ATOM      6  C   UNL     1       2.693  16.305  17.930  0.00  0.00    +0.000 A 
ATOM      7  F   UNL     1       3.402  17.272  17.336  0.00  0.00    +0.000 F 
ATOM      8  C   UNL     1       1.631  16.630  18.738  0.00  0.00    +0.000 A 
ATOM      9  C   UNL     1       0.891  15.601  19.332  0.00  0.00    +0.000 A 
ATOM     10  C   UNL     1       1.218  14.215  19.201  0.00  0.00    +0.000 A 
ATOM     11  C   UNL     1       0.551  13.070  19.834  0.00  0.00    +0.000 A 
ENDROOT
BRANCH  11  12
ATOM     12  N   UNL     1      -0.484  13.224  20.770  0.00  0.00    +0.000 N 
ATOM     13  C   UNL     1      -0.302  13.712  22.157  0.00  0.00    +0.000 C 
ATOM     14  C   UNL     1      -1.341  13.097  23.112  0.00  0.00    +0.000 C 
ATOM     15  O   UNL     1      -2.686  13.276  22.651  0.00  0.00    +0.000 OA
ATOM     16  C   UNL     1      -2.824  12.704  21.338  0.00  0.00    +0.000 C 
ATOM     17  C   UNL     1      -1.895  13.438  20.351  0.00  0.00    +0.000 C 
ENDBRANCH  11  12
BRANCH   1  19
ATOM     18  O   UNL     1      -0.818  10.013  19.639  0.00  0.00    +0.000 OA
ATOM     19  S   UNL     1       0.521  10.235  20.154  0.00  0.00    +0.000 S 
ATOM     20  O   UNL     1       0.769  10.233  21.583  0.00  0.00    +0.000 OA
BRANCH  19  21
ATOM     21  C   UNL     1       1.479   8.842  19.565  0.00  0.00    +0.000 A 
ATOM     22  C   UNL     1       1.911   8.818  18.233  0.00  0.00    +0.000 A 
ATOM     23  C   UNL     1       2.493   7.658  17.719  0.00  0.00    +0.000 A 
ATOM     24  C   UNL     1       2.633   6.523  18.526  0.00  0.00    +0.000 A 
ATOM     25 CL   UNL     1       3.331   5.114  17.810  0.00  0.00    +0.000 Cl
ATOM     26  C   UNL     1       2.195   6.554  19.855  0.00  0.00    +0.000 A 
ATOM     27 CL   UNL     1       2.304   5.177  20.896  0.00  0.00    +0.000 Cl
ATOM     28  C   UNL     1       1.614   7.713  20.381  0.00  0.00    +0.000 A 
ENDBRANCH  19  21
ENDBRANCH   1  19
TORSDOF 3
ENDMDL
MODEL 7
REMARK VINA RESULT:      -6.5      6.907      9.338
REMARK  Name = 
REMARK  3 active torsions:
REMARK  status: ('A' for Active; 'I' for Inactive)
REMARK    1  A    between atoms: S_2  and  C_4
REMARK    2  A    between atoms: S_2  and  C_12
REMARK    3  A    between atoms: C_22  and  N_23
REMARK                            x       y       z     vdW  Elec       q    Type
REMARK                         _______ _______ _______ _____ _____    ______ ____
ROOT
ATOM      1  C   UNL     1      -2.190  12.650  20.080  0.00  0.00    +0.000 A 
ATOM      2  C   UNL     1      -2.248  13.336  21.283  0.00  0.00    +0.000 A 
ATOM      3  N   UNL     1      -3.369  13.514  22.003  0.00  0.00    +0.000 NA
ATOM      4  C   UNL     1      -4.509  13.022  21.527  0.00  0.00    +0.000 A 
ATOM      5  C   UNL     1      -5.616  13.241  22.334  0.00  0.00    +0.000 A 
ATOM      6  C   UNL     1      -6.872  12.784  21.973  0.00  0.00    +0.000 A 
ATOM      7  F   UNL     1      -7.917  12.996  22.781  0.00  0.00    +0.000 F 
ATOM      8  C   UNL     1      -7.050  12.134  20.776  0.00  0.00    +0.000 A 
ATOM      9  C   UNL     1      -5.945  11.942  19.937  0.00  0.00    +0.000 A 
ATOM     10  C   UNL     1      -4.613  12.328  20.284  0.00  0.00    +0.000 A 
ATOM     11  C   UNL     1      -3.383  12.111  19.510  0.00  0.00    +0.000 A 
ENDROOT
BRANCH  11  12
ATOM     12  N   UNL     1      -3.365  11.374  18.316  0.00  0.00    +0.000 N 
ATOM     13  C   UNL     1      -2.876   9.981  18.192  0.00  0.00    +0.000 C 
ATOM     14  C   UNL     1      -2.283   9.714  16.797  0.00  0.00    +0.000 C 
ATOM     15  O   UNL     1      -3.185  10.064  15.739  0.00  0.00    +0.000 OA
ATOM     16  C   UNL     1      -3.555  11.449  15.861  0.00  0.00    +0.000 C 
ATOM     17  C   UNL     1      -4.294  11.674  17.194  0.00  0.00    +0.000 C 
ENDBRANCH  11  12
BRANCH   1  19
ATOM     18  O   UNL     1       0.311  13.292  20.246  0.00  0.00    +0.000 OA
ATOM     19  S   UNL     1      -0.554  12.468  19.423  0.00  0.00    +0.000 S 
ATOM     20  O   UNL     1      -0.604  12.660  17.985  0.00  0.00    +0.000 OA
BRANCH  19  21
ATOM     21  C   UNL     1       0.091  10.807  19.595  0.00  0.00    +0.000 A 
ATOM     22  C   UNL     1      -0.038  10.143  20.822  0.00  0.00    +0.000 A 
ATOM     23  C   UNL     1       0.623   8.929  21.020  0.00  0.00    +0.000 A 
ATOM     24  C   UNL     1       1.418   8.385  20.004  0.00  0.00    +0.000 A 
ATOM     25 CL   UNL     1       2.232   6.898  20.335  0.00  0.00    +0.000 Cl
ATOM     26  C   UNL     1       1.543   9.057  18.783  0.00  0.00    +0.000 A 
ATOM     27 CL   UNL     1       2.537   8.461  17.498  0.00  0.00    +0.000 Cl
ATOM     28  C   UNL     1       0.882  10.272  18.573  0.00  0.00    +0.000 A 
ENDBRANCH  19  21
ENDBRANCH   1  19
TORSDOF 3
ENDMDL
MODEL 8
REMARK VINA RESULT:      -6.5      9.437     12.502
REMARK  Name = 
REMARK  3 active torsions:
REMARK  status: ('A' for Active; 'I' for Inactive)
REMARK    1  A    between atoms: S_2  and  C_4
REMARK    2  A    between atoms: S_2  and  C_12
REMARK    3  A    between atoms: C_22  and  N_23
REMARK                            x       y       z     vdW  Elec       q    Type
REMARK                         _______ _______ _______ _____ _____    ______ ____
ROOT
ATOM      1  C   UNL     1      -3.378  12.531  20.122  0.00  0.00    +0.000 A 
ATOM      2  C   UNL     1      -4.620  12.708  19.533  0.00  0.00    +0.000 A 
ATOM      3  N   UNL     1      -4.970  12.211  18.334  0.00  0.00    +0.000 NA
ATOM      4  C   UNL     1      -4.064  11.521  17.649  0.00  0.00    +0.000 A 
ATOM      5  C   UNL     1      -4.508  11.036  16.428  0.00  0.00    +0.000 A 
ATOM      6  C   UNL     1      -3.679  10.295  15.602  0.00  0.00    +0.000 A 
ATOM      7  F   UNL     1      -4.142   9.826  14.438  0.00  0.00    +0.000 F 
ATOM      8  C   UNL     1      -2.376  10.061  15.968  0.00  0.00    +0.000 A 
ATOM      9  C   UNL     1      -1.907  10.579  17.181  0.00  0.00    +0.000 A 
ATOM     10  C   UNL     1      -2.733  11.290  18.108  0.00  0.00    +0.000 A 
ATOM     11  C   UNL     1      -2.358  11.812  19.429  0.00  0.00    +0.000 A 
ENDROOT
BRANCH  11  12
ATOM     12  N   UNL     1      -1.101  11.573  20.004  0.00  0.00    +0.000 N 
ATOM     13  C   UNL     1      -0.700  10.307  20.661  0.00  0.00    +0.000 C 
ATOM     14  C   UNL     1       0.323  10.554  21.785  0.00  0.00    +0.000 C 
ATOM     15  O   UNL     1       1.456  11.312  21.341  0.00  0.00    +0.000 OA
ATOM     16  C   UNL     1       1.011  12.566  20.795  0.00  0.00    +0.000 C 
ATOM     17  C   UNL     1       0.115  12.310  19.567  0.00  0.00    +0.000 C 
ENDBRANCH  11  12
BRANCH   1  19
ATOM     18  O   UNL     1      -2.043  14.005  21.779  0.00  0.00    +0.000 OA
ATOM     19  S   UNL     1      -3.247  13.194  21.761  0.00  0.00    +0.000 S 
ATOM     20  O   UNL     1      -3.423  12.116  22.716  0.00  0.00    +0.000 OA
BRANCH  19  21
ATOM     21  C   UNL     1      -4.572  14.327  22.168  0.00  0.00    +0.000 A 
ATOM     22  C   UNL     1      -4.411  15.695  21.914  0.00  0.00    +0.000 A 
ATOM     23  C   UNL     1      -5.356  16.601  22.397  0.00  0.00    +0.000 A 
ATOM     24  C   UNL     1      -6.452  16.148  23.140  0.00  0.00    +0.000 A 
ATOM     25 CL   UNL     1      -7.562  17.331  23.733  0.00  0.00    +0.000 Cl
ATOM     26  C   UNL     1      -6.604  14.779  23.391  0.00  0.00    +0.000 A 
ATOM     27 CL   UNL     1      -7.915  14.154  24.331  0.00  0.00    +0.000 Cl
ATOM     28  C   UNL     1      -5.665  13.862  22.908  0.00  0.00    +0.000 A 
ENDBRANCH  19  21
ENDBRANCH   1  19
TORSDOF 3
ENDMDL
MODEL 9
REMARK VINA RESULT:      -6.5      6.894     10.376
REMARK  Name = 
REMARK  3 active torsions:
REMARK  status: ('A' for Active; 'I' for Inactive)
REMARK    1  A    between atoms: S_2  and  C_4
REMARK    2  A    between atoms: S_2  and  C_12
REMARK    3  A    between atoms: C_22  and  N_23
REMARK                            x       y       z     vdW  Elec       q    Type
REMARK                         _______ _______ _______ _____ _____    ______ ____
ROOT
ATOM      1  C   UNL     1       0.052  10.747  21.217  0.00  0.00    +0.000 A 
ATOM      2  C   UNL     1      -0.020   9.464  21.736  0.00  0.00    +0.000 A 
ATOM      3  N   UNL     1       0.565   8.387  21.185  0.00  0.00    +0.000 NA
ATOM      4  C   UNL     1       1.245   8.549  20.053  0.00  0.00    +0.000 A 
ATOM      5  C   UNL     1       1.825   7.391  19.556  0.00  0.00    +0.000 A 
ATOM      6  C   UNL     1       2.566   7.402  18.387  0.00  0.00    +0.000 A 
ATOM      7  F   UNL     1       3.128   6.272  17.943  0.00  0.00    +0.000 F 
ATOM      8  C   UNL     1       2.706   8.566  17.672  0.00  0.00    +0.000 A 
ATOM      9  C   UNL     1       2.092   9.732  18.146  0.00  0.00    +0.000 A 
ATOM     10  C   UNL     1       1.373   9.800  19.380  0.00  0.00    +0.000 A 
ATOM     11  C   UNL     1       0.754  10.982  19.996  0.00  0.00    +0.000 A 
ENDROOT
BRANCH  11  12
ATOM     12  N   UNL     1       0.889  12.270  19.456  0.00  0.00    +0.000 N 
ATOM     13  C   UNL     1       2.162  13.023  19.375  0.00  0.00    +0.000 C 
ATOM     14  C   UNL     1       1.927  14.541  19.470  0.00  0.00    +0.000 C 
ATOM     15  O   UNL     1       0.964  15.009  18.516  0.00  0.00    +0.000 OA
ATOM     16  C   UNL     1      -0.277  14.305  18.701  0.00  0.00    +0.000 C 
ATOM     17  C   UNL     1      -0.064  12.800  18.444  0.00  0.00    +0.000 C 
ENDBRANCH  11  12
BRANCH   1  19
ATOM     18  O   UNL     1       0.106  13.178  22.101  0.00  0.00    +0.000 OA
ATOM     19  S   UNL     1      -0.713  11.987  22.226  0.00  0.00    +0.000 S 
ATOM     20  O   UNL     1      -0.991  11.419  23.533  0.00  0.00    +0.000 OA
BRANCH  19  21
ATOM     21  C   UNL     1      -2.331  12.474  21.634  0.00  0.00    +0.000 A 
ATOM     22  C   UNL     1      -3.275  12.972  22.541  0.00  0.00    +0.000 A 
ATOM     23  C   UNL     1      -4.591  13.176  22.122  0.00  0.00    +0.000 A 
ATOM     24  C   UNL     1      -4.967  12.874  20.809  0.00  0.00    +0.000 A 
ATOM     25 CL   UNL     1      -6.620  13.121  20.373  0.00  0.00    +0.000 Cl
ATOM     26  C   UNL     1      -4.018  12.374  19.910  0.00  0.00    +0.000 A 
ATOM     27 CL   UNL     1      -4.422  11.947  18.283  0.00  0.00    +0.000 Cl
ATOM     28  C   UNL     1      -2.696  12.169  20.318  0.00  0.00    +0.000 A 
ENDBRANCH  19  21
ENDBRANCH   1  19
TORSDOF 3
ENDMDL
