MODEL 1
REMARK VINA RESULT:      -7.3      0.000      0.000
REMARK  Name = 
REMARK  4 active torsions:
REMARK  status: ('A' for Active; 'I' for Inactive)
REMARK    1  A    between atoms: C_2  and  C_20
REMARK    2  A    between atoms: N_3  and  C_4
REMARK    3  A    between atoms: C_9  and  S_10
REMARK    4  A    between atoms: S_10  and  N_13
REMARK                            x       y       z     vdW  Elec       q    Type
REMARK                         _______ _______ _______ _____ _____    ______ ____
ROOT
ATOM      1  C   UNL     1       9.545  10.474  19.715  0.00  0.00    +0.000 A 
ATOM      2  C   UNL     1       9.331  10.898  21.027  0.00  0.00    +0.000 A 
ATOM      3  C   UNL     1       9.658  12.191  21.427  0.00  0.00    +0.000 A 
ATOM      4  C   UNL     1      10.238  13.094  20.532  0.00  0.00    +0.000 A 
ATOM      5 CL   UNL     1      10.511  14.673  21.169  0.00  0.00    +0.000 Cl
ATOM      6  C   UNL     1      10.551  12.663  19.236  0.00  0.00    +0.000 A 
ATOM      7  C   UNL     1      10.206  11.345  18.835  0.00  0.00    +0.000 A 
ENDROOT
BRANCH   1  10
ATOM      8  O   UNL     1       7.787   9.964  17.490  0.00  0.00    +0.000 OA
ATOM      9  C   UNL     1       8.207   9.041  18.188  0.00  0.00    +0.000 C 
ATOM     10  N   UNL     1       9.085   9.213  19.259  0.00  0.00    +0.000 N 
ATOM     11  H   UNL     1       9.533   8.371  19.603  0.00  0.00    +0.000 HD
BRANCH   9  12
ATOM     12  C   UNL     1       7.824   7.677  17.883  0.00  0.00    +0.000 A 
ATOM     13  C   UNL     1       7.964   6.545  18.667  0.00  0.00    +0.000 A 
ATOM     14  C   UNL     1       7.493   5.457  17.906  0.00  0.00    +0.000 A 
ATOM     15  C   UNL     1       7.085   5.985  16.707  0.00  0.00    +0.000 A 
ATOM     16  O   UNL     1       7.268   7.335  16.680  0.00  0.00    +0.000 OA
ENDBRANCH   9  12
ENDBRANCH   1  10
BRANCH   6  17
ATOM     17  S   UNL     1      11.173  13.789  17.981  0.00  0.00    +0.000 S 
ATOM     18  O   UNL     1      12.333  14.437  18.565  0.00  0.00    +0.000 OA
ATOM     19  O   UNL     1      11.295  13.080  16.728  0.00  0.00    +0.000 OA
BRANCH  17  20
ATOM     20  N   UNL     1       9.963  15.000  17.799  0.00  0.00    +0.000 NA
ATOM     21  C   UNL     1       8.574  14.567  18.083  0.00  0.00    +0.000 C 
ATOM     22  C   UNL     1       7.542  15.666  17.864  0.00  0.00    +0.000 C 
ATOM     23  C   UNL     1       7.946  16.956  18.555  0.00  0.00    +0.000 C 
ATOM     24  C   UNL     1       9.286  17.408  18.004  0.00  0.00    +0.000 C 
ATOM     25  C   UNL     1      10.368  16.359  18.227  0.00  0.00    +0.000 C 
ENDBRANCH  17  20
ENDBRANCH   6  17
TORSDOF 4
ENDMDL
MODEL 2
REMARK VINA RESULT:      -7.2      8.421      9.346
REMARK  Name = 
REMARK  4 active torsions:
REMARK  status: ('A' for Active; 'I' for Inactive)
REMARK    1  A    between atoms: C_2  and  C_20
REMARK    2  A    between atoms: N_3  and  C_4
REMARK    3  A    between atoms: C_9  and  S_10
REMARK    4  A    between atoms: S_10  and  N_13
REMARK                            x       y       z     vdW  Elec       q    Type
REMARK                         _______ _______ _______ _____ _____    ______ ____
ROOT
ATOM      1  C   UNL     1       2.517   7.173  18.899  0.00  0.00    +0.000 A 
ATOM      2  C   UNL     1       2.058   6.453  20.002  0.00  0.00    +0.000 A 
ATOM      3  C   UNL     1       1.219   7.042  20.945  0.00  0.00    +0.000 A 
ATOM      4  C   UNL     1       0.836   8.380  20.828  0.00  0.00    +0.000 A 
ATOM      5 CL   UNL     1      -0.263   8.929  22.039  0.00  0.00    +0.000 Cl
ATOM      6  C   UNL     1       1.358   9.150  19.782  0.00  0.00    +0.000 A 
ATOM      7  C   UNL     1       2.207   8.539  18.820  0.00  0.00    +0.000 A 
ENDROOT
BRANCH   1  10
ATOM      8  O   UNL     1       4.929   5.617  19.160  0.00  0.00    +0.000 OA
ATOM      9  C   UNL     1       4.431   5.831  18.054  0.00  0.00    +0.000 C 
ATOM     10  N   UNL     1       3.250   6.547  17.858  0.00  0.00    +0.000 N 
ATOM     11  H   UNL     1       2.825   6.458  16.941  0.00  0.00    +0.000 HD
BRANCH   9  12
ATOM     12  C   UNL     1       5.057   5.285  16.866  0.00  0.00    +0.000 A 
ATOM     13  C   UNL     1       5.285   5.903  15.649  0.00  0.00    +0.000 A 
ATOM     14  C   UNL     1       5.868   4.939  14.803  0.00  0.00    +0.000 A 
ATOM     15  C   UNL     1       5.972   3.794  15.551  0.00  0.00    +0.000 A 
ATOM     16  O   UNL     1       5.494   3.989  16.812  0.00  0.00    +0.000 OA
ENDBRANCH   9  12
ENDBRANCH   1  10
BRANCH   6  17
ATOM     17  S   UNL     1       0.819  10.837  19.476  0.00  0.00    +0.000 S 
ATOM     18  O   UNL     1       0.829  11.500  20.768  0.00  0.00    +0.000 OA
ATOM     19  O   UNL     1       1.578  11.385  18.376  0.00  0.00    +0.000 OA
BRANCH  17  20
ATOM     20  N   UNL     1      -0.828  10.719  18.989  0.00  0.00    +0.000 NA
ATOM     21  C   UNL     1      -1.665  11.912  19.264  0.00  0.00    +0.000 C 
ATOM     22  C   UNL     1      -3.121  11.735  18.853  0.00  0.00    +0.000 C 
ATOM     23  C   UNL     1      -3.241  11.204  17.436  0.00  0.00    +0.000 C 
ATOM     24  C   UNL     1      -2.528   9.866  17.353  0.00  0.00    +0.000 C 
ATOM     25  C   UNL     1      -1.056   9.989  17.721  0.00  0.00    +0.000 C 
ENDBRANCH  17  20
ENDBRANCH   6  17
TORSDOF 4
ENDMDL
MODEL 3
REMARK VINA RESULT:      -7.0      7.815     10.351
REMARK  Name = 
REMARK  4 active torsions:
REMARK  status: ('A' for Active; 'I' for Inactive)
REMARK    1  A    between atoms: C_2  and  C_20
REMARK    2  A    between atoms: N_3  and  C_4
REMARK    3  A    between atoms: C_9  and  S_10
REMARK    4  A    between atoms: S_10  and  N_13
REMARK                            x       y       z     vdW  Elec       q    Type
REMARK                         _______ _______ _______ _____ _____    ______ ____
ROOT
ATOM      1  C   UNL     1       2.225   6.920  19.815  0.00  0.00    +0.000 A 
ATOM      2  C   UNL     1       1.278   6.072  20.389  0.00  0.00    +0.000 A 
ATOM      3  C   UNL     1       1.558   4.726  20.608  0.00  0.00    +0.000 A 
ATOM      4  C   UNL     1       2.787   4.178  20.232  0.00  0.00    +0.000 A 
ATOM      5 CL   UNL     1       2.997   2.516  20.641  0.00  0.00    +0.000 Cl
ATOM      6  C   UNL     1       3.719   4.986  19.568  0.00  0.00    +0.000 A 
ATOM      7  C   UNL     1       3.427   6.360  19.357  0.00  0.00    +0.000 A 
ENDROOT
BRANCH   1  10
ATOM      8  O   UNL     1       1.578   8.426  17.445  0.00  0.00    +0.000 OA
ATOM      9  C   UNL     1       1.727   8.988  18.530  0.00  0.00    +0.000 C 
ATOM     10  N   UNL     1       2.008   8.319  19.721  0.00  0.00    +0.000 N 
ATOM     11  H   UNL     1       1.879   8.856  20.572  0.00  0.00    +0.000 HD
BRANCH   9  12
ATOM     12  C   UNL     1       1.563  10.425  18.623  0.00  0.00    +0.000 A 
ATOM     13  C   UNL     1       2.320  11.421  18.032  0.00  0.00    +0.000 A 
ATOM     14  C   UNL     1       1.796  12.652  18.473  0.00  0.00    +0.000 A 
ATOM     15  C   UNL     1       0.746  12.341  19.299  0.00  0.00    +0.000 A 
ATOM     16  O   UNL     1       0.582  10.991  19.393  0.00  0.00    +0.000 OA
ENDBRANCH   9  12
ENDBRANCH   1  10
BRANCH   6  17
ATOM     17  S   UNL     1       5.372   4.406  19.168  0.00  0.00    +0.000 S 
ATOM     18  O   UNL     1       6.287   5.300  19.854  0.00  0.00    +0.000 OA
ATOM     19  O   UNL     1       5.444   2.982  19.399  0.00  0.00    +0.000 OA
BRANCH  17  20
ATOM     20  N   UNL     1       5.569   4.688  17.481  0.00  0.00    +0.000 NA
ATOM     21  C   UNL     1       6.969   4.705  16.993  0.00  0.00    +0.000 C 
ATOM     22  C   UNL     1       7.086   5.002  15.503  0.00  0.00    +0.000 C 
ATOM     23  C   UNL     1       6.151   4.129  14.685  0.00  0.00    +0.000 C 
ATOM     24  C   UNL     1       4.725   4.381  15.138  0.00  0.00    +0.000 C 
ATOM     25  C   UNL     1       4.541   4.066  16.616  0.00  0.00    +0.000 C 
ENDBRANCH  17  20
ENDBRANCH   6  17
TORSDOF 4
ENDMDL
MODEL 4
REMARK VINA RESULT:      -6.9      8.465     11.410
REMARK  Name = 
REMARK  4 active torsions:
REMARK  status: ('A' for Active; 'I' for Inactive)
REMARK    1  A    between atoms: C_2  and  C_20
REMARK    2  A    between atoms: N_3  and  C_4
REMARK    3  A    between atoms: C_9  and  S_10
REMARK    4  A    between atoms: S_10  and  N_13
REMARK                            x       y       z     vdW  Elec       q    Type
REMARK                         _______ _______ _______ _____ _____    ______ ____
ROOT
ATOM      1  C   UNL     1       3.093   7.078  18.287  0.00  0.00    +0.000 A 
ATOM      2  C   UNL     1       4.106   7.579  17.470  0.00  0.00    +0.000 A 
ATOM      3  C   UNL     1       4.856   6.735  16.654  0.00  0.00    +0.000 A 
ATOM      4  C   UNL     1       4.633   5.356  16.652  0.00  0.00    +0.000 A 
ATOM      5 CL   UNL     1       5.596   4.468  15.531  0.00  0.00    +0.000 Cl
ATOM      6  C   UNL     1       3.686   4.817  17.532  0.00  0.00    +0.000 A 
ATOM      7  C   UNL     1       2.921   5.687  18.354  0.00  0.00    +0.000 A 
ENDROOT
BRANCH   1  10
ATOM      8  O   UNL     1       1.794   9.459  17.314  0.00  0.00    +0.000 OA
ATOM      9  C   UNL     1       1.656   9.096  18.483  0.00  0.00    +0.000 C 
ATOM     10  N   UNL     1       2.229   7.939  19.010  0.00  0.00    +0.000 N 
ATOM     11  H   UNL     1       1.859   7.629  19.903  0.00  0.00    +0.000 HD
BRANCH   9  12
ATOM     12  C   UNL     1       0.821   9.867  19.382  0.00  0.00    +0.000 A 
ATOM     13  C   UNL     1      -0.097  10.856  19.073  0.00  0.00    +0.000 A 
ATOM     14  C   UNL     1      -0.608  11.337  20.295  0.00  0.00    +0.000 A 
ATOM     15  C   UNL     1       0.017  10.612  21.277  0.00  0.00    +0.000 A 
ATOM     16  O   UNL     1       0.882   9.705  20.740  0.00  0.00    +0.000 OA
ENDBRANCH   9  12
ENDBRANCH   1  10
BRANCH   6  17
ATOM     17  S   UNL     1       3.239   3.076  17.504  0.00  0.00    +0.000 S 
ATOM     18  O   UNL     1       2.126   2.964  16.579  0.00  0.00    +0.000 OA
ATOM     19  O   UNL     1       4.430   2.284  17.302  0.00  0.00    +0.000 OA
BRANCH  17  20
ATOM     20  N   UNL     1       2.621   2.729  19.073  0.00  0.00    +0.000 NA
ATOM     21  C   UNL     1       3.620   2.714  20.167  0.00  0.00    +0.000 C 
ATOM     22  C   UNL     1       3.025   2.358  21.524  0.00  0.00    +0.000 C 
ATOM     23  C   UNL     1       1.786   3.183  21.823  0.00  0.00    +0.000 C 
ATOM     24  C   UNL     1       0.755   2.928  20.739  0.00  0.00    +0.000 C 
ATOM     25  C   UNL     1       1.285   3.300  19.361  0.00  0.00    +0.000 C 
ENDBRANCH  17  20
ENDBRANCH   6  17
TORSDOF 4
ENDMDL
MODEL 5
REMARK VINA RESULT:      -6.9      8.756     11.764
REMARK  Name = 
REMARK  4 active torsions:
REMARK  status: ('A' for Active; 'I' for Inactive)
REMARK    1  A    between atoms: C_2  and  C_20
REMARK    2  A    between atoms: N_3  and  C_4
REMARK    3  A    between atoms: C_9  and  S_10
REMARK    4  A    between atoms: S_10  and  N_13
REMARK                            x       y       z     vdW  Elec       q    Type
REMARK                         _______ _______ _______ _____ _____    ______ ____
ROOT
ATOM      1  C   UNL     1       1.036   9.046  19.636  0.00  0.00    +0.000 A 
ATOM      2  C   UNL     1       1.447   9.454  18.368  0.00  0.00    +0.000 A 
ATOM      3  C   UNL     1       2.337   8.688  17.620  0.00  0.00    +0.000 A 
ATOM      4  C   UNL     1       2.867   7.500  18.131  0.00  0.00    +0.000 A 
ATOM      5 CL   UNL     1       3.895   6.638  17.047  0.00  0.00    +0.000 Cl
ATOM      6  C   UNL     1       2.544   7.117  19.439  0.00  0.00    +0.000 A 
ATOM      7  C   UNL     1       1.628   7.901  20.191  0.00  0.00    +0.000 A 
ENDROOT
BRANCH   1  10
ATOM      8  O   UNL     1       1.343  11.430  21.226  0.00  0.00    +0.000 OA
ATOM      9  C   UNL     1       0.248  10.875  21.123  0.00  0.00    +0.000 C 
ATOM     10  N   UNL     1       0.022   9.739  20.346  0.00  0.00    +0.000 N 
ATOM     11  H   UNL     1      -0.950   9.516  20.160  0.00  0.00    +0.000 HD
BRANCH   9  12
ATOM     12  C   UNL     1      -0.907  11.431  21.800  0.00  0.00    +0.000 A 
ATOM     13  C   UNL     1      -1.356  11.185  23.085  0.00  0.00    +0.000 A 
ATOM     14  C   UNL     1      -2.545  11.922  23.253  0.00  0.00    +0.000 A 
ATOM     15  C   UNL     1      -2.750  12.581  22.067  0.00  0.00    +0.000 A 
ATOM     16  O   UNL     1      -1.757  12.303  21.175  0.00  0.00    +0.000 OA
ENDBRANCH   9  12
ENDBRANCH   1  10
BRANCH   6  17
ATOM     17  S   UNL     1       3.070   5.544  20.130  0.00  0.00    +0.000 S 
ATOM     18  O   UNL     1       4.503   5.469  19.910  0.00  0.00    +0.000 OA
ATOM     19  O   UNL     1       2.535   5.410  21.465  0.00  0.00    +0.000 OA
BRANCH  17  20
ATOM     20  N   UNL     1       2.350   4.334  19.138  0.00  0.00    +0.000 NA
ATOM     21  C   UNL     1       3.295   3.493  18.365  0.00  0.00    +0.000 C 
ATOM     22  C   UNL     1       2.602   2.471  17.472  0.00  0.00    +0.000 C 
ATOM     23  C   UNL     1       1.551   1.686  18.235  0.00  0.00    +0.000 C 
ATOM     24  C   UNL     1       0.519   2.655  18.785  0.00  0.00    +0.000 C 
ATOM     25  C   UNL     1       1.152   3.682  19.715  0.00  0.00    +0.000 C 
ENDBRANCH  17  20
ENDBRANCH   6  17
TORSDOF 4
ENDMDL
MODEL 6
REMARK VINA RESULT:      -6.9      8.493     11.302
REMARK  Name = 
REMARK  4 active torsions:
REMARK  status: ('A' for Active; 'I' for Inactive)
REMARK    1  A    between atoms: C_2  and  C_20
REMARK    2  A    between atoms: N_3  and  C_4
REMARK    3  A    between atoms: C_9  and  S_10
REMARK    4  A    between atoms: S_10  and  N_13
REMARK                            x       y       z     vdW  Elec       q    Type
REMARK                         _______ _______ _______ _____ _____    ______ ____
ROOT
ATOM      1  C   UNL     1       3.489   7.293  17.415  0.00  0.00    +0.000 A 
ATOM      2  C   UNL     1       4.619   7.511  16.627  0.00  0.00    +0.000 A 
ATOM      3  C   UNL     1       5.367   6.445  16.133  0.00  0.00    +0.000 A 
ATOM      4  C   UNL     1       5.024   5.125  16.436  0.00  0.00    +0.000 A 
ATOM      5 CL   UNL     1       6.010   3.927  15.684  0.00  0.00    +0.000 Cl
ATOM      6  C   UNL     1       3.950   4.883  17.303  0.00  0.00    +0.000 A 
ATOM      7  C   UNL     1       3.189   5.976  17.795  0.00  0.00    +0.000 A 
ENDROOT
BRANCH   1  10
ATOM      8  O   UNL     1       2.138   7.612  19.941  0.00  0.00    +0.000 OA
ATOM      9  C   UNL     1       1.991   8.434  19.036  0.00  0.00    +0.000 C 
ATOM     10  N   UNL     1       2.638   8.359  17.803  0.00  0.00    +0.000 N 
ATOM     11  H   UNL     1       2.618   9.202  17.240  0.00  0.00    +0.000 HD
BRANCH   9  12
ATOM     12  C   UNL     1       1.136   9.587  19.244  0.00  0.00    +0.000 A 
ATOM     13  C   UNL     1       0.788  10.200  20.434  0.00  0.00    +0.000 A 
ATOM     14  C   UNL     1      -0.106  11.241  20.114  0.00  0.00    +0.000 A 
ATOM     15  C   UNL     1      -0.246  11.211  18.749  0.00  0.00    +0.000 A 
ATOM     16  O   UNL     1       0.511  10.218  18.202  0.00  0.00    +0.000 OA
ENDBRANCH   9  12
ENDBRANCH   1  10
BRANCH   6  17
ATOM     17  S   UNL     1       3.355   3.222  17.643  0.00  0.00    +0.000 S 
ATOM     18  O   UNL     1       2.259   2.993  16.718  0.00  0.00    +0.000 OA
ATOM     19  O   UNL     1       4.477   2.312  17.674  0.00  0.00    +0.000 OA
BRANCH  17  20
ATOM     20  N   UNL     1       2.670   3.286  19.221  0.00  0.00    +0.000 NA
ATOM     21  C   UNL     1       1.189   3.257  19.280  0.00  0.00    +0.000 C 
ATOM     22  C   UNL     1       0.638   3.361  20.696  0.00  0.00    +0.000 C 
ATOM     23  C   UNL     1       1.317   2.377  21.632  0.00  0.00    +0.000 C 
ATOM     24  C   UNL     1       2.807   2.667  21.649  0.00  0.00    +0.000 C 
ATOM     25  C   UNL     1       3.419   2.543  20.260  0.00  0.00    +0.000 C 
ENDBRANCH  17  20
ENDBRANCH   6  17
TORSDOF 4
ENDMDL
MODEL 7
REMARK VINA RESULT:      -6.9      4.374      8.830
REMARK  Name = 
REMARK  4 active torsions:
REMARK  status: ('A' for Active; 'I' for Inactive)
REMARK    1  A    between atoms: C_2  and  C_20
REMARK    2  A    between atoms: N_3  and  C_4
REMARK    3  A    between atoms: C_9  and  S_10
REMARK    4  A    between atoms: S_10  and  N_13
REMARK                            x       y       z     vdW  Elec       q    Type
REMARK                         _______ _______ _______ _____ _____    ______ ____
ROOT
ATOM      1  C   UNL     1       8.008   8.247  17.952  0.00  0.00    +0.000 A 
ATOM      2  C   UNL     1       8.486   7.418  18.967  0.00  0.00    +0.000 A 
ATOM      3  C   UNL     1       7.981   6.132  19.142  0.00  0.00    +0.000 A 
ATOM      4  C   UNL     1       6.959   5.645  18.323  0.00  0.00    +0.000 A 
ATOM      5 CL   UNL     1       6.503   4.010  18.627  0.00  0.00    +0.000 Cl
ATOM      6  C   UNL     1       6.397   6.490  17.359  0.00  0.00    +0.000 A 
ATOM      7  C   UNL     1       6.924   7.798  17.183  0.00  0.00    +0.000 A 
ENDROOT
BRANCH   1  10
ATOM      8  O   UNL     1       9.206  10.065  19.841  0.00  0.00    +0.000 OA
ATOM      9  C   UNL     1       9.147  10.345  18.644  0.00  0.00    +0.000 C 
ATOM     10  N   UNL     1       8.611   9.500  17.672  0.00  0.00    +0.000 N 
ATOM     11  H   UNL     1       8.828   9.738  16.710  0.00  0.00    +0.000 HD
BRANCH   9  12
ATOM     12  C   UNL     1       9.698  11.600  18.171  0.00  0.00    +0.000 A 
ATOM     13  C   UNL     1      10.995  11.881  17.781  0.00  0.00    +0.000 A 
ATOM     14  C   UNL     1      11.039  13.253  17.460  0.00  0.00    +0.000 A 
ATOM     15  C   UNL     1       9.768  13.728  17.662  0.00  0.00    +0.000 A 
ATOM     16  O   UNL     1       8.936  12.734  18.084  0.00  0.00    +0.000 OA
ENDBRANCH   9  12
ENDBRANCH   1  10
BRANCH   6  17
ATOM     17  S   UNL     1       5.175   5.910  16.176  0.00  0.00    +0.000 S 
ATOM     18  O   UNL     1       4.889   7.039  15.309  0.00  0.00    +0.000 OA
ATOM     19  O   UNL     1       5.621   4.659  15.609  0.00  0.00    +0.000 OA
BRANCH  17  20
ATOM     20  N   UNL     1       3.747   5.609  17.090  0.00  0.00    +0.000 NA
ATOM     21  C   UNL     1       3.342   4.187  17.196  0.00  0.00    +0.000 C 
ATOM     22  C   UNL     1       2.049   3.984  17.977  0.00  0.00    +0.000 C 
ATOM     23  C   UNL     1       2.077   4.724  19.303  0.00  0.00    +0.000 C 
ATOM     24  C   UNL     1       2.275   6.205  19.032  0.00  0.00    +0.000 C 
ATOM     25  C   UNL     1       3.572   6.471  18.281  0.00  0.00    +0.000 C 
ENDBRANCH  17  20
ENDBRANCH   6  17
TORSDOF 4
ENDMDL
MODEL 8
REMARK VINA RESULT:      -6.9      7.465      9.959
REMARK  Name = 
REMARK  4 active torsions:
REMARK  status: ('A' for Active; 'I' for Inactive)
REMARK    1  A    between atoms: C_2  and  C_20
REMARK    2  A    between atoms: N_3  and  C_4
REMARK    3  A    between atoms: C_9  and  S_10
REMARK    4  A    between atoms: S_10  and  N_13
REMARK                            x       y       z     vdW  Elec       q    Type
REMARK                         _______ _______ _______ _____ _____    ______ ____
ROOT
ATOM      1  C   UNL     1       1.930   6.690  20.015  0.00  0.00    +0.000 A 
ATOM      2  C   UNL     1       1.042   5.787  20.599  0.00  0.00    +0.000 A 
ATOM      3  C   UNL     1       1.297   4.418  20.586  0.00  0.00    +0.000 A 
ATOM      4  C   UNL     1       2.438   3.906  19.962  0.00  0.00    +0.000 A 
ATOM      5 CL   UNL     1       2.637   2.199  20.102  0.00  0.00    +0.000 Cl
ATOM      6  C   UNL     1       3.296   4.783  19.287  0.00  0.00    +0.000 A 
ATOM      7  C   UNL     1       3.032   6.178  19.313  0.00  0.00    +0.000 A 
ENDROOT
BRANCH   1  10
ATOM      8  O   UNL     1       1.402   8.586  17.910  0.00  0.00    +0.000 OA
ATOM      9  C   UNL     1       1.533   8.957  19.077  0.00  0.00    +0.000 C 
ATOM     10  N   UNL     1       1.757   8.091  20.148  0.00  0.00    +0.000 N 
ATOM     11  H   UNL     1       1.617   8.485  21.072  0.00  0.00    +0.000 HD
BRANCH   9  12
ATOM     12  C   UNL     1       1.409  10.364  19.402  0.00  0.00    +0.000 A 
ATOM     13  C   UNL     1       1.637  11.461  18.592  0.00  0.00    +0.000 A 
ATOM     14  C   UNL     1       1.434  12.607  19.385  0.00  0.00    +0.000 A 
ATOM     15  C   UNL     1       1.085  12.147  20.630  0.00  0.00    +0.000 A 
ATOM     16  O   UNL     1       1.053  10.785  20.655  0.00  0.00    +0.000 OA
ENDBRANCH   9  12
ENDBRANCH   1  10
BRANCH   6  17
ATOM     17  S   UNL     1       4.851   4.234  18.572  0.00  0.00    +0.000 S 
ATOM     18  O   UNL     1       5.482   3.401  19.580  0.00  0.00    +0.000 OA
ATOM     19  O   UNL     1       4.607   3.710  17.249  0.00  0.00    +0.000 OA
BRANCH  17  20
ATOM     20  N   UNL     1       5.819   5.650  18.419  0.00  0.00    +0.000 NA
ATOM     21  C   UNL     1       7.219   5.524  18.890  0.00  0.00    +0.000 C 
ATOM     22  C   UNL     1       8.016   6.818  18.772  0.00  0.00    +0.000 C 
ATOM     23  C   UNL     1       7.876   7.435  17.392  0.00  0.00    +0.000 C 
ATOM     24  C   UNL     1       6.408   7.721  17.130  0.00  0.00    +0.000 C 
ATOM     25  C   UNL     1       5.567   6.453  17.201  0.00  0.00    +0.000 C 
ENDBRANCH  17  20
ENDBRANCH   6  17
TORSDOF 4
ENDMDL
MODEL 9
REMARK VINA RESULT:      -6.9      8.402     11.279
REMARK  Name = 
REMARK  4 active torsions:
REMARK  status: ('A' for Active; 'I' for Inactive)
REMARK    1  A    between atoms: C_2  and  C_20
REMARK    2  A    between atoms: N_3  and  C_4
REMARK    3  A    between atoms: C_9  and  S_10
REMARK    4  A    between atoms: S_10  and  N_13
REMARK                            x       y       z     vdW  Elec       q    Type
REMARK                         _______ _______ _______ _____ _____    ______ ____
ROOT
ATOM      1  C   UNL     1       3.348   7.206  17.769  0.00  0.00    +0.000 A 
ATOM      2  C   UNL     1       4.633   7.511  17.321  0.00  0.00    +0.000 A 
ATOM      3  C   UNL     1       5.501   6.511  16.892  0.00  0.00    +0.000 A 
ATOM      4  C   UNL     1       5.120   5.167  16.925  0.00  0.00    +0.000 A 
ATOM      5 CL   UNL     1       6.286   4.066  16.291  0.00  0.00    +0.000 Cl
ATOM      6  C   UNL     1       3.871   4.826  17.459  0.00  0.00    +0.000 A 
ATOM      7  C   UNL     1       2.989   5.855  17.886  0.00  0.00    +0.000 A 
ENDROOT
BRANCH   1  10
ATOM      8  O   UNL     1       2.064   7.696  20.302  0.00  0.00    +0.000 OA
ATOM      9  C   UNL     1       1.799   8.384  19.315  0.00  0.00    +0.000 C 
ATOM     10  N   UNL     1       2.406   8.223  18.069  0.00  0.00    +0.000 N 
ATOM     11  H   UNL     1       2.277   8.985  17.413  0.00  0.00    +0.000 HD
BRANCH   9  12
ATOM     12  C   UNL     1       0.839   9.464  19.428  0.00  0.00    +0.000 A 
ATOM     13  C   UNL     1       0.096   9.848  20.531  0.00  0.00    +0.000 A 
ATOM     14  C   UNL     1      -0.731  10.911  20.118  0.00  0.00    +0.000 A 
ATOM     15  C   UNL     1      -0.442  11.122  18.794  0.00  0.00    +0.000 A 
ATOM     16  O   UNL     1       0.519  10.258  18.360  0.00  0.00    +0.000 OA
ENDBRANCH   9  12
ENDBRANCH   1  10
BRANCH   6  17
ATOM     17  S   UNL     1       3.243   3.143  17.419  0.00  0.00    +0.000 S 
ATOM     18  O   UNL     1       2.100   3.163  16.525  0.00  0.00    +0.000 OA
ATOM     19  O   UNL     1       4.338   2.234  17.173  0.00  0.00    +0.000 OA
BRANCH  17  20
ATOM     20  N   UNL     1       2.633   2.835  19.000  0.00  0.00    +0.000 NA
ATOM     21  C   UNL     1       3.642   2.827  20.086  0.00  0.00    +0.000 C 
ATOM     22  C   UNL     1       3.054   2.506  21.455  0.00  0.00    +0.000 C 
ATOM     23  C   UNL     1       1.830   3.356  21.749  0.00  0.00    +0.000 C 
ATOM     24  C   UNL     1       0.786   3.096  20.678  0.00  0.00    +0.000 C 
ATOM     25  C   UNL     1       1.309   3.433  19.288  0.00  0.00    +0.000 C 
ENDBRANCH  17  20
ENDBRANCH   6  17
TORSDOF 4
ENDMDL
