MODEL 1
REMARK VINA RESULT:      -7.2      0.000      0.000
REMARK  Name = 
REMARK  11 active torsions:
REMARK  status: ('A' for Active; 'I' for Inactive)
REMARK    1  A    between atoms: C_1  and  C_2
REMARK    2  A    between atoms: C_2  and  C_3
REMARK    3  A    between atoms: C_3  and  C_4
REMARK    4  A    between atoms: C_4  and  C_5
REMARK    5  A    between atoms: C_5  and  C_6
REMARK    6  A    between atoms: C_6  and  C_7
REMARK    7  A    between atoms: C_7  and  C_8
REMARK    8  A    between atoms: C_8  and  C_9
REMARK    9  A    between atoms: C_12  and  C_13
REMARK   10  A    between atoms: C_16  and  C_17
REMARK   11  A    between atoms: C_17  and  N_18
REMARK                            x       y       z     vdW  Elec       q    Type
REMARK                         _______ _______ _______ _____ _____    ______ ____
ROOT
ATOM      1  C   UNL     1       1.285   9.081  19.121  0.00  0.00    +0.000 A 
ATOM      2  N   UNL     1       0.922   9.300  20.396  0.00  0.00    +0.000 NA
ATOM      3  O   UNL     1       0.234  10.493  20.349  0.00  0.00    +0.000 OA
ATOM      4  C   UNL     1       0.185  10.866  19.041  0.00  0.00    +0.000 A 
ATOM      5  N   UNL     1       0.781  10.007  18.233  0.00  0.00    +0.000 NA
ENDROOT
BRANCH   1   9
ATOM      6  C   UNL     1       4.111   6.023  18.204  0.00  0.00    +0.000 A 
ATOM      7  C   UNL     1       3.303   5.937  19.344  0.00  0.00    +0.000 A 
ATOM      8  C   UNL     1       2.364   6.923  19.611  0.00  0.00    +0.000 A 
ATOM      9  C   UNL     1       2.220   8.029  18.760  0.00  0.00    +0.000 A 
ATOM     10  C   UNL     1       3.030   8.124  17.625  0.00  0.00    +0.000 A 
ATOM     11  C   UNL     1       3.970   7.126  17.350  0.00  0.00    +0.000 A 
BRANCH   6  12
ATOM     12  C   UNL     1       5.117   4.943  17.917  0.00  0.00    +0.000 C 
BRANCH  12  13
ATOM     13  C   UNL     1       6.216   4.901  18.980  0.00  0.00    +0.000 C 
BRANCH  13  14
ATOM     14  C   UNL     1       7.557   5.290  18.376  0.00  0.00    +0.000 C 
BRANCH  14  15
ATOM     15  C   UNL     1       7.883   6.751  18.671  0.00  0.00    +0.000 C 
BRANCH  15  16
ATOM     16  C   UNL     1       7.693   7.602  17.420  0.00  0.00    +0.000 C 
BRANCH  16  17
ATOM     17  C   UNL     1       7.873   9.082  17.735  0.00  0.00    +0.000 C 
BRANCH  17  19
ATOM     18  C   UNL     1       9.406  10.724  18.856  0.00  0.00    +0.000 C 
ATOM     19  C   UNL     1       8.923   9.284  18.823  0.00  0.00    +0.000 C 
ENDBRANCH  17  19
ENDBRANCH  16  17
ENDBRANCH  15  16
ENDBRANCH  14  15
ENDBRANCH  13  14
ENDBRANCH  12  13
ENDBRANCH   6  12
ENDBRANCH   1   9
BRANCH   4  20
ATOM     20  C   UNL     1      -0.423  12.202  18.591  0.00  0.00    +0.000 C 
ATOM     21  C   UNL     1      -0.705  13.220  19.677  0.00  0.00    +0.000 C 
ATOM     22  C   UNL     1       0.462  13.425  18.758  0.00  0.00    +0.000 C 
BRANCH  20  23
ATOM     23  N   UNL     1      -1.191  12.145  17.333  0.00  0.00    +0.000 N 
ATOM     24  C   UNL     1      -2.388  11.507  17.275  0.00  0.00    +0.000 C 
ATOM     25  N   UNL     1      -3.103  11.004  18.214  0.00  0.00    +0.000 NA
ATOM     26  N   UNL     1      -2.861  11.457  16.013  0.00  0.00    +0.000 N 
ATOM     27  H   UNL     1      -0.621  11.930  16.519  0.00  0.00    +0.000 HD
ATOM     28  H   UNL     1      -2.633  11.099  19.116  0.00  0.00    +0.000 HD
ATOM     29  H   UNL     1      -2.729  12.318  15.499  0.00  0.00    +0.000 HD
ATOM     30  H   UNL     1      -3.840  11.185  16.024  0.00  0.00    +0.000 HD
ENDBRANCH  20  23
ENDBRANCH   4  20
TORSDOF 10
ENDMDL
MODEL 2
REMARK VINA RESULT:      -7.1      3.521      5.332
REMARK  Name = 
REMARK  11 active torsions:
REMARK  status: ('A' for Active; 'I' for Inactive)
REMARK    1  A    between atoms: C_1  and  C_2
REMARK    2  A    between atoms: C_2  and  C_3
REMARK    3  A    between atoms: C_3  and  C_4
REMARK    4  A    between atoms: C_4  and  C_5
REMARK    5  A    between atoms: C_5  and  C_6
REMARK    6  A    between atoms: C_6  and  C_7
REMARK    7  A    between atoms: C_7  and  C_8
REMARK    8  A    between atoms: C_8  and  C_9
REMARK    9  A    between atoms: C_12  and  C_13
REMARK   10  A    between atoms: C_16  and  C_17
REMARK   11  A    between atoms: C_17  and  N_18
REMARK                            x       y       z     vdW  Elec       q    Type
REMARK                         _______ _______ _______ _____ _____    ______ ____
ROOT
ATOM      1  C   UNL     1       0.104  10.239  21.572  0.00  0.00    +0.000 A 
ATOM      2  N   UNL     1       0.221  10.065  22.900  0.00  0.00    +0.000 NA
ATOM      3  O   UNL     1      -0.460  11.135  23.439  0.00  0.00    +0.000 OA
ATOM      4  C   UNL     1      -0.985  11.833  22.395  0.00  0.00    +0.000 A 
ATOM      5  N   UNL     1      -0.704  11.298  21.220  0.00  0.00    +0.000 NA
ENDROOT
BRANCH   1   9
ATOM      6  C   UNL     1       2.203   7.889  18.700  0.00  0.00    +0.000 A 
ATOM      7  C   UNL     1       1.662   9.132  18.354  0.00  0.00    +0.000 A 
ATOM      8  C   UNL     1       1.011   9.902  19.308  0.00  0.00    +0.000 A 
ATOM      9  C   UNL     1       0.866   9.442  20.625  0.00  0.00    +0.000 A 
ATOM     10  C   UNL     1       1.396   8.196  20.975  0.00  0.00    +0.000 A 
ATOM     11  C   UNL     1       2.061   7.425  20.016  0.00  0.00    +0.000 A 
BRANCH   6  12
ATOM     12  C   UNL     1       2.917   7.068  17.661  0.00  0.00    +0.000 C 
BRANCH  12  13
ATOM     13  C   UNL     1       3.841   6.030  18.299  0.00  0.00    +0.000 C 
BRANCH  13  14
ATOM     14  C   UNL     1       3.684   4.683  17.609  0.00  0.00    +0.000 C 
BRANCH  14  15
ATOM     15  C   UNL     1       3.191   3.624  18.589  0.00  0.00    +0.000 C 
BRANCH  15  16
ATOM     16  C   UNL     1       1.769   3.197  18.240  0.00  0.00    +0.000 C 
BRANCH  16  17
ATOM     17  C   UNL     1       0.831   3.405  19.424  0.00  0.00    +0.000 C 
BRANCH  17  19
ATOM     18  C   UNL     1       1.601   2.700  21.707  0.00  0.00    +0.000 C 
ATOM     19  C   UNL     1       1.609   3.812  20.671  0.00  0.00    +0.000 C 
ENDBRANCH  17  19
ENDBRANCH  16  17
ENDBRANCH  15  16
ENDBRANCH  14  15
ENDBRANCH  13  14
ENDBRANCH  12  13
ENDBRANCH   6  12
ENDBRANCH   1   9
BRANCH   4  20
ATOM     20  C   UNL     1      -1.740  13.155  22.589  0.00  0.00    +0.000 C 
ATOM     21  C   UNL     1      -1.239  14.068  23.690  0.00  0.00    +0.000 C 
ATOM     22  C   UNL     1      -0.963  14.418  22.258  0.00  0.00    +0.000 C 
BRANCH  20  23
ATOM     23  N   UNL     1      -3.145  13.142  22.142  0.00  0.00    +0.000 N 
ATOM     24  C   UNL     1      -4.113  12.566  22.900  0.00  0.00    +0.000 C 
ATOM     25  N   UNL     1      -4.058  12.097  24.092  0.00  0.00    +0.000 NA
ATOM     26  N   UNL     1      -5.298  12.545  22.257  0.00  0.00    +0.000 N 
ATOM     27  H   UNL     1      -3.256  12.902  21.161  0.00  0.00    +0.000 HD
ATOM     28  H   UNL     1      -3.110  12.164  24.464  0.00  0.00    +0.000 HD
ATOM     29  H   UNL     1      -5.499  13.401  21.756  0.00  0.00    +0.000 HD
ATOM     30  H   UNL     1      -6.040  12.323  22.913  0.00  0.00    +0.000 HD
ENDBRANCH  20  23
ENDBRANCH   4  20
TORSDOF 10
ENDMDL
MODEL 3
REMARK VINA RESULT:      -7.1      5.046      7.823
REMARK  Name = 
REMARK  11 active torsions:
REMARK  status: ('A' for Active; 'I' for Inactive)
REMARK    1  A    between atoms: C_1  and  C_2
REMARK    2  A    between atoms: C_2  and  C_3
REMARK    3  A    between atoms: C_3  and  C_4
REMARK    4  A    between atoms: C_4  and  C_5
REMARK    5  A    between atoms: C_5  and  C_6
REMARK    6  A    between atoms: C_6  and  C_7
REMARK    7  A    between atoms: C_7  and  C_8
REMARK    8  A    between atoms: C_8  and  C_9
REMARK    9  A    between atoms: C_12  and  C_13
REMARK   10  A    between atoms: C_16  and  C_17
REMARK   11  A    between atoms: C_17  and  N_18
REMARK                            x       y       z     vdW  Elec       q    Type
REMARK                         _______ _______ _______ _____ _____    ______ ____
ROOT
ATOM      1  C   UNL     1       4.886   4.382  18.182  0.00  0.00    +0.000 A 
ATOM      2  N   UNL     1       5.601   4.325  19.319  0.00  0.00    +0.000 NA
ATOM      3  O   UNL     1       4.649   4.360  20.316  0.00  0.00    +0.000 OA
ATOM      4  C   UNL     1       3.436   4.372  19.699  0.00  0.00    +0.000 A 
ATOM      5  N   UNL     1       3.523   4.342  18.381  0.00  0.00    +0.000 NA
ENDROOT
BRANCH   1   9
ATOM      6  C   UNL     1       6.715   4.819  14.356  0.00  0.00    +0.000 A 
ATOM      7  C   UNL     1       5.373   4.438  14.472  0.00  0.00    +0.000 A 
ATOM      8  C   UNL     1       4.781   4.333  15.722  0.00  0.00    +0.000 A 
ATOM      9  C   UNL     1       5.517   4.585  16.889  0.00  0.00    +0.000 A 
ATOM     10  C   UNL     1       6.861   4.957  16.780  0.00  0.00    +0.000 A 
ATOM     11  C   UNL     1       7.455   5.073  15.519  0.00  0.00    +0.000 A 
BRANCH   6  12
ATOM     12  C   UNL     1       7.342   4.941  12.994  0.00  0.00    +0.000 C 
BRANCH  12  13
ATOM     13  C   UNL     1       7.411   3.590  12.282  0.00  0.00    +0.000 C 
BRANCH  13  14
ATOM     14  C   UNL     1       6.365   3.515  11.180  0.00  0.00    +0.000 C 
BRANCH  14  15
ATOM     15  C   UNL     1       5.416   2.343  11.408  0.00  0.00    +0.000 C 
BRANCH  15  16
ATOM     16  C   UNL     1       3.976   2.836  11.509  0.00  0.00    +0.000 C 
BRANCH  16  17
ATOM     17  C   UNL     1       3.761   4.073  10.644  0.00  0.00    +0.000 C 
BRANCH  17  19
ATOM     18  C   UNL     1       2.299   5.057   8.856  0.00  0.00    +0.000 C 
ATOM     19  C   UNL     1       2.803   3.773   9.495  0.00  0.00    +0.000 C 
ENDBRANCH  17  19
ENDBRANCH  16  17
ENDBRANCH  15  16
ENDBRANCH  14  15
ENDBRANCH  13  14
ENDBRANCH  12  13
ENDBRANCH   6  12
ENDBRANCH   1   9
BRANCH   4  20
ATOM     20  C   UNL     1       2.121   4.505  20.479  0.00  0.00    +0.000 C 
ATOM     21  C   UNL     1       1.009   3.546  20.104  0.00  0.00    +0.000 C 
ATOM     22  C   UNL     1       1.764   3.339  21.384  0.00  0.00    +0.000 C 
BRANCH  20  23
ATOM     23  N   UNL     1       1.862   5.844  21.041  0.00  0.00    +0.000 N 
ATOM     24  C   UNL     1       2.027   6.961  20.288  0.00  0.00    +0.000 C 
ATOM     25  N   UNL     1       2.269   7.084  19.034  0.00  0.00    +0.000 NA
ATOM     26  N   UNL     1       1.867   8.081  21.021  0.00  0.00    +0.000 N 
ATOM     27  H   UNL     1       2.241   5.972  21.975  0.00  0.00    +0.000 HD
ATOM     28  H   UNL     1       2.376   6.168  18.595  0.00  0.00    +0.000 HD
ATOM     29  H   UNL     1       1.095   8.028  21.673  0.00  0.00    +0.000 HD
ATOM     30  H   UNL     1       1.772   8.883  20.406  0.00  0.00    +0.000 HD
ENDBRANCH  20  23
ENDBRANCH   4  20
TORSDOF 10
ENDMDL
MODEL 4
REMARK VINA RESULT:      -7.1      2.496      4.586
REMARK  Name = 
REMARK  11 active torsions:
REMARK  status: ('A' for Active; 'I' for Inactive)
REMARK    1  A    between atoms: C_1  and  C_2
REMARK    2  A    between atoms: C_2  and  C_3
REMARK    3  A    between atoms: C_3  and  C_4
REMARK    4  A    between atoms: C_4  and  C_5
REMARK    5  A    between atoms: C_5  and  C_6
REMARK    6  A    between atoms: C_6  and  C_7
REMARK    7  A    between atoms: C_7  and  C_8
REMARK    8  A    between atoms: C_8  and  C_9
REMARK    9  A    between atoms: C_12  and  C_13
REMARK   10  A    between atoms: C_16  and  C_17
REMARK   11  A    between atoms: C_17  and  N_18
REMARK                            x       y       z     vdW  Elec       q    Type
REMARK                         _______ _______ _______ _____ _____    ______ ____
ROOT
ATOM      1  C   UNL     1       0.837   9.233  19.239  0.00  0.00    +0.000 A 
ATOM      2  N   UNL     1       0.648   9.680  20.493  0.00  0.00    +0.000 NA
ATOM      3  O   UNL     1      -0.228  10.734  20.344  0.00  0.00    +0.000 OA
ATOM      4  C   UNL     1      -0.544  10.798  19.022  0.00  0.00    +0.000 A 
ATOM      5  N   UNL     1       0.053   9.866  18.300  0.00  0.00    +0.000 NA
ENDROOT
BRANCH   1   9
ATOM      6  C   UNL     1       3.938   6.418  18.442  0.00  0.00    +0.000 A 
ATOM      7  C   UNL     1       3.169   6.329  19.607  0.00  0.00    +0.000 A 
ATOM      8  C   UNL     1       2.140   7.231  19.837  0.00  0.00    +0.000 A 
ATOM      9  C   UNL     1       1.866   8.257  18.921  0.00  0.00    +0.000 A 
ATOM     10  C   UNL     1       2.638   8.358  17.759  0.00  0.00    +0.000 A 
ATOM     11  C   UNL     1       3.669   7.442  17.523  0.00  0.00    +0.000 A 
BRANCH   6  12
ATOM     12  C   UNL     1       5.043   5.427  18.197  0.00  0.00    +0.000 C 
BRANCH  12  13
ATOM     13  C   UNL     1       4.532   3.987  18.253  0.00  0.00    +0.000 C 
BRANCH  13  14
ATOM     14  C   UNL     1       3.706   3.668  17.016  0.00  0.00    +0.000 C 
BRANCH  14  15
ATOM     15  C   UNL     1       2.230   3.520  17.370  0.00  0.00    +0.000 C 
BRANCH  15  16
ATOM     16  C   UNL     1       1.990   2.210  18.112  0.00  0.00    +0.000 C 
BRANCH  16  17
ATOM     17  C   UNL     1       0.858   2.355  19.124  0.00  0.00    +0.000 C 
BRANCH  17  19
ATOM     18  C   UNL     1       1.589   3.247  21.354  0.00  0.00    +0.000 C 
ATOM     19  C   UNL     1       1.049   3.604  19.979  0.00  0.00    +0.000 C 
ENDBRANCH  17  19
ENDBRANCH  16  17
ENDBRANCH  15  16
ENDBRANCH  14  15
ENDBRANCH  13  14
ENDBRANCH  12  13
ENDBRANCH   6  12
ENDBRANCH   1   9
BRANCH   4  20
ATOM     20  C   UNL     1      -1.429  11.910  18.443  0.00  0.00    +0.000 C 
ATOM     21  C   UNL     1      -2.289  11.542  17.250  0.00  0.00    +0.000 C 
ATOM     22  C   UNL     1      -2.927  11.715  18.597  0.00  0.00    +0.000 C 
BRANCH  20  23
ATOM     23  N   UNL     1      -0.943  13.282  18.681  0.00  0.00    +0.000 N 
ATOM     24  C   UNL     1       0.360  13.605  18.481  0.00  0.00    +0.000 C 
ATOM     25  N   UNL     1       1.312  12.918  17.963  0.00  0.00    +0.000 NA
ATOM     26  N   UNL     1       0.625  14.866  18.878  0.00  0.00    +0.000 N 
ATOM     27  H   UNL     1      -1.295  13.693  19.541  0.00  0.00    +0.000 HD
ATOM     28  H   UNL     1       0.987  11.983  17.711  0.00  0.00    +0.000 HD
ATOM     29  H   UNL     1      -0.098  15.527  18.625  0.00  0.00    +0.000 HD
ATOM     30  H   UNL     1       1.528  15.157  18.518  0.00  0.00    +0.000 HD
ENDBRANCH  20  23
ENDBRANCH   4  20
TORSDOF 10
ENDMDL
MODEL 5
REMARK VINA RESULT:      -7.1      2.676      4.729
REMARK  Name = 
REMARK  11 active torsions:
REMARK  status: ('A' for Active; 'I' for Inactive)
REMARK    1  A    between atoms: C_1  and  C_2
REMARK    2  A    between atoms: C_2  and  C_3
REMARK    3  A    between atoms: C_3  and  C_4
REMARK    4  A    between atoms: C_4  and  C_5
REMARK    5  A    between atoms: C_5  and  C_6
REMARK    6  A    between atoms: C_6  and  C_7
REMARK    7  A    between atoms: C_7  and  C_8
REMARK    8  A    between atoms: C_8  and  C_9
REMARK    9  A    between atoms: C_12  and  C_13
REMARK   10  A    between atoms: C_16  and  C_17
REMARK   11  A    between atoms: C_17  and  N_18
REMARK                            x       y       z     vdW  Elec       q    Type
REMARK                         _______ _______ _______ _____ _____    ______ ____
ROOT
ATOM      1  C   UNL     1       0.946   9.000  19.555  0.00  0.00    +0.000 A 
ATOM      2  N   UNL     1       0.564   9.277  20.814  0.00  0.00    +0.000 NA
ATOM      3  O   UNL     1      -0.224  10.401  20.685  0.00  0.00    +0.000 OA
ATOM      4  C   UNL     1      -0.303  10.674  19.354  0.00  0.00    +0.000 A 
ATOM      5  N   UNL     1       0.366   9.813  18.607  0.00  0.00    +0.000 NA
ENDROOT
BRANCH   1   9
ATOM      6  C   UNL     1       3.858   6.043  18.575  0.00  0.00    +0.000 A 
ATOM      7  C   UNL     1       3.588   7.103  17.702  0.00  0.00    +0.000 A 
ATOM      8  C   UNL     1       2.662   8.077  18.049  0.00  0.00    +0.000 A 
ATOM      9  C   UNL     1       1.969   8.008  19.267  0.00  0.00    +0.000 A 
ATOM     10  C   UNL     1       2.227   6.946  20.139  0.00  0.00    +0.000 A 
ATOM     11  C   UNL     1       3.167   5.970  19.793  0.00  0.00    +0.000 A 
BRANCH   6  12
ATOM     12  C   UNL     1       4.871   5.000  18.194  0.00  0.00    +0.000 C 
BRANCH  12  13
ATOM     13  C   UNL     1       4.251   3.603  18.145  0.00  0.00    +0.000 C 
BRANCH  13  14
ATOM     14  C   UNL     1       3.236   3.510  17.016  0.00  0.00    +0.000 C 
BRANCH  14  15
ATOM     15  C   UNL     1       1.856   3.145  17.552  0.00  0.00    +0.000 C 
BRANCH  15  16
ATOM     16  C   UNL     1       1.968   2.564  18.958  0.00  0.00    +0.000 C 
BRANCH  16  17
ATOM     17  C   UNL     1       0.889   3.135  19.871  0.00  0.00    +0.000 C 
BRANCH  17  19
ATOM     18  C   UNL     1       2.744   2.665  21.496  0.00  0.00    +0.000 C 
ATOM     19  C   UNL     1       1.257   2.939  21.339  0.00  0.00    +0.000 C 
ENDBRANCH  17  19
ENDBRANCH  16  17
ENDBRANCH  15  16
ENDBRANCH  14  15
ENDBRANCH  13  14
ENDBRANCH  12  13
ENDBRANCH   6  12
ENDBRANCH   1   9
BRANCH   4  20
ATOM     20  C   UNL     1      -1.022  11.917  18.812  0.00  0.00    +0.000 C 
ATOM     21  C   UNL     1      -1.971  11.700  17.651  0.00  0.00    +0.000 C 
ATOM     22  C   UNL     1      -2.526  11.957  19.021  0.00  0.00    +0.000 C 
BRANCH  20  23
ATOM     23  N   UNL     1      -0.319  13.192  19.038  0.00  0.00    +0.000 N 
ATOM     24  C   UNL     1       0.940  13.388  18.569  0.00  0.00    +0.000 C 
ATOM     25  N   UNL     1       1.655  12.659  17.793  0.00  0.00    +0.000 NA
ATOM     26  N   UNL     1       1.449  14.563  18.992  0.00  0.00    +0.000 N 
ATOM     27  H   UNL     1      -0.416  13.547  19.986  0.00  0.00    +0.000 HD
ATOM     28  H   UNL     1       1.162  11.798  17.550  0.00  0.00    +0.000 HD
ATOM     29  H   UNL     1       0.783  15.323  18.965  0.00  0.00    +0.000 HD
ATOM     30  H   UNL     1       2.282  14.788  18.457  0.00  0.00    +0.000 HD
ENDBRANCH  20  23
ENDBRANCH   4  20
TORSDOF 10
ENDMDL
MODEL 6
REMARK VINA RESULT:      -7.1      2.755      4.740
REMARK  Name = 
REMARK  11 active torsions:
REMARK  status: ('A' for Active; 'I' for Inactive)
REMARK    1  A    between atoms: C_1  and  C_2
REMARK    2  A    between atoms: C_2  and  C_3
REMARK    3  A    between atoms: C_3  and  C_4
REMARK    4  A    between atoms: C_4  and  C_5
REMARK    5  A    between atoms: C_5  and  C_6
REMARK    6  A    between atoms: C_6  and  C_7
REMARK    7  A    between atoms: C_7  and  C_8
REMARK    8  A    between atoms: C_8  and  C_9
REMARK    9  A    between atoms: C_12  and  C_13
REMARK   10  A    between atoms: C_16  and  C_17
REMARK   11  A    between atoms: C_17  and  N_18
REMARK                            x       y       z     vdW  Elec       q    Type
REMARK                         _______ _______ _______ _____ _____    ______ ____
ROOT
ATOM      1  C   UNL     1       1.327   8.984  19.422  0.00  0.00    +0.000 A 
ATOM      2  N   UNL     1       0.981   9.182  20.706  0.00  0.00    +0.000 NA
ATOM      3  O   UNL     1       0.349  10.408  20.698  0.00  0.00    +0.000 OA
ATOM      4  C   UNL     1       0.310  10.820  19.401  0.00  0.00    +0.000 A 
ATOM      5  N   UNL     1       0.861   9.957  18.565  0.00  0.00    +0.000 NA
ENDROOT
BRANCH   1   9
ATOM      6  C   UNL     1       4.015   5.842  18.385  0.00  0.00    +0.000 A 
ATOM      7  C   UNL     1       3.350   5.841  19.617  0.00  0.00    +0.000 A 
ATOM      8  C   UNL     1       2.452   6.852  19.927  0.00  0.00    +0.000 A 
ATOM      9  C   UNL     1       2.209   7.900  19.026  0.00  0.00    +0.000 A 
ATOM     10  C   UNL     1       2.878   7.911  17.798  0.00  0.00    +0.000 A 
ATOM     11  C   UNL     1       3.776   6.886  17.481  0.00  0.00    +0.000 A 
BRANCH   6  12
ATOM     12  C   UNL     1       4.978   4.735  18.056  0.00  0.00    +0.000 C 
BRANCH  12  13
ATOM     13  C   UNL     1       4.327   3.663  17.181  0.00  0.00    +0.000 C 
BRANCH  13  14
ATOM     14  C   UNL     1       2.832   3.588  17.456  0.00  0.00    +0.000 C 
BRANCH  14  15
ATOM     15  C   UNL     1       2.384   2.142  17.638  0.00  0.00    +0.000 C 
BRANCH  15  16
ATOM     16  C   UNL     1       1.285   2.054  18.692  0.00  0.00    +0.000 C 
BRANCH  16  17
ATOM     17  C   UNL     1       1.156   3.368  19.455  0.00  0.00    +0.000 C 
BRANCH  17  19
ATOM     18  C   UNL     1       2.487   2.835  21.516  0.00  0.00    +0.000 C 
ATOM     19  C   UNL     1       1.102   3.120  20.959  0.00  0.00    +0.000 C 
ENDBRANCH  17  19
ENDBRANCH  16  17
ENDBRANCH  15  16
ENDBRANCH  14  15
ENDBRANCH  13  14
ENDBRANCH  12  13
ENDBRANCH   6  12
ENDBRANCH   1   9
BRANCH   4  20
ATOM     20  C   UNL     1      -0.237  12.195  18.993  0.00  0.00    +0.000 C 
ATOM     21  C   UNL     1      -1.330  12.206  17.944  0.00  0.00    +0.000 C 
ATOM     22  C   UNL     1      -1.679  12.476  19.377  0.00  0.00    +0.000 C 
BRANCH  20  23
ATOM     23  N   UNL     1       0.698  13.319  19.182  0.00  0.00    +0.000 N 
ATOM     24  C   UNL     1       1.847  13.399  18.463  0.00  0.00    +0.000 C 
ATOM     25  N   UNL     1       2.256  12.688  17.477  0.00  0.00    +0.000 NA
ATOM     26  N   UNL     1       2.619  14.425  18.876  0.00  0.00    +0.000 N 
ATOM     27  H   UNL     1       0.859  13.554  20.158  0.00  0.00    +0.000 HD
ATOM     28  H   UNL     1       1.589  11.944  17.267  0.00  0.00    +0.000 HD
ATOM     29  H   UNL     1       2.096  15.267  19.077  0.00  0.00    +0.000 HD
ATOM     30  H   UNL     1       3.349  14.602  18.193  0.00  0.00    +0.000 HD
ENDBRANCH  20  23
ENDBRANCH   4  20
TORSDOF 10
ENDMDL
MODEL 7
REMARK VINA RESULT:      -7.0      1.556      2.566
REMARK  Name = 
REMARK  11 active torsions:
REMARK  status: ('A' for Active; 'I' for Inactive)
REMARK    1  A    between atoms: C_1  and  C_2
REMARK    2  A    between atoms: C_2  and  C_3
REMARK    3  A    between atoms: C_3  and  C_4
REMARK    4  A    between atoms: C_4  and  C_5
REMARK    5  A    between atoms: C_5  and  C_6
REMARK    6  A    between atoms: C_6  and  C_7
REMARK    7  A    between atoms: C_7  and  C_8
REMARK    8  A    between atoms: C_8  and  C_9
REMARK    9  A    between atoms: C_12  and  C_13
REMARK   10  A    between atoms: C_16  and  C_17
REMARK   11  A    between atoms: C_17  and  N_18
REMARK                            x       y       z     vdW  Elec       q    Type
REMARK                         _______ _______ _______ _____ _____    ______ ____
ROOT
ATOM      1  C   UNL     1       1.134   9.998  19.103  0.00  0.00    +0.000 A 
ATOM      2  N   UNL     1       1.800  11.122  18.785  0.00  0.00    +0.000 NA
ATOM      3  O   UNL     1       0.814  12.082  18.697  0.00  0.00    +0.000 OA
ATOM      4  C   UNL     1      -0.357  11.473  19.030  0.00  0.00    +0.000 A 
ATOM      5  N   UNL     1      -0.210  10.195  19.333  0.00  0.00    +0.000 NA
ENDROOT
BRANCH   1   9
ATOM      6  C   UNL     1       2.920   6.131  18.918  0.00  0.00    +0.000 A 
ATOM      7  C   UNL     1       2.963   6.996  17.819  0.00  0.00    +0.000 A 
ATOM      8  C   UNL     1       2.408   8.265  17.904  0.00  0.00    +0.000 A 
ATOM      9  C   UNL     1       1.778   8.696  19.081  0.00  0.00    +0.000 A 
ATOM     10  C   UNL     1       1.724   7.832  20.180  0.00  0.00    +0.000 A 
ATOM     11  C   UNL     1       2.292   6.557  20.097  0.00  0.00    +0.000 A 
BRANCH   6  12
ATOM     12  C   UNL     1       3.535   4.762  18.817  0.00  0.00    +0.000 C 
BRANCH  12  13
ATOM     13  C   UNL     1       3.262   4.120  17.457  0.00  0.00    +0.000 C 
BRANCH  13  14
ATOM     14  C   UNL     1       4.560   3.636  16.827  0.00  0.00    +0.000 C 
BRANCH  14  15
ATOM     15  C   UNL     1       5.292   4.782  16.138  0.00  0.00    +0.000 C 
BRANCH  15  16
ATOM     16  C   UNL     1       6.794   4.516  16.115  0.00  0.00    +0.000 C 
BRANCH  16  17
ATOM     17  C   UNL     1       7.411   4.755  17.489  0.00  0.00    +0.000 C 
BRANCH  17  19
ATOM     18  C   UNL     1       7.665   7.248  17.639  0.00  0.00    +0.000 C 
ATOM     19  C   UNL     1       6.874   6.039  18.112  0.00  0.00    +0.000 C 
ENDBRANCH  17  19
ENDBRANCH  16  17
ENDBRANCH  15  16
ENDBRANCH  14  15
ENDBRANCH  13  14
ENDBRANCH  12  13
ENDBRANCH   6  12
ENDBRANCH   1   9
BRANCH   4  20
ATOM     20  C   UNL     1      -1.708  12.197  18.959  0.00  0.00    +0.000 C 
ATOM     21  C   UNL     1      -2.527  12.234  20.233  0.00  0.00    +0.000 C 
ATOM     22  C   UNL     1      -1.821  13.475  19.772  0.00  0.00    +0.000 C 
BRANCH  20  23
ATOM     23  N   UNL     1      -2.319  12.246  17.618  0.00  0.00    +0.000 N 
ATOM     24  C   UNL     1      -2.792  11.120  17.024  0.00  0.00    +0.000 C 
ATOM     25  N   UNL     1      -2.934   9.935  17.496  0.00  0.00    +0.000 NA
ATOM     26  N   UNL     1      -3.188  11.357  15.758  0.00  0.00    +0.000 N 
ATOM     27  H   UNL     1      -1.802  12.819  16.957  0.00  0.00    +0.000 HD
ATOM     28  H   UNL     1      -2.592   9.885  18.457  0.00  0.00    +0.000 HD
ATOM     29  H   UNL     1      -3.693  12.227  15.650  0.00  0.00    +0.000 HD
ATOM     30  H   UNL     1      -3.736  10.572  15.417  0.00  0.00    +0.000 HD
ENDBRANCH  20  23
ENDBRANCH   4  20
TORSDOF 10
ENDMDL
MODEL 8
REMARK VINA RESULT:      -7.0      2.329      4.186
REMARK  Name = 
REMARK  11 active torsions:
REMARK  status: ('A' for Active; 'I' for Inactive)
REMARK    1  A    between atoms: C_1  and  C_2
REMARK    2  A    between atoms: C_2  and  C_3
REMARK    3  A    between atoms: C_3  and  C_4
REMARK    4  A    between atoms: C_4  and  C_5
REMARK    5  A    between atoms: C_5  and  C_6
REMARK    6  A    between atoms: C_6  and  C_7
REMARK    7  A    between atoms: C_7  and  C_8
REMARK    8  A    between atoms: C_8  and  C_9
REMARK    9  A    between atoms: C_12  and  C_13
REMARK   10  A    between atoms: C_16  and  C_17
REMARK   11  A    between atoms: C_17  and  N_18
REMARK                            x       y       z     vdW  Elec       q    Type
REMARK                         _______ _______ _______ _____ _____    ______ ____
ROOT
ATOM      1  C   UNL     1       0.812   9.324  19.286  0.00  0.00    +0.000 A 
ATOM      2  N   UNL     1       0.335   9.495  20.531  0.00  0.00    +0.000 NA
ATOM      3  O   UNL     1      -0.467  10.612  20.432  0.00  0.00    +0.000 OA
ATOM      4  C   UNL     1      -0.458  10.987  19.124  0.00  0.00    +0.000 A 
ATOM      5  N   UNL     1       0.281  10.199  18.363  0.00  0.00    +0.000 NA
ENDROOT
BRANCH   1   9
ATOM      6  C   UNL     1       3.843   6.492  18.303  0.00  0.00    +0.000 A 
ATOM      7  C   UNL     1       3.531   7.542  17.432  0.00  0.00    +0.000 A 
ATOM      8  C   UNL     1       2.567   8.476  17.780  0.00  0.00    +0.000 A 
ATOM      9  C   UNL     1       1.874   8.375  18.996  0.00  0.00    +0.000 A 
ATOM     10  C   UNL     1       2.175   7.322  19.866  0.00  0.00    +0.000 A 
ATOM     11  C   UNL     1       3.154   6.386  19.519  0.00  0.00    +0.000 A 
BRANCH   6  12
ATOM     12  C   UNL     1       4.899   5.491  17.920  0.00  0.00    +0.000 C 
BRANCH  12  13
ATOM     13  C   UNL     1       4.555   4.782  16.609  0.00  0.00    +0.000 C 
BRANCH  13  14
ATOM     14  C   UNL     1       4.441   3.281  16.831  0.00  0.00    +0.000 C 
BRANCH  14  15
ATOM     15  C   UNL     1       3.645   2.976  18.095  0.00  0.00    +0.000 C 
BRANCH  15  16
ATOM     16  C   UNL     1       2.153   3.173  17.845  0.00  0.00    +0.000 C 
BRANCH  16  17
ATOM     17  C   UNL     1       1.328   2.185  18.663  0.00  0.00    +0.000 C 
BRANCH  17  19
ATOM     18  C   UNL     1       0.863   3.934  20.402  0.00  0.00    +0.000 C 
ATOM     19  C   UNL     1       1.381   2.528  20.148  0.00  0.00    +0.000 C 
ENDBRANCH  17  19
ENDBRANCH  16  17
ENDBRANCH  15  16
ENDBRANCH  14  15
ENDBRANCH  13  14
ENDBRANCH  12  13
ENDBRANCH   6  12
ENDBRANCH   1   9
BRANCH   4  20
ATOM     20  C   UNL     1      -1.165  12.256  18.629  0.00  0.00    +0.000 C 
ATOM     21  C   UNL     1      -1.752  13.164  19.691  0.00  0.00    +0.000 C 
ATOM     22  C   UNL     1      -0.494  13.572  18.983  0.00  0.00    +0.000 C 
BRANCH  20  23
ATOM     23  N   UNL     1      -1.711  12.173  17.262  0.00  0.00    +0.000 N 
ATOM     24  C   UNL     1      -2.785  11.390  16.985  0.00  0.00    +0.000 C 
ATOM     25  N   UNL     1      -3.562  10.745  17.776  0.00  0.00    +0.000 NA
ATOM     26  N   UNL     1      -3.043  11.352  15.662  0.00  0.00    +0.000 N 
ATOM     27  H   UNL     1      -0.996  12.081  16.544  0.00  0.00    +0.000 HD
ATOM     28  H   UNL     1      -3.258  10.847  18.745  0.00  0.00    +0.000 HD
ATOM     29  H   UNL     1      -2.951  12.251  15.208  0.00  0.00    +0.000 HD
ATOM     30  H   UNL     1      -3.964  10.955  15.503  0.00  0.00    +0.000 HD
ENDBRANCH  20  23
ENDBRANCH   4  20
TORSDOF 10
ENDMDL
MODEL 9
REMARK VINA RESULT:      -7.0      3.354      5.014
REMARK  Name = 
REMARK  11 active torsions:
REMARK  status: ('A' for Active; 'I' for Inactive)
REMARK    1  A    between atoms: C_1  and  C_2
REMARK    2  A    between atoms: C_2  and  C_3
REMARK    3  A    between atoms: C_3  and  C_4
REMARK    4  A    between atoms: C_4  and  C_5
REMARK    5  A    between atoms: C_5  and  C_6
REMARK    6  A    between atoms: C_6  and  C_7
REMARK    7  A    between atoms: C_7  and  C_8
REMARK    8  A    between atoms: C_8  and  C_9
REMARK    9  A    between atoms: C_12  and  C_13
REMARK   10  A    between atoms: C_16  and  C_17
REMARK   11  A    between atoms: C_17  and  N_18
REMARK                            x       y       z     vdW  Elec       q    Type
REMARK                         _______ _______ _______ _____ _____    ______ ____
ROOT
ATOM      1  C   UNL     1       1.657   8.618  19.170  0.00  0.00    +0.000 A 
ATOM      2  N   UNL     1       1.398   8.678  20.487  0.00  0.00    +0.000 NA
ATOM      3  O   UNL     1       0.824   9.920  20.660  0.00  0.00    +0.000 OA
ATOM      4  C   UNL     1       0.727  10.482  19.424  0.00  0.00    +0.000 A 
ATOM      5  N   UNL     1       1.186   9.702  18.461  0.00  0.00    +0.000 NA
ENDROOT
BRANCH   1   9
ATOM      6  C   UNL     1       3.956   5.531  17.337  0.00  0.00    +0.000 A 
ATOM      7  C   UNL     1       4.129   6.870  16.969  0.00  0.00    +0.000 A 
ATOM      8  C   UNL     1       3.398   7.868  17.598  0.00  0.00    +0.000 A 
ATOM      9  C   UNL     1       2.463   7.554  18.596  0.00  0.00    +0.000 A 
ATOM     10  C   UNL     1       2.279   6.216  18.961  0.00  0.00    +0.000 A 
ATOM     11  C   UNL     1       3.023   5.212  18.333  0.00  0.00    +0.000 A 
BRANCH   6  12
ATOM     12  C   UNL     1       4.762   4.459  16.656  0.00  0.00    +0.000 C 
BRANCH  12  13
ATOM     13  C   UNL     1       5.182   4.878  15.247  0.00  0.00    +0.000 C 
BRANCH  13  14
ATOM     14  C   UNL     1       6.493   4.210  14.862  0.00  0.00    +0.000 C 
BRANCH  14  15
ATOM     15  C   UNL     1       6.485   3.803  13.392  0.00  0.00    +0.000 C 
BRANCH  15  16
ATOM     16  C   UNL     1       5.060   3.795  12.849  0.00  0.00    +0.000 C 
BRANCH  16  17
ATOM     17  C   UNL     1       5.007   3.160  11.464  0.00  0.00    +0.000 C 
BRANCH  17  19
ATOM     18  C   UNL     1       3.169   3.915   9.931  0.00  0.00    +0.000 C 
ATOM     19  C   UNL     1       3.565   2.935  11.023  0.00  0.00    +0.000 C 
ENDBRANCH  17  19
ENDBRANCH  16  17
ENDBRANCH  15  16
ENDBRANCH  14  15
ENDBRANCH  13  14
ENDBRANCH  12  13
ENDBRANCH   6  12
ENDBRANCH   1   9
BRANCH   4  20
ATOM     20  C   UNL     1       0.221  11.915  19.212  0.00  0.00    +0.000 C 
ATOM     21  C   UNL     1      -0.939  12.091  18.253  0.00  0.00    +0.000 C 
ATOM     22  C   UNL     1      -1.176  12.210  19.729  0.00  0.00    +0.000 C 
BRANCH  20  23
ATOM     23  N   UNL     1       1.220  12.972  19.455  0.00  0.00    +0.000 N 
ATOM     24  C   UNL     1       2.322  13.085  18.670  0.00  0.00    +0.000 C 
ATOM     25  N   UNL     1       2.629  12.473  17.585  0.00  0.00    +0.000 NA
ATOM     26  N   UNL     1       3.168  14.025  19.136  0.00  0.00    +0.000 N 
ATOM     27  H   UNL     1       1.456  13.089  20.437  0.00  0.00    +0.000 HD
ATOM     28  H   UNL     1       1.914  11.786  17.343  0.00  0.00    +0.000 HD
ATOM     29  H   UNL     1       2.701  14.861  19.464  0.00  0.00    +0.000 HD
ATOM     30  H   UNL     1       3.859  14.248  18.426  0.00  0.00    +0.000 HD
ENDBRANCH  20  23
ENDBRANCH   4  20
TORSDOF 10
ENDMDL
