MODEL 1
REMARK VINA RESULT:      -8.2      0.000      0.000
REMARK  Name = 
REMARK  6 active torsions:
REMARK  status: ('A' for Active; 'I' for Inactive)
REMARK    1  A    between atoms: C_1  and  C_2
REMARK    2  A    between atoms: C_8  and  C_9
REMARK    3  A    between atoms: CA_14  and  C_15
REMARK    4  A    between atoms: C_15  and  O_16
REMARK    5  A    between atoms: C_22  and  N_23
REMARK    6  A    between atoms: N_23  and  C_24
REMARK                            x       y       z     vdW  Elec       q    Type
REMARK                         _______ _______ _______ _____ _____    ______ ____
ROOT
ATOM      1  C   UNL     1       6.921   4.630  15.412  0.00  0.00    +0.000 C 
ATOM      2  C   UNL     1       5.728   4.993  16.237  0.00  0.00    +0.000 A 
ATOM      3  N   UNL     1       4.879   3.956  16.453  0.00  0.00    +0.000 NA
ATOM      4  C   UNL     1       3.820   4.162  17.243  0.00  0.00    +0.000 A 
ATOM      5  C   UNL     1       3.005   3.068  17.492  0.00  0.00    +0.000 A 
ATOM      6  C   UNL     1       1.901   3.162  18.325  0.00  0.00    +0.000 A 
ATOM      7  C   UNL     1       1.597   4.388  18.895  0.00  0.00    +0.000 A 
ATOM      8  C   UNL     1       2.394   5.524  18.645  0.00  0.00    +0.000 A 
ATOM      9  C   UNL     1       3.548   5.423  17.823  0.00  0.00    +0.000 A 
ATOM     10  N   UNL     1       4.405   6.464  17.578  0.00  0.00    +0.000 NA
ATOM     11  C   UNL     1       5.494   6.257  16.785  0.00  0.00    +0.000 A 
ENDROOT
BRANCH   8  12
ATOM     12  C   UNL     1       1.974   6.790  19.283  0.00  0.00    +0.000 A 
ATOM     13  C   UNL     1       1.876   7.122  20.640  0.00  0.00    +0.000 A 
ATOM     14  C   UNL     1       1.470   8.455  20.706  0.00  0.00    +0.000 A 
ATOM     15  C   UNL     1       1.326   8.913  19.429  0.00  0.00    +0.000 A 
ATOM     16  N   UNL     1       1.599   7.915  18.556  0.00  0.00    +0.000 N 
ATOM     17  CA  UNL     1       0.879  10.317  19.348  0.00  0.00    +0.000 C 
ATOM     18  N   UNL     1       0.820  10.595  20.802  0.00  0.00    +0.000 N 
ATOM     19  C   UNL     1       1.134   9.508  21.620  0.00  0.00    +0.000 C 
ATOM     20  O   UNL     1       1.110   9.477  22.835  0.00  0.00    +0.000 OA
ATOM     21  H   UNL     1       1.552   7.936  17.540  0.00  0.00    +0.000 HD
ATOM     22  H   UNL     1       0.417  11.426  21.212  0.00  0.00    +0.000 HD
BRANCH  17  23
ATOM     23  C   UNL     1       1.851  11.263  18.635  0.00  0.00    +0.000 C 
BRANCH  23  24
ATOM     24  O   UNL     1       2.306  10.752  17.380  0.00  0.00    +0.000 OA
ATOM     25  H   UNL     1       3.006  10.101  17.579  0.00  0.00    +0.000 HD
ENDBRANCH  23  24
ENDBRANCH  17  23
ENDBRANCH   8  12
BRANCH  11  26
ATOM     26  N   UNL     1       6.327   7.380  16.660  0.00  0.00    +0.000 N 
ATOM     27  H   UNL     1       6.093   7.828  15.778  0.00  0.00    +0.000 HD
BRANCH  26  28
ATOM     28  C   UNL     1       7.714   7.448  17.110  0.00  0.00    +0.000 C 
ATOM     29  C   UNL     1       8.166   8.568  18.015  0.00  0.00    +0.000 C 
ATOM     30  C   UNL     1       8.065   7.172  18.549  0.00  0.00    +0.000 C 
ENDBRANCH  26  28
ENDBRANCH  11  26
TORSDOF 5
ENDMDL
MODEL 2
REMARK VINA RESULT:      -8.2      0.832      2.172
REMARK  Name = 
REMARK  6 active torsions:
REMARK  status: ('A' for Active; 'I' for Inactive)
REMARK    1  A    between atoms: C_1  and  C_2
REMARK    2  A    between atoms: C_8  and  C_9
REMARK    3  A    between atoms: CA_14  and  C_15
REMARK    4  A    between atoms: C_15  and  O_16
REMARK    5  A    between atoms: C_22  and  N_23
REMARK    6  A    between atoms: N_23  and  C_24
REMARK                            x       y       z     vdW  Elec       q    Type
REMARK                         _______ _______ _______ _____ _____    ______ ____
ROOT
ATOM      1  C   UNL     1       6.683   4.066  15.434  0.00  0.00    +0.000 C 
ATOM      2  C   UNL     1       5.547   4.577  16.261  0.00  0.00    +0.000 A 
ATOM      3  N   UNL     1       4.675   3.609  16.646  0.00  0.00    +0.000 NA
ATOM      4  C   UNL     1       3.665   3.953  17.452  0.00  0.00    +0.000 A 
ATOM      5  C   UNL     1       2.828   2.932  17.874  0.00  0.00    +0.000 A 
ATOM      6  C   UNL     1       1.772   3.173  18.739  0.00  0.00    +0.000 A 
ATOM      7  C   UNL     1       1.538   4.472  19.163  0.00  0.00    +0.000 A 
ATOM      8  C   UNL     1       2.359   5.535  18.734  0.00  0.00    +0.000 A 
ATOM      9  C   UNL     1       3.466   5.287  17.879  0.00  0.00    +0.000 A 
ATOM     10  N   UNL     1       4.343   6.254  17.464  0.00  0.00    +0.000 NA
ATOM     11  C   UNL     1       5.383   5.908  16.655  0.00  0.00    +0.000 A 
ENDROOT
BRANCH   8  12
ATOM     12  C   UNL     1       2.014   6.887  19.225  0.00  0.00    +0.000 A 
ATOM     13  C   UNL     1       1.825   8.079  18.514  0.00  0.00    +0.000 A 
ATOM     14  C   UNL     1       1.475   9.058  19.444  0.00  0.00    +0.000 A 
ATOM     15  C   UNL     1       1.454   8.476  20.677  0.00  0.00    +0.000 A 
ATOM     16  N   UNL     1       1.803   7.171  20.569  0.00  0.00    +0.000 N 
ATOM     17  CA  UNL     1       1.113   9.408  21.769  0.00  0.00    +0.000 C 
ATOM     18  N   UNL     1       0.912  10.621  20.944  0.00  0.00    +0.000 N 
ATOM     19  C   UNL     1       1.148  10.448  19.579  0.00  0.00    +0.000 C 
ATOM     20  O   UNL     1       1.096  11.300  18.714  0.00  0.00    +0.000 OA
ATOM     21  H   UNL     1       1.906   6.483  21.311  0.00  0.00    +0.000 HD
ATOM     22  H   UNL     1       0.794  11.554  21.313  0.00  0.00    +0.000 HD
BRANCH  17  23
ATOM     23  C   UNL     1      -0.154   9.046  22.552  0.00  0.00    +0.000 C 
BRANCH  23  24
ATOM     24  O   UNL     1      -0.115   9.490  23.910  0.00  0.00    +0.000 OA
ATOM     25  H   UNL     1      -0.776  10.203  23.991  0.00  0.00    +0.000 HD
ENDBRANCH  23  24
ENDBRANCH  17  23
ENDBRANCH   8  12
BRANCH  11  26
ATOM     26  N   UNL     1       6.246   6.972  16.350  0.00  0.00    +0.000 N 
ATOM     27  H   UNL     1       6.100   7.203  15.372  0.00  0.00    +0.000 HD
BRANCH  26  28
ATOM     28  C   UNL     1       7.589   7.144  16.897  0.00  0.00    +0.000 C 
ATOM     29  C   UNL     1       7.903   8.326  17.781  0.00  0.00    +0.000 C 
ATOM     30  C   UNL     1       7.845   6.951  18.369  0.00  0.00    +0.000 C 
ENDBRANCH  26  28
ENDBRANCH  11  26
TORSDOF 5
ENDMDL
MODEL 3
REMARK VINA RESULT:      -7.9      2.003      4.618
REMARK  Name = 
REMARK  6 active torsions:
REMARK  status: ('A' for Active; 'I' for Inactive)
REMARK    1  A    between atoms: C_1  and  C_2
REMARK    2  A    between atoms: C_8  and  C_9
REMARK    3  A    between atoms: CA_14  and  C_15
REMARK    4  A    between atoms: C_15  and  O_16
REMARK    5  A    between atoms: C_22  and  N_23
REMARK    6  A    between atoms: N_23  and  C_24
REMARK                            x       y       z     vdW  Elec       q    Type
REMARK                         _______ _______ _______ _____ _____    ______ ____
ROOT
ATOM      1  C   UNL     1       3.255   1.451  18.166  0.00  0.00    +0.000 C 
ATOM      2  C   UNL     1       3.208   2.945  18.159  0.00  0.00    +0.000 A 
ATOM      3  N   UNL     1       4.200   3.518  17.429  0.00  0.00    +0.000 NA
ATOM      4  C   UNL     1       4.199   4.849  17.299  0.00  0.00    +0.000 A 
ATOM      5  C   UNL     1       5.189   5.398  16.500  0.00  0.00    +0.000 A 
ATOM      6  C   UNL     1       5.260   6.763  16.268  0.00  0.00    +0.000 A 
ATOM      7  C   UNL     1       4.332   7.593  16.878  0.00  0.00    +0.000 A 
ATOM      8  C   UNL     1       3.326   7.066  17.715  0.00  0.00    +0.000 A 
ATOM      9  C   UNL     1       3.226   5.665  17.922  0.00  0.00    +0.000 A 
ATOM     10  N   UNL     1       2.245   5.071  18.672  0.00  0.00    +0.000 NA
ATOM     11  C   UNL     1       2.231   3.715  18.797  0.00  0.00    +0.000 A 
ENDROOT
BRANCH   8  12
ATOM     12  C   UNL     1       2.398   8.036  18.336  0.00  0.00    +0.000 A 
ATOM     13  C   UNL     1       1.646   9.062  17.748  0.00  0.00    +0.000 A 
ATOM     14  C   UNL     1       0.903   9.659  18.767  0.00  0.00    +0.000 A 
ATOM     15  C   UNL     1       1.198   9.014  19.933  0.00  0.00    +0.000 A 
ATOM     16  N   UNL     1       2.119   8.049  19.698  0.00  0.00    +0.000 N 
ATOM     17  CA  UNL     1       0.490   9.558  21.108  0.00  0.00    +0.000 C 
ATOM     18  N   UNL     1      -0.286  10.608  20.409  0.00  0.00    +0.000 N 
ATOM     19  C   UNL     1      -0.038  10.706  19.039  0.00  0.00    +0.000 C 
ATOM     20  O   UNL     1      -0.514  11.514  18.265  0.00  0.00    +0.000 OA
ATOM     21  H   UNL     1       2.558   7.421  20.366  0.00  0.00    +0.000 HD
ATOM     22  H   UNL     1      -0.820  11.331  20.870  0.00  0.00    +0.000 HD
BRANCH  17  23
ATOM     23  C   UNL     1      -0.431   8.563  21.823  0.00  0.00    +0.000 C 
BRANCH  23  24
ATOM     24  O   UNL     1      -0.854   9.020  23.109  0.00  0.00    +0.000 OA
ATOM     25  H   UNL     1      -1.271   9.892  22.973  0.00  0.00    +0.000 HD
ENDBRANCH  23  24
ENDBRANCH  17  23
ENDBRANCH   8  12
BRANCH  11  26
ATOM     26  N   UNL     1       1.143   3.223  19.536  0.00  0.00    +0.000 N 
ATOM     27  H   UNL     1       0.299   3.524  19.058  0.00  0.00    +0.000 HD
BRANCH  26  28
ATOM     28  C   UNL     1       1.100   3.112  20.991  0.00  0.00    +0.000 C 
ATOM     29  C   UNL     1       2.047   2.184  21.711  0.00  0.00    +0.000 C 
ATOM     30  C   UNL     1       2.220   3.667  21.833  0.00  0.00    +0.000 C 
ENDBRANCH  26  28
ENDBRANCH  11  26
TORSDOF 5
ENDMDL
MODEL 4
REMARK VINA RESULT:      -7.6      1.008      1.092
REMARK  Name = 
REMARK  6 active torsions:
REMARK  status: ('A' for Active; 'I' for Inactive)
REMARK    1  A    between atoms: C_1  and  C_2
REMARK    2  A    between atoms: C_8  and  C_9
REMARK    3  A    between atoms: CA_14  and  C_15
REMARK    4  A    between atoms: C_15  and  O_16
REMARK    5  A    between atoms: C_22  and  N_23
REMARK    6  A    between atoms: N_23  and  C_24
REMARK                            x       y       z     vdW  Elec       q    Type
REMARK                         _______ _______ _______ _____ _____    ______ ____
ROOT
ATOM      1  C   UNL     1       6.389   4.087  16.454  0.00  0.00    +0.000 C 
ATOM      2  C   UNL     1       5.271   4.649  17.273  0.00  0.00    +0.000 A 
ATOM      3  N   UNL     1       4.548   3.705  17.930  0.00  0.00    +0.000 NA
ATOM      4  C   UNL     1       3.573   4.113  18.749  0.00  0.00    +0.000 A 
ATOM      5  C   UNL     1       2.894   3.129  19.450  0.00  0.00    +0.000 A 
ATOM      6  C   UNL     1       1.889   3.444  20.352  0.00  0.00    +0.000 A 
ATOM      7  C   UNL     1       1.544   4.775  20.529  0.00  0.00    +0.000 A 
ATOM      8  C   UNL     1       2.202   5.798  19.814  0.00  0.00    +0.000 A 
ATOM      9  C   UNL     1       3.258   5.482  18.919  0.00  0.00    +0.000 A 
ATOM     10  N   UNL     1       3.984   6.420  18.232  0.00  0.00    +0.000 NA
ATOM     11  C   UNL     1       4.988   6.011  17.407  0.00  0.00    +0.000 A 
ENDROOT
BRANCH   8  12
ATOM     12  C   UNL     1       1.746   7.183  20.058  0.00  0.00    +0.000 A 
ATOM     13  C   UNL     1       1.478   7.841  21.265  0.00  0.00    +0.000 A 
ATOM     14  C   UNL     1       1.115   9.150  20.945  0.00  0.00    +0.000 A 
ATOM     15  C   UNL     1       1.162   9.277  19.588  0.00  0.00    +0.000 A 
ATOM     16  N   UNL     1       1.514   8.093  19.032  0.00  0.00    +0.000 N 
ATOM     17  CA  UNL     1       0.781  10.618  19.104  0.00  0.00    +0.000 C 
ATOM     18  N   UNL     1       0.537  11.248  20.422  0.00  0.00    +0.000 N 
ATOM     19  C   UNL     1       0.697  10.397  21.517  0.00  0.00    +0.000 C 
ATOM     20  O   UNL     1       0.509  10.667  22.687  0.00  0.00    +0.000 OA
ATOM     21  H   UNL     1       1.605   7.863  18.046  0.00  0.00    +0.000 HD
ATOM     22  H   UNL     1       0.113  12.155  20.556  0.00  0.00    +0.000 HD
BRANCH  17  23
ATOM     23  C   UNL     1       1.875  11.356  18.324  0.00  0.00    +0.000 C 
BRANCH  23  24
ATOM     24  O   UNL     1       2.587  10.506  17.423  0.00  0.00    +0.000 OA
ATOM     25  H   UNL     1       2.082   9.673  17.366  0.00  0.00    +0.000 HD
ENDBRANCH  23  24
ENDBRANCH  17  23
ENDBRANCH   8  12
BRANCH  11  26
ATOM     26  N   UNL     1       5.698   7.065  16.810  0.00  0.00    +0.000 N 
ATOM     27  H   UNL     1       5.250   7.258  15.919  0.00  0.00    +0.000 HD
BRANCH  26  28
ATOM     28  C   UNL     1       7.142   7.262  16.903  0.00  0.00    +0.000 C 
ATOM     29  C   UNL     1       7.699   8.489  17.581  0.00  0.00    +0.000 C 
ATOM     30  C   UNL     1       7.845   7.148  18.231  0.00  0.00    +0.000 C 
ENDBRANCH  26  28
ENDBRANCH  11  26
TORSDOF 5
ENDMDL
MODEL 5
REMARK VINA RESULT:      -7.6      4.106      6.020
REMARK  Name = 
REMARK  6 active torsions:
REMARK  status: ('A' for Active; 'I' for Inactive)
REMARK    1  A    between atoms: C_1  and  C_2
REMARK    2  A    between atoms: C_8  and  C_9
REMARK    3  A    between atoms: CA_14  and  C_15
REMARK    4  A    between atoms: C_15  and  O_16
REMARK    5  A    between atoms: C_22  and  N_23
REMARK    6  A    between atoms: N_23  and  C_24
REMARK                            x       y       z     vdW  Elec       q    Type
REMARK                         _______ _______ _______ _____ _____    ______ ____
ROOT
ATOM      1  C   UNL     1       7.583   4.976  12.976  0.00  0.00    +0.000 C 
ATOM      2  C   UNL     1       6.909   4.865  14.305  0.00  0.00    +0.000 A 
ATOM      3  N   UNL     1       7.615   5.422  15.323  0.00  0.00    +0.000 NA
ATOM      4  C   UNL     1       7.060   5.440  16.540  0.00  0.00    +0.000 A 
ATOM      5  C   UNL     1       7.780   6.069  17.544  0.00  0.00    +0.000 A 
ATOM      6  C   UNL     1       7.283   6.176  18.834  0.00  0.00    +0.000 A 
ATOM      7  C   UNL     1       6.050   5.614  19.123  0.00  0.00    +0.000 A 
ATOM      8  C   UNL     1       5.303   4.949  18.128  0.00  0.00    +0.000 A 
ATOM      9  C   UNL     1       5.791   4.872  16.796  0.00  0.00    +0.000 A 
ATOM     10  N   UNL     1       5.101   4.295  15.762  0.00  0.00    +0.000 NA
ATOM     11  C   UNL     1       5.654   4.286  14.516  0.00  0.00    +0.000 A 
ENDROOT
BRANCH   8  12
ATOM     12  C   UNL     1       4.009   4.364  18.541  0.00  0.00    +0.000 A 
ATOM     13  C   UNL     1       3.123   3.548  17.826  0.00  0.00    +0.000 A 
ATOM     14  C   UNL     1       2.068   3.239  18.685  0.00  0.00    +0.000 A 
ATOM     15  C   UNL     1       2.309   3.850  19.881  0.00  0.00    +0.000 A 
ATOM     16  N   UNL     1       3.462   4.557  19.805  0.00  0.00    +0.000 N 
ATOM     17  CA  UNL     1       1.256   3.621  20.888  0.00  0.00    +0.000 C 
ATOM     18  N   UNL     1       0.382   2.747  20.073  0.00  0.00    +0.000 N 
ATOM     19  C   UNL     1       0.823   2.532  18.766  0.00  0.00    +0.000 C 
ATOM     20  O   UNL     1       0.258   1.895  17.899  0.00  0.00    +0.000 OA
ATOM     21  H   UNL     1       3.892   5.140  20.519  0.00  0.00    +0.000 HD
ATOM     22  H   UNL     1      -0.550   2.459  20.336  0.00  0.00    +0.000 HD
BRANCH  17  23
ATOM     23  C   UNL     1       1.726   2.912  22.163  0.00  0.00    +0.000 C 
BRANCH  23  24
ATOM     24  O   UNL     1       2.994   2.271  22.008  0.00  0.00    +0.000 OA
ATOM     25  H   UNL     1       3.666   2.893  22.345  0.00  0.00    +0.000 HD
ENDBRANCH  23  24
ENDBRANCH  17  23
ENDBRANCH   8  12
BRANCH  11  26
ATOM     26  N   UNL     1       4.826   3.725  13.531  0.00  0.00    +0.000 N 
ATOM     27  H   UNL     1       4.309   2.970  13.972  0.00  0.00    +0.000 HD
BRANCH  26  28
ATOM     28  C   UNL     1       5.184   3.574  12.123  0.00  0.00    +0.000 C 
ATOM     29  C   UNL     1       5.291   2.200  11.509  0.00  0.00    +0.000 C 
ATOM     30  C   UNL     1       4.162   3.105  11.121  0.00  0.00    +0.000 C 
ENDBRANCH  26  28
ENDBRANCH  11  26
TORSDOF 5
ENDMDL
MODEL 6
REMARK VINA RESULT:      -7.6      1.859      4.118
REMARK  Name = 
REMARK  6 active torsions:
REMARK  status: ('A' for Active; 'I' for Inactive)
REMARK    1  A    between atoms: C_1  and  C_2
REMARK    2  A    between atoms: C_8  and  C_9
REMARK    3  A    between atoms: CA_14  and  C_15
REMARK    4  A    between atoms: C_15  and  O_16
REMARK    5  A    between atoms: C_22  and  N_23
REMARK    6  A    between atoms: N_23  and  C_24
REMARK                            x       y       z     vdW  Elec       q    Type
REMARK                         _______ _______ _______ _____ _____    ______ ____
ROOT
ATOM      1  C   UNL     1       3.306   1.384  18.070  0.00  0.00    +0.000 C 
ATOM      2  C   UNL     1       3.279   2.878  18.093  0.00  0.00    +0.000 A 
ATOM      3  N   UNL     1       4.280   3.452  17.377  0.00  0.00    +0.000 NA
ATOM      4  C   UNL     1       4.298   4.786  17.274  0.00  0.00    +0.000 A 
ATOM      5  C   UNL     1       5.297   5.338  16.488  0.00  0.00    +0.000 A 
ATOM      6  C   UNL     1       5.386   6.707  16.285  0.00  0.00    +0.000 A 
ATOM      7  C   UNL     1       4.467   7.536  16.909  0.00  0.00    +0.000 A 
ATOM      8  C   UNL     1       3.452   7.006  17.732  0.00  0.00    +0.000 A 
ATOM      9  C   UNL     1       3.334   5.602  17.911  0.00  0.00    +0.000 A 
ATOM     10  N   UNL     1       2.342   5.006  18.646  0.00  0.00    +0.000 NA
ATOM     11  C   UNL     1       2.311   3.647  18.744  0.00  0.00    +0.000 A 
ENDROOT
BRANCH   8  12
ATOM     12  C   UNL     1       2.535   7.974  18.370  0.00  0.00    +0.000 A 
ATOM     13  C   UNL     1       1.896   7.920  19.616  0.00  0.00    +0.000 A 
ATOM     14  C   UNL     1       1.172   9.104  19.756  0.00  0.00    +0.000 A 
ATOM     15  C   UNL     1       1.366   9.849  18.630  0.00  0.00    +0.000 A 
ATOM     16  N   UNL     1       2.164   9.173  17.770  0.00  0.00    +0.000 N 
ATOM     17  CA  UNL     1       0.638  11.132  18.634  0.00  0.00    +0.000 C 
ATOM     18  N   UNL     1       0.015  11.008  19.972  0.00  0.00    +0.000 N 
ATOM     19  C   UNL     1       0.289   9.812  20.637  0.00  0.00    +0.000 C 
ATOM     20  O   UNL     1      -0.142   9.461  21.718  0.00  0.00    +0.000 OA
ATOM     21  H   UNL     1       2.466   9.450  16.839  0.00  0.00    +0.000 HD
ATOM     22  H   UNL     1      -0.699  11.625  20.333  0.00  0.00    +0.000 HD
BRANCH  17  23
ATOM     23  C   UNL     1       1.527  12.378  18.543  0.00  0.00    +0.000 C 
BRANCH  23  24
ATOM     24  O   UNL     1       2.546  12.264  17.548  0.00  0.00    +0.000 OA
ATOM     25  H   UNL     1       3.058  13.094  17.574  0.00  0.00    +0.000 HD
ENDBRANCH  23  24
ENDBRANCH  17  23
ENDBRANCH   8  12
BRANCH  11  26
ATOM     26  N   UNL     1       1.214   3.155  19.470  0.00  0.00    +0.000 N 
ATOM     27  H   UNL     1       0.381   3.360  18.926  0.00  0.00    +0.000 HD
BRANCH  26  28
ATOM     28  C   UNL     1       1.099   3.169  20.925  0.00  0.00    +0.000 C 
ATOM     29  C   UNL     1       1.918   2.217  21.762  0.00  0.00    +0.000 C 
ATOM     30  C   UNL     1       2.231   3.681  21.777  0.00  0.00    +0.000 C 
ENDBRANCH  26  28
ENDBRANCH  11  26
TORSDOF 5
ENDMDL
MODEL 7
REMARK VINA RESULT:      -7.1      3.213      7.914
REMARK  Name = 
REMARK  6 active torsions:
REMARK  status: ('A' for Active; 'I' for Inactive)
REMARK    1  A    between atoms: C_1  and  C_2
REMARK    2  A    between atoms: C_8  and  C_9
REMARK    3  A    between atoms: CA_14  and  C_15
REMARK    4  A    between atoms: C_15  and  O_16
REMARK    5  A    between atoms: C_22  and  N_23
REMARK    6  A    between atoms: N_23  and  C_24
REMARK                            x       y       z     vdW  Elec       q    Type
REMARK                         _______ _______ _______ _____ _____    ______ ____
ROOT
ATOM      1  C   UNL     1      -2.841  12.532  19.175  0.00  0.00    +0.000 C 
ATOM      2  C   UNL     1      -1.746  11.547  19.432  0.00  0.00    +0.000 A 
ATOM      3  N   UNL     1      -1.423  11.423  20.746  0.00  0.00    +0.000 NA
ATOM      4  C   UNL     1      -0.506  10.511  21.086  0.00  0.00    +0.000 A 
ATOM      5  C   UNL     1      -0.241  10.367  22.439  0.00  0.00    +0.000 A 
ATOM      6  C   UNL     1       0.665   9.426  22.904  0.00  0.00    +0.000 A 
ATOM      7  C   UNL     1       1.338   8.636  21.986  0.00  0.00    +0.000 A 
ATOM      8  C   UNL     1       1.106   8.773  20.601  0.00  0.00    +0.000 A 
ATOM      9  C   UNL     1       0.150   9.708  20.124  0.00  0.00    +0.000 A 
ATOM     10  N   UNL     1      -0.174   9.861  18.801  0.00  0.00    +0.000 NA
ATOM     11  C   UNL     1      -1.118  10.779  18.448  0.00  0.00    +0.000 A 
ENDROOT
BRANCH   8  12
ATOM     12  C   UNL     1       1.890   7.899  19.702  0.00  0.00    +0.000 A 
ATOM     13  C   UNL     1       2.645   8.223  18.568  0.00  0.00    +0.000 A 
ATOM     14  C   UNL     1       3.218   7.038  18.106  0.00  0.00    +0.000 A 
ATOM     15  C   UNL     1       2.821   6.030  18.935  0.00  0.00    +0.000 A 
ATOM     16  N   UNL     1       1.997   6.525  19.889  0.00  0.00    +0.000 N 
ATOM     17  CA  UNL     1       3.343   4.705  18.551  0.00  0.00    +0.000 C 
ATOM     18  N   UNL     1       4.135   5.132  17.374  0.00  0.00    +0.000 N 
ATOM     19  C   UNL     1       4.053   6.493  17.075  0.00  0.00    +0.000 C 
ATOM     20  O   UNL     1       4.571   7.068  16.138  0.00  0.00    +0.000 OA
ATOM     21  H   UNL     1       1.517   6.021  20.630  0.00  0.00    +0.000 HD
ATOM     22  H   UNL     1       4.563   4.502  16.709  0.00  0.00    +0.000 HD
BRANCH  17  23
ATOM     23  C   UNL     1       4.227   4.030  19.606  0.00  0.00    +0.000 C 
BRANCH  23  24
ATOM     24  O   UNL     1       5.351   3.352  19.041  0.00  0.00    +0.000 OA
ATOM     25  H   UNL     1       6.040   4.027  18.893  0.00  0.00    +0.000 HD
ENDBRANCH  23  24
ENDBRANCH  17  23
ENDBRANCH   8  12
BRANCH  11  26
ATOM     26  N   UNL     1      -1.407  10.799  17.074  0.00  0.00    +0.000 N 
ATOM     27  H   UNL     1      -1.223  11.742  16.745  0.00  0.00    +0.000 HD
BRANCH  26  28
ATOM     28  C   UNL     1      -2.487  10.053  16.436  0.00  0.00    +0.000 C 
ATOM     29  C   UNL     1      -3.828  10.705  16.206  0.00  0.00    +0.000 C 
ATOM     30  C   UNL     1      -2.937  10.402  15.041  0.00  0.00    +0.000 C 
ENDBRANCH  26  28
ENDBRANCH  11  26
TORSDOF 5
ENDMDL
MODEL 8
REMARK VINA RESULT:      -6.9      2.129      4.668
REMARK  Name = 
REMARK  6 active torsions:
REMARK  status: ('A' for Active; 'I' for Inactive)
REMARK    1  A    between atoms: C_1  and  C_2
REMARK    2  A    between atoms: C_8  and  C_9
REMARK    3  A    between atoms: CA_14  and  C_15
REMARK    4  A    between atoms: C_15  and  O_16
REMARK    5  A    between atoms: C_22  and  N_23
REMARK    6  A    between atoms: N_23  and  C_24
REMARK                            x       y       z     vdW  Elec       q    Type
REMARK                         _______ _______ _______ _____ _____    ______ ____
ROOT
ATOM      1  C   UNL     1       4.829   1.853  19.767  0.00  0.00    +0.000 C 
ATOM      2  C   UNL     1       4.452   3.248  19.385  0.00  0.00    +0.000 A 
ATOM      3  N   UNL     1       5.134   3.721  18.309  0.00  0.00    +0.000 NA
ATOM      4  C   UNL     1       4.814   4.933  17.842  0.00  0.00    +0.000 A 
ATOM      5  C   UNL     1       5.486   5.362  16.708  0.00  0.00    +0.000 A 
ATOM      6  C   UNL     1       5.206   6.586  16.121  0.00  0.00    +0.000 A 
ATOM      7  C   UNL     1       4.253   7.405  16.704  0.00  0.00    +0.000 A 
ATOM      8  C   UNL     1       3.568   7.006  17.871  0.00  0.00    +0.000 A 
ATOM      9  C   UNL     1       3.823   5.736  18.453  0.00  0.00    +0.000 A 
ATOM     10  N   UNL     1       3.159   5.252  19.550  0.00  0.00    +0.000 NA
ATOM     11  C   UNL     1       3.470   4.012  20.022  0.00  0.00    +0.000 A 
ENDROOT
BRANCH   8  12
ATOM     12  C   UNL     1       2.585   7.960  18.428  0.00  0.00    +0.000 A 
ATOM     13  C   UNL     1       1.834   8.954  17.786  0.00  0.00    +0.000 A 
ATOM     14  C   UNL     1       1.028   9.548  18.758  0.00  0.00    +0.000 A 
ATOM     15  C   UNL     1       1.285   8.933  19.948  0.00  0.00    +0.000 A 
ATOM     16  N   UNL     1       2.242   7.991  19.775  0.00  0.00    +0.000 N 
ATOM     17  CA  UNL     1       0.507   9.478  21.078  0.00  0.00    +0.000 C 
ATOM     18  N   UNL     1      -0.263  10.493  20.323  0.00  0.00    +0.000 N 
ATOM     19  C   UNL     1       0.047  10.573  18.964  0.00  0.00    +0.000 C 
ATOM     20  O   UNL     1      -0.414  11.354  18.154  0.00  0.00    +0.000 OA
ATOM     21  H   UNL     1       2.666   7.387  20.476  0.00  0.00    +0.000 HD
ATOM     22  H   UNL     1      -0.838  11.209  20.744  0.00  0.00    +0.000 HD
BRANCH  17  23
ATOM     23  C   UNL     1      -0.419   8.470  21.768  0.00  0.00    +0.000 C 
BRANCH  23  24
ATOM     24  O   UNL     1      -0.817   8.886  23.076  0.00  0.00    +0.000 OA
ATOM     25  H   UNL     1      -1.766   9.109  23.023  0.00  0.00    +0.000 HD
ENDBRANCH  23  24
ENDBRANCH  17  23
ENDBRANCH   8  12
BRANCH  11  26
ATOM     26  N   UNL     1       2.681   3.603  21.109  0.00  0.00    +0.000 N 
ATOM     27  H   UNL     1       3.317   3.342  21.857  0.00  0.00    +0.000 HD
BRANCH  26  28
ATOM     28  C   UNL     1       1.421   2.873  21.000  0.00  0.00    +0.000 C 
ATOM     29  C   UNL     1       0.335   3.365  20.076  0.00  0.00    +0.000 C 
ATOM     30  C   UNL     1       1.084   2.111  19.745  0.00  0.00    +0.000 C 
ENDBRANCH  26  28
ENDBRANCH  11  26
TORSDOF 5
ENDMDL
MODEL 9
REMARK VINA RESULT:      -6.9      6.029      9.180
REMARK  Name = 
REMARK  6 active torsions:
REMARK  status: ('A' for Active; 'I' for Inactive)
REMARK    1  A    between atoms: C_1  and  C_2
REMARK    2  A    between atoms: C_8  and  C_9
REMARK    3  A    between atoms: CA_14  and  C_15
REMARK    4  A    between atoms: C_15  and  O_16
REMARK    5  A    between atoms: C_22  and  N_23
REMARK    6  A    between atoms: N_23  and  C_24
REMARK                            x       y       z     vdW  Elec       q    Type
REMARK                         _______ _______ _______ _____ _____    ______ ____
ROOT
ATOM      1  C   UNL     1      -3.383  10.397  15.489  0.00  0.00    +0.000 C 
ATOM      2  C   UNL     1      -2.779  10.660  16.831  0.00  0.00    +0.000 A 
ATOM      3  N   UNL     1      -1.572  10.064  17.012  0.00  0.00    +0.000 NA
ATOM      4  C   UNL     1      -0.915  10.301  18.153  0.00  0.00    +0.000 A 
ATOM      5  C   UNL     1       0.339   9.726  18.282  0.00  0.00    +0.000 A 
ATOM      6  C   UNL     1       1.120   9.937  19.408  0.00  0.00    +0.000 A 
ATOM      7  C   UNL     1       0.615  10.718  20.435  0.00  0.00    +0.000 A 
ATOM      8  C   UNL     1      -0.667  11.300  20.342  0.00  0.00    +0.000 A 
ATOM      9  C   UNL     1      -1.453  11.119  19.174  0.00  0.00    +0.000 A 
ATOM     10  N   UNL     1      -2.682  11.696  18.983  0.00  0.00    +0.000 NA
ATOM     11  C   UNL     1      -3.350  11.470  17.817  0.00  0.00    +0.000 A 
ENDROOT
BRANCH   8  12
ATOM     12  C   UNL     1      -1.124  12.099  21.500  0.00  0.00    +0.000 A 
ATOM     13  C   UNL     1      -0.502  13.171  22.153  0.00  0.00    +0.000 A 
ATOM     14  C   UNL     1      -1.369  13.596  23.159  0.00  0.00    +0.000 A 
ATOM     15  C   UNL     1      -2.481  12.805  23.115  0.00  0.00    +0.000 A 
ATOM     16  N   UNL     1      -2.339  11.878  22.138  0.00  0.00    +0.000 N 
ATOM     17  CA  UNL     1      -3.485  13.134  24.145  0.00  0.00    +0.000 C 
ATOM     18  N   UNL     1      -2.771  14.272  24.768  0.00  0.00    +0.000 N 
ATOM     19  C   UNL     1      -1.513  14.543  24.226  0.00  0.00    +0.000 C 
ATOM     20  O   UNL     1      -0.724  15.389  24.597  0.00  0.00    +0.000 OA
ATOM     21  H   UNL     1      -2.981  11.132  21.880  0.00  0.00    +0.000 HD
ATOM     22  H   UNL     1      -3.048  14.722  25.629  0.00  0.00    +0.000 HD
BRANCH  17  23
ATOM     23  C   UNL     1      -4.852  13.562  23.598  0.00  0.00    +0.000 C 
BRANCH  23  24
ATOM     24  O   UNL     1      -5.363  12.663  22.612  0.00  0.00    +0.000 OA
ATOM     25  H   UNL     1      -5.467  11.797  23.049  0.00  0.00    +0.000 HD
ENDBRANCH  23  24
ENDBRANCH  17  23
ENDBRANCH   8  12
BRANCH  11  26
ATOM     26  N   UNL     1      -4.565  12.165  17.714  0.00  0.00    +0.000 N 
ATOM     27  H   UNL     1      -4.344  13.107  17.404  0.00  0.00    +0.000 HD
BRANCH  26  28
ATOM     28  C   UNL     1      -5.707  11.993  18.607  0.00  0.00    +0.000 C 
ATOM     29  C   UNL     1      -7.113  12.134  18.079  0.00  0.00    +0.000 C 
ATOM     30  C   UNL     1      -6.601  10.786  18.482  0.00  0.00    +0.000 C 
ENDBRANCH  26  28
ENDBRANCH  11  26
TORSDOF 5
ENDMDL
