MODEL 1
REMARK VINA RESULT:      -7.1      0.000      0.000
REMARK  Name = 
REMARK  4 active torsions:
REMARK  status: ('A' for Active; 'I' for Inactive)
REMARK    1  A    between atoms: C_1  and  C_2
REMARK    2  A    between atoms: C_2  and  O_3
REMARK    3  A    between atoms: O_3  and  C_4
REMARK    4  A    between atoms: C_7  and  C_8
REMARK                            x       y       z     vdW  Elec       q    Type
REMARK                         _______ _______ _______ _____ _____    ______ ____
ROOT
ATOM      1  C   UNL     1       5.670   6.183  16.783  0.00  0.00    +0.000 A 
ATOM      2  C   UNL     1       4.593   6.350  17.667  0.00  0.00    +0.000 A 
ATOM      3  C   UNL     1       3.642   5.354  17.885  0.00  0.00    +0.000 A 
ATOM      4  C   UNL     1       2.521   5.505  18.822  0.00  0.00    +0.000 A 
ATOM      5  C   UNL     1       2.323   6.736  19.664  0.00  0.00    +0.000 C 
ATOM      6  C   UNL     1       1.657   4.487  18.923  0.00  0.00    +0.000 A 
ATOM      7  C   UNL     1       1.768   3.238  18.154  0.00  0.00    +0.000 A 
ATOM      8  O   UNL     1       0.930   2.354  18.281  0.00  0.00    +0.000 OA
ATOM      9  O   UNL     1       2.857   3.115  17.308  0.00  0.00    +0.000 OA
ATOM     10  C   UNL     1       3.785   4.166  17.168  0.00  0.00    +0.000 A 
ATOM     11  C   UNL     1       4.837   3.959  16.275  0.00  0.00    +0.000 A 
ATOM     12  C   UNL     1       5.784   4.972  16.084  0.00  0.00    +0.000 A 
ATOM     13 CL   UNL     1       7.074   4.681  14.976  0.00  0.00    +0.000 Cl
ENDROOT
BRANCH   1  14
ATOM     14  O   UNL     1       6.622   7.156  16.569  0.00  0.00    +0.000 OA
BRANCH  14  16
ATOM     15  C   UNL     1       8.024   8.744  17.756  0.00  0.00    +0.000 C 
ATOM     16  C   UNL     1       7.603   7.299  17.601  0.00  0.00    +0.000 C 
ENDBRANCH  14  16
ENDBRANCH   1  14
TORSDOF 2
ENDMDL
MODEL 2
REMARK VINA RESULT:      -6.7      2.753      5.479
REMARK  Name = 
REMARK  4 active torsions:
REMARK  status: ('A' for Active; 'I' for Inactive)
REMARK    1  A    between atoms: C_1  and  C_2
REMARK    2  A    between atoms: C_2  and  O_3
REMARK    3  A    between atoms: O_3  and  C_4
REMARK    4  A    between atoms: C_7  and  C_8
REMARK                            x       y       z     vdW  Elec       q    Type
REMARK                         _______ _______ _______ _____ _____    ______ ____
ROOT
ATOM      1  C   UNL     1       3.500   4.369  19.409  0.00  0.00    +0.000 A 
ATOM      2  C   UNL     1       4.838   4.789  19.378  0.00  0.00    +0.000 A 
ATOM      3  C   UNL     1       5.548   4.937  18.186  0.00  0.00    +0.000 A 
ATOM      4  C   UNL     1       6.942   5.397  18.135  0.00  0.00    +0.000 A 
ATOM      5  C   UNL     1       7.717   5.789  19.362  0.00  0.00    +0.000 C 
ATOM      6  C   UNL     1       7.525   5.471  16.931  0.00  0.00    +0.000 A 
ATOM      7  C   UNL     1       6.852   5.122  15.671  0.00  0.00    +0.000 A 
ATOM      8  O   UNL     1       7.452   5.194  14.605  0.00  0.00    +0.000 OA
ATOM      9  O   UNL     1       5.527   4.728  15.754  0.00  0.00    +0.000 OA
ATOM     10  C   UNL     1       4.880   4.630  17.002  0.00  0.00    +0.000 A 
ATOM     11  C   UNL     1       3.551   4.203  16.988  0.00  0.00    +0.000 A 
ATOM     12  C   UNL     1       2.859   4.074  18.197  0.00  0.00    +0.000 A 
ATOM     13 CL   UNL     1       1.217   3.548  18.142  0.00  0.00    +0.000 Cl
ENDROOT
BRANCH   1  14
ATOM     14  O   UNL     1       2.786   4.230  20.580  0.00  0.00    +0.000 OA
BRANCH  14  16
ATOM     15  C   UNL     1       1.430   2.555  21.697  0.00  0.00    +0.000 C 
ATOM     16  C   UNL     1       2.795   2.921  21.159  0.00  0.00    +0.000 C 
ENDBRANCH  14  16
ENDBRANCH   1  14
TORSDOF 2
ENDMDL
MODEL 3
REMARK VINA RESULT:      -6.6      1.217      1.260
REMARK  Name = 
REMARK  4 active torsions:
REMARK  status: ('A' for Active; 'I' for Inactive)
REMARK    1  A    between atoms: C_1  and  C_2
REMARK    2  A    between atoms: C_2  and  O_3
REMARK    3  A    between atoms: O_3  and  C_4
REMARK    4  A    between atoms: C_7  and  C_8
REMARK                            x       y       z     vdW  Elec       q    Type
REMARK                         _______ _______ _______ _____ _____    ______ ____
ROOT
ATOM      1  C   UNL     1       5.488   5.361  18.158  0.00  0.00    +0.000 A 
ATOM      2  C   UNL     1       4.365   5.467  18.992  0.00  0.00    +0.000 A 
ATOM      3  C   UNL     1       3.280   4.594  18.900  0.00  0.00    +0.000 A 
ATOM      4  C   UNL     1       2.107   4.678  19.780  0.00  0.00    +0.000 A 
ATOM      5  C   UNL     1       1.987   5.689  20.886  0.00  0.00    +0.000 C 
ATOM      6  C   UNL     1       1.116   3.800  19.575  0.00  0.00    +0.000 A 
ATOM      7  C   UNL     1       1.141   2.766  18.529  0.00  0.00    +0.000 A 
ATOM      8  O   UNL     1       0.190   2.006  18.384  0.00  0.00    +0.000 OA
ATOM      9  O   UNL     1       2.279   2.693  17.744  0.00  0.00    +0.000 OA
ATOM     10  C   UNL     1       3.339   3.603  17.922  0.00  0.00    +0.000 A 
ATOM     11  C   UNL     1       4.435   3.465  17.068  0.00  0.00    +0.000 A 
ATOM     12  C   UNL     1       5.514   4.347  17.189  0.00  0.00    +0.000 A 
ATOM     13 CL   UNL     1       6.853   4.146  16.120  0.00  0.00    +0.000 Cl
ENDROOT
BRANCH   1  14
ATOM     14  O   UNL     1       6.570   6.211  18.247  0.00  0.00    +0.000 OA
BRANCH  14  16
ATOM     15  C   UNL     1       7.699   8.273  17.639  0.00  0.00    +0.000 C 
ATOM     16  C   UNL     1       6.559   7.322  17.345  0.00  0.00    +0.000 C 
ENDBRANCH  14  16
ENDBRANCH   1  14
TORSDOF 2
ENDMDL
MODEL 4
REMARK VINA RESULT:      -6.5      2.177      5.269
REMARK  Name = 
REMARK  4 active torsions:
REMARK  status: ('A' for Active; 'I' for Inactive)
REMARK    1  A    between atoms: C_1  and  C_2
REMARK    2  A    between atoms: C_2  and  O_3
REMARK    3  A    between atoms: O_3  and  C_4
REMARK    4  A    between atoms: C_7  and  C_8
REMARK                            x       y       z     vdW  Elec       q    Type
REMARK                         _______ _______ _______ _____ _____    ______ ____
ROOT
ATOM      1  C   UNL     1       2.398   3.764  18.537  0.00  0.00    +0.000 A 
ATOM      2  C   UNL     1       2.637   5.122  18.277  0.00  0.00    +0.000 A 
ATOM      3  C   UNL     1       3.854   5.585  17.776  0.00  0.00    +0.000 A 
ATOM      4  C   UNL     1       4.112   7.000  17.479  0.00  0.00    +0.000 A 
ATOM      5  C   UNL     1       3.072   8.073  17.650  0.00  0.00    +0.000 C 
ATOM      6  C   UNL     1       5.331   7.325  17.028  0.00  0.00    +0.000 A 
ATOM      7  C   UNL     1       6.412   6.351  16.815  0.00  0.00    +0.000 A 
ATOM      8  O   UNL     1       7.511   6.721  16.418  0.00  0.00    +0.000 OA
ATOM      9  O   UNL     1       6.121   5.022  17.070  0.00  0.00    +0.000 OA
ATOM     10  C   UNL     1       4.854   4.640  17.553  0.00  0.00    +0.000 A 
ATOM     11  C   UNL     1       4.661   3.281  17.802  0.00  0.00    +0.000 A 
ATOM     12  C   UNL     1       3.427   2.842  18.294  0.00  0.00    +0.000 A 
ATOM     13 CL   UNL     1       3.221   1.154  18.588  0.00  0.00    +0.000 Cl
ENDROOT
BRANCH   1  14
ATOM     14  O   UNL     1       1.196   3.295  19.022  0.00  0.00    +0.000 OA
BRANCH  14  16
ATOM     15  C   UNL     1       1.443   2.823  21.390  0.00  0.00    +0.000 C 
ATOM     16  C   UNL     1       0.847   3.733  20.339  0.00  0.00    +0.000 C 
ENDBRANCH  14  16
ENDBRANCH   1  14
TORSDOF 2
ENDMDL
MODEL 5
REMARK VINA RESULT:      -6.5      1.296      1.466
REMARK  Name = 
REMARK  4 active torsions:
REMARK  status: ('A' for Active; 'I' for Inactive)
REMARK    1  A    between atoms: C_1  and  C_2
REMARK    2  A    between atoms: C_2  and  O_3
REMARK    3  A    between atoms: O_3  and  C_4
REMARK    4  A    between atoms: C_7  and  C_8
REMARK                            x       y       z     vdW  Elec       q    Type
REMARK                         _______ _______ _______ _____ _____    ______ ____
ROOT
ATOM      1  C   UNL     1       4.957   5.857  17.118  0.00  0.00    +0.000 A 
ATOM      2  C   UNL     1       4.029   6.297  18.074  0.00  0.00    +0.000 A 
ATOM      3  C   UNL     1       3.224   5.415  18.796  0.00  0.00    +0.000 A 
ATOM      4  C   UNL     1       2.264   5.857  19.816  0.00  0.00    +0.000 A 
ATOM      5  C   UNL     1       2.091   7.300  20.203  0.00  0.00    +0.000 C 
ATOM      6  C   UNL     1       1.526   4.917  20.421  0.00  0.00    +0.000 A 
ATOM      7  C   UNL     1       1.627   3.480  20.123  0.00  0.00    +0.000 A 
ATOM      8  O   UNL     1       0.907   2.674  20.702  0.00  0.00    +0.000 OA
ATOM      9  O   UNL     1       2.569   3.096  19.184  0.00  0.00    +0.000 OA
ATOM     10  C   UNL     1       3.358   4.055  18.520  0.00  0.00    +0.000 A 
ATOM     11  C   UNL     1       4.264   3.575  17.573  0.00  0.00    +0.000 A 
ATOM     12  C   UNL     1       5.068   4.481  16.871  0.00  0.00    +0.000 A 
ATOM     13 CL   UNL     1       6.180   3.853  15.711  0.00  0.00    +0.000 Cl
ENDROOT
BRANCH   1  14
ATOM     14  O   UNL     1       5.765   6.719  16.408  0.00  0.00    +0.000 OA
BRANCH  14  16
ATOM     15  C   UNL     1       7.627   6.611  17.961  0.00  0.00    +0.000 C 
ATOM     16  C   UNL     1       6.675   7.499  17.190  0.00  0.00    +0.000 C 
ENDBRANCH  14  16
ENDBRANCH   1  14
TORSDOF 2
ENDMDL
MODEL 6
REMARK VINA RESULT:      -6.4      2.605      6.069
REMARK  Name = 
REMARK  4 active torsions:
REMARK  status: ('A' for Active; 'I' for Inactive)
REMARK    1  A    between atoms: C_1  and  C_2
REMARK    2  A    between atoms: C_2  and  O_3
REMARK    3  A    between atoms: O_3  and  C_4
REMARK    4  A    between atoms: C_7  and  C_8
REMARK                            x       y       z     vdW  Elec       q    Type
REMARK                         _______ _______ _______ _____ _____    ______ ____
ROOT
ATOM      1  C   UNL     1       4.762   3.788  16.933  0.00  0.00    +0.000 A 
ATOM      2  C   UNL     1       4.901   3.599  15.550  0.00  0.00    +0.000 A 
ATOM      3  C   UNL     1       5.928   4.189  14.813  0.00  0.00    +0.000 A 
ATOM      4  C   UNL     1       6.100   3.983  13.369  0.00  0.00    +0.000 A 
ATOM      5  C   UNL     1       5.206   3.082  12.561  0.00  0.00    +0.000 C 
ATOM      6  C   UNL     1       7.109   4.627  12.768  0.00  0.00    +0.000 A 
ATOM      7  C   UNL     1       8.044   5.519  13.469  0.00  0.00    +0.000 A 
ATOM      8  O   UNL     1       8.935   6.093  12.853  0.00  0.00    +0.000 OA
ATOM      9  O   UNL     1       7.875   5.660  14.836  0.00  0.00    +0.000 OA
ATOM     10  C   UNL     1       6.822   5.005  15.504  0.00  0.00    +0.000 A 
ATOM     11  C   UNL     1       6.717   5.226  16.878  0.00  0.00    +0.000 A 
ATOM     12  C   UNL     1       5.684   4.613  17.595  0.00  0.00    +0.000 A 
ATOM     13 CL   UNL     1       5.586   4.904  19.293  0.00  0.00    +0.000 Cl
ENDROOT
BRANCH   1  14
ATOM     14  O   UNL     1       3.757   3.201  17.672  0.00  0.00    +0.000 OA
BRANCH  14  16
ATOM     15  C   UNL     1       2.031   4.888  17.929  0.00  0.00    +0.000 C 
ATOM     16  C   UNL     1       2.423   3.568  17.304  0.00  0.00    +0.000 C 
ENDBRANCH  14  16
ENDBRANCH   1  14
TORSDOF 2
ENDMDL
MODEL 7
REMARK VINA RESULT:      -6.3      2.174      3.315
REMARK  Name = 
REMARK  4 active torsions:
REMARK  status: ('A' for Active; 'I' for Inactive)
REMARK    1  A    between atoms: C_1  and  C_2
REMARK    2  A    between atoms: C_2  and  O_3
REMARK    3  A    between atoms: O_3  and  C_4
REMARK    4  A    between atoms: C_7  and  C_8
REMARK                            x       y       z     vdW  Elec       q    Type
REMARK                         _______ _______ _______ _____ _____    ______ ____
ROOT
ATOM      1  C   UNL     1       6.014   4.603  16.765  0.00  0.00    +0.000 A 
ATOM      2  C   UNL     1       4.886   3.821  17.060  0.00  0.00    +0.000 A 
ATOM      3  C   UNL     1       3.933   4.208  18.002  0.00  0.00    +0.000 A 
ATOM      4  C   UNL     1       2.737   3.412  18.306  0.00  0.00    +0.000 A 
ATOM      5  C   UNL     1       2.411   2.126  17.599  0.00  0.00    +0.000 C 
ATOM      6  C   UNL     1       1.909   3.876  19.252  0.00  0.00    +0.000 A 
ATOM      7  C   UNL     1       2.131   5.127  19.993  0.00  0.00    +0.000 A 
ATOM      8  O   UNL     1       1.342   5.483  20.860  0.00  0.00    +0.000 OA
ATOM      9  O   UNL     1       3.249   5.870  19.653  0.00  0.00    +0.000 OA
ATOM     10  C   UNL     1       4.148   5.413  18.669  0.00  0.00    +0.000 A 
ATOM     11  C   UNL     1       5.258   6.219  18.411  0.00  0.00    +0.000 A 
ATOM     12  C   UNL     1       6.193   5.812  17.453  0.00  0.00    +0.000 A 
ATOM     13 CL   UNL     1       7.551   6.833  17.156  0.00  0.00    +0.000 Cl
ENDROOT
BRANCH   1  14
ATOM     14  O   UNL     1       6.955   4.235  15.828  0.00  0.00    +0.000 OA
BRANCH  14  16
ATOM     15  C   UNL     1       6.079   3.807  13.605  0.00  0.00    +0.000 C 
ATOM     16  C   UNL     1       6.776   4.789  14.520  0.00  0.00    +0.000 C 
ENDBRANCH  14  16
ENDBRANCH   1  14
TORSDOF 2
ENDMDL
MODEL 8
REMARK VINA RESULT:      -6.2      1.794      2.195
REMARK  Name = 
REMARK  4 active torsions:
REMARK  status: ('A' for Active; 'I' for Inactive)
REMARK    1  A    between atoms: C_1  and  C_2
REMARK    2  A    between atoms: C_2  and  O_3
REMARK    3  A    between atoms: O_3  and  C_4
REMARK    4  A    between atoms: C_7  and  C_8
REMARK                            x       y       z     vdW  Elec       q    Type
REMARK                         _______ _______ _______ _____ _____    ______ ____
ROOT
ATOM      1  C   UNL     1       5.992   4.468  17.529  0.00  0.00    +0.000 A 
ATOM      2  C   UNL     1       5.434   3.772  18.612  0.00  0.00    +0.000 A 
ATOM      3  C   UNL     1       4.116   3.314  18.607  0.00  0.00    +0.000 A 
ATOM      4  C   UNL     1       3.524   2.565  19.723  0.00  0.00    +0.000 A 
ATOM      5  C   UNL     1       4.299   2.190  20.956  0.00  0.00    +0.000 C 
ATOM      6  C   UNL     1       2.239   2.203  19.613  0.00  0.00    +0.000 A 
ATOM      7  C   UNL     1       1.399   2.511  18.446  0.00  0.00    +0.000 A 
ATOM      8  O   UNL     1       0.223   2.166  18.419  0.00  0.00    +0.000 OA
ATOM      9  O   UNL     1       2.001   3.185  17.397  0.00  0.00    +0.000 OA
ATOM     10  C   UNL     1       3.348   3.590  17.477  0.00  0.00    +0.000 A 
ATOM     11  C   UNL     1       3.861   4.284  16.380  0.00  0.00    +0.000 A 
ATOM     12  C   UNL     1       5.190   4.723  16.407  0.00  0.00    +0.000 A 
ATOM     13 CL   UNL     1       5.793   5.574  15.033  0.00  0.00    +0.000 Cl
ENDROOT
BRANCH   1  14
ATOM     14  O   UNL     1       7.296   4.916  17.518  0.00  0.00    +0.000 OA
BRANCH  14  16
ATOM     15  C   UNL     1       7.613   7.318  17.667  0.00  0.00    +0.000 C 
ATOM     16  C   UNL     1       7.585   5.999  18.408  0.00  0.00    +0.000 C 
ENDBRANCH  14  16
ENDBRANCH   1  14
TORSDOF 2
ENDMDL
MODEL 9
REMARK VINA RESULT:      -6.2      2.754      5.156
REMARK  Name = 
REMARK  4 active torsions:
REMARK  status: ('A' for Active; 'I' for Inactive)
REMARK    1  A    between atoms: C_1  and  C_2
REMARK    2  A    between atoms: C_2  and  O_3
REMARK    3  A    between atoms: O_3  and  C_4
REMARK    4  A    between atoms: C_7  and  C_8
REMARK                            x       y       z     vdW  Elec       q    Type
REMARK                         _______ _______ _______ _____ _____    ______ ____
ROOT
ATOM      1  C   UNL     1       3.340   3.980  19.499  0.00  0.00    +0.000 A 
ATOM      2  C   UNL     1       4.636   4.500  19.357  0.00  0.00    +0.000 A 
ATOM      3  C   UNL     1       5.302   4.526  18.132  0.00  0.00    +0.000 A 
ATOM      4  C   UNL     1       6.649   5.087  17.964  0.00  0.00    +0.000 A 
ATOM      5  C   UNL     1       7.415   5.722  19.091  0.00  0.00    +0.000 C 
ATOM      6  C   UNL     1       7.195   5.028  16.742  0.00  0.00    +0.000 A 
ATOM      7  C   UNL     1       6.526   4.439  15.572  0.00  0.00    +0.000 A 
ATOM      8  O   UNL     1       7.092   4.401  14.487  0.00  0.00    +0.000 OA
ATOM      9  O   UNL     1       5.242   3.955  15.760  0.00  0.00    +0.000 OA
ATOM     10  C   UNL     1       4.635   3.991  17.031  0.00  0.00    +0.000 A 
ATOM     11  C   UNL     1       3.349   3.458  17.127  0.00  0.00    +0.000 A 
ATOM     12  C   UNL     1       2.699   3.455  18.367  0.00  0.00    +0.000 A 
ATOM     13 CL   UNL     1       1.108   2.793  18.449  0.00  0.00    +0.000 Cl
ENDROOT
BRANCH   1  14
ATOM     14  O   UNL     1       2.668   3.960  20.702  0.00  0.00    +0.000 OA
BRANCH  14  16
ATOM     15  C   UNL     1       1.860   6.245  20.572  0.00  0.00    +0.000 C 
ATOM     16  C   UNL     1       1.503   4.789  20.773  0.00  0.00    +0.000 C 
ENDBRANCH  14  16
ENDBRANCH   1  14
TORSDOF 2
ENDMDL
