MODEL 1
REMARK VINA RESULT:      -7.1      0.000      0.000
REMARK  Name = 
REMARK  4 active torsions:
REMARK  status: ('A' for Active; 'I' for Inactive)
REMARK    1  A    between atoms: N_1  and  C_2
REMARK    2  A    between atoms: C_4  and  C_5
REMARK    3  A    between atoms: C_13  and  C_14
REMARK    4  A    between atoms: C_14  and  C_15
REMARK                            x       y       z     vdW  Elec       q    Type
REMARK                         _______ _______ _______ _____ _____    ______ ____
ROOT
ATOM      1  C   UNL     1       3.580   4.673  17.443  0.00  0.00    +0.000 A 
ATOM      2  C   UNL     1       2.742   5.627  18.055  0.00  0.00    +0.000 A 
ATOM      3  C   UNL     1       3.021   7.005  18.083  0.00  0.00    +0.000 A 
ATOM      4  C   UNL     1       4.179   7.413  17.425  0.00  0.00    +0.000 A 
ATOM      5  C   UNL     1       4.983   6.494  16.744  0.00  0.00    +0.000 A 
ATOM      6  C   UNL     1       4.697   5.109  16.715  0.00  0.00    +0.000 A 
ENDROOT
BRANCH   3   7
ATOM      7  C   UNL     1       2.098   7.955  18.752  0.00  0.00    +0.000 A 
ATOM      8  C   UNL     1       1.523   9.030  18.046  0.00  0.00    +0.000 A 
ATOM      9  C   UNL     1       0.738   9.994  18.687  0.00  0.00    +0.000 A 
ATOM     10  C   UNL     1       0.487   9.890  20.049  0.00  0.00    +0.000 A 
ATOM     11  C   UNL     1       1.006   8.815  20.765  0.00  0.00    +0.000 A 
ATOM     12  C   UNL     1       1.803   7.859  20.123  0.00  0.00    +0.000 A 
ENDBRANCH   3   7
BRANCH   1  13
ATOM     13  N   UNL     1       3.083   3.351  17.410  0.00  0.00    +0.000 N 
ATOM     14  H   UNL     1       3.784   2.714  17.026  0.00  0.00    +0.000 HD
ATOM     15  H   UNL     1       2.238   3.289  16.821  0.00  0.00    +0.000 HD
ENDBRANCH   1  13
BRANCH   6  16
ATOM     16  C   UNL     1       5.708   4.289  15.928  0.00  0.00    +0.000 C 
BRANCH  16  17
ATOM     17  C   UNL     1       7.164   4.658  15.733  0.00  0.00    +0.000 C 
ATOM     18  O   UNL     1       7.934   4.372  16.706  0.00  0.00    +0.000 OA
ATOM     19  O   UNL     1       7.476   5.169  14.632  0.00  0.00    +0.000 OA
ENDBRANCH  16  17
ENDBRANCH   6  16
TORSDOF 4
ENDMDL
MODEL 2
REMARK VINA RESULT:      -7.1      0.990      1.238
REMARK  Name = 
REMARK  4 active torsions:
REMARK  status: ('A' for Active; 'I' for Inactive)
REMARK    1  A    between atoms: N_1  and  C_2
REMARK    2  A    between atoms: C_4  and  C_5
REMARK    3  A    between atoms: C_13  and  C_14
REMARK    4  A    between atoms: C_14  and  C_15
REMARK                            x       y       z     vdW  Elec       q    Type
REMARK                         _______ _______ _______ _____ _____    ______ ____
ROOT
ATOM      1  C   UNL     1       4.389   4.339  17.441  0.00  0.00    +0.000 A 
ATOM      2  C   UNL     1       3.501   5.243  18.060  0.00  0.00    +0.000 A 
ATOM      3  C   UNL     1       3.509   6.630  17.822  0.00  0.00    +0.000 A 
ATOM      4  C   UNL     1       4.435   7.089  16.888  0.00  0.00    +0.000 A 
ATOM      5  C   UNL     1       5.272   6.201  16.204  0.00  0.00    +0.000 A 
ATOM      6  C   UNL     1       5.257   4.807  16.444  0.00  0.00    +0.000 A 
ENDROOT
BRANCH   3   7
ATOM      7  C   UNL     1       2.550   7.526  18.513  0.00  0.00    +0.000 A 
ATOM      8  C   UNL     1       1.988   8.637  17.854  0.00  0.00    +0.000 A 
ATOM      9  C   UNL     1       1.168   9.550  18.523  0.00  0.00    +0.000 A 
ATOM     10  C   UNL     1       0.868   9.358  19.866  0.00  0.00    +0.000 A 
ATOM     11  C   UNL     1       1.373   8.247  20.533  0.00  0.00    +0.000 A 
ATOM     12  C   UNL     1       2.205   7.341  19.864  0.00  0.00    +0.000 A 
ENDBRANCH   3   7
BRANCH   1  13
ATOM     13  N   UNL     1       4.159   2.972  17.710  0.00  0.00    +0.000 N 
ATOM     14  H   UNL     1       3.268   2.673  17.310  0.00  0.00    +0.000 HD
ATOM     15  H   UNL     1       4.128   2.797  18.727  0.00  0.00    +0.000 HD
ENDBRANCH   1  13
BRANCH   6  16
ATOM     16  C   UNL     1       6.256   4.029  15.601  0.00  0.00    +0.000 C 
BRANCH  16  17
ATOM     17  C   UNL     1       6.744   4.442  14.227  0.00  0.00    +0.000 C 
ATOM     18  O   UNL     1       6.147   3.891  13.248  0.00  0.00    +0.000 OA
ATOM     19  O   UNL     1       7.653   5.305  14.186  0.00  0.00    +0.000 OA
ENDBRANCH  16  17
ENDBRANCH   6  16
TORSDOF 4
ENDMDL
MODEL 3
REMARK VINA RESULT:      -7.1      0.116      1.171
REMARK  Name = 
REMARK  4 active torsions:
REMARK  status: ('A' for Active; 'I' for Inactive)
REMARK    1  A    between atoms: N_1  and  C_2
REMARK    2  A    between atoms: C_4  and  C_5
REMARK    3  A    between atoms: C_13  and  C_14
REMARK    4  A    between atoms: C_14  and  C_15
REMARK                            x       y       z     vdW  Elec       q    Type
REMARK                         _______ _______ _______ _____ _____    ______ ____
ROOT
ATOM      1  C   UNL     1       3.622   4.696  17.506  0.00  0.00    +0.000 A 
ATOM      2  C   UNL     1       2.803   5.655  18.137  0.00  0.00    +0.000 A 
ATOM      3  C   UNL     1       3.060   7.038  18.108  0.00  0.00    +0.000 A 
ATOM      4  C   UNL     1       4.171   7.443  17.371  0.00  0.00    +0.000 A 
ATOM      5  C   UNL     1       4.951   6.516  16.673  0.00  0.00    +0.000 A 
ATOM      6  C   UNL     1       4.687   5.127  16.702  0.00  0.00    +0.000 A 
ENDROOT
BRANCH   3   7
ATOM      7  C   UNL     1       2.161   7.993  18.800  0.00  0.00    +0.000 A 
ATOM      8  C   UNL     1       1.815   7.817  20.154  0.00  0.00    +0.000 A 
ATOM      9  C   UNL     1       0.886   8.647  20.789  0.00  0.00    +0.000 A 
ATOM     10  C   UNL     1       0.300   9.694  20.090  0.00  0.00    +0.000 A 
ATOM     11  C   UNL     1       0.655   9.921  18.764  0.00  0.00    +0.000 A 
ATOM     12  C   UNL     1       1.574   9.079  18.126  0.00  0.00    +0.000 A 
ENDBRANCH   3   7
BRANCH   1  13
ATOM     13  N   UNL     1       3.147   3.366  17.541  0.00  0.00    +0.000 N 
ATOM     14  H   UNL     1       3.330   2.945  18.455  0.00  0.00    +0.000 HD
ATOM     15  H   UNL     1       3.614   2.788  16.824  0.00  0.00    +0.000 HD
ENDBRANCH   1  13
BRANCH   6  16
ATOM     16  C   UNL     1       5.666   4.298  15.883  0.00  0.00    +0.000 C 
BRANCH  16  17
ATOM     17  C   UNL     1       7.134   4.622  15.694  0.00  0.00    +0.000 C 
ATOM     18  O   UNL     1       7.887   4.331  16.678  0.00  0.00    +0.000 OA
ATOM     19  O   UNL     1       7.469   5.105  14.586  0.00  0.00    +0.000 OA
ENDBRANCH  16  17
ENDBRANCH   6  16
TORSDOF 4
ENDMDL
MODEL 4
REMARK VINA RESULT:      -7.0      3.283      4.196
REMARK  Name = 
REMARK  4 active torsions:
REMARK  status: ('A' for Active; 'I' for Inactive)
REMARK    1  A    between atoms: N_1  and  C_2
REMARK    2  A    between atoms: C_4  and  C_5
REMARK    3  A    between atoms: C_13  and  C_14
REMARK    4  A    between atoms: C_14  and  C_15
REMARK                            x       y       z     vdW  Elec       q    Type
REMARK                         _______ _______ _______ _____ _____    ______ ____
ROOT
ATOM      1  C   UNL     1       6.410   4.688  17.845  0.00  0.00    +0.000 A 
ATOM      2  C   UNL     1       5.438   4.233  18.759  0.00  0.00    +0.000 A 
ATOM      3  C   UNL     1       4.058   4.458  18.605  0.00  0.00    +0.000 A 
ATOM      4  C   UNL     1       3.670   5.138  17.452  0.00  0.00    +0.000 A 
ATOM      5  C   UNL     1       4.610   5.530  16.494  0.00  0.00    +0.000 A 
ATOM      6  C   UNL     1       5.996   5.298  16.652  0.00  0.00    +0.000 A 
ENDROOT
BRANCH   3   7
ATOM      7  C   UNL     1       3.088   3.957  19.609  0.00  0.00    +0.000 A 
ATOM      8  C   UNL     1       3.488   3.071  20.628  0.00  0.00    +0.000 A 
ATOM      9  C   UNL     1       2.565   2.507  21.515  0.00  0.00    +0.000 A 
ATOM     10  C   UNL     1       1.220   2.839  21.420  0.00  0.00    +0.000 A 
ATOM     11  C   UNL     1       0.800   3.745  20.451  0.00  0.00    +0.000 A 
ATOM     12  C   UNL     1       1.724   4.297  19.555  0.00  0.00    +0.000 A 
ENDBRANCH   3   7
BRANCH   1  13
ATOM     13  N   UNL     1       7.735   4.270  18.100  0.00  0.00    +0.000 N 
ATOM     14  H   UNL     1       8.402   4.903  17.655  0.00  0.00    +0.000 HD
ATOM     15  H   UNL     1       7.899   3.320  17.730  0.00  0.00    +0.000 HD
ENDBRANCH   1  13
BRANCH   6  16
ATOM     16  C   UNL     1       6.841   5.816  15.497  0.00  0.00    +0.000 C 
BRANCH  16  17
ATOM     17  C   UNL     1       7.180   5.031  14.248  0.00  0.00    +0.000 C 
ATOM     18  O   UNL     1       8.101   5.529  13.523  0.00  0.00    +0.000 OA
ATOM     19  O   UNL     1       6.555   3.959  14.066  0.00  0.00    +0.000 OA
ENDBRANCH  16  17
ENDBRANCH   6  16
TORSDOF 4
ENDMDL
MODEL 5
REMARK VINA RESULT:      -7.0      3.678      4.237
REMARK  Name = 
REMARK  4 active torsions:
REMARK  status: ('A' for Active; 'I' for Inactive)
REMARK    1  A    between atoms: N_1  and  C_2
REMARK    2  A    between atoms: C_4  and  C_5
REMARK    3  A    between atoms: C_13  and  C_14
REMARK    4  A    between atoms: C_14  and  C_15
REMARK                            x       y       z     vdW  Elec       q    Type
REMARK                         _______ _______ _______ _____ _____    ______ ____
ROOT
ATOM      1  C   UNL     1       6.543   4.604  17.938  0.00  0.00    +0.000 A 
ATOM      2  C   UNL     1       5.503   4.219  18.809  0.00  0.00    +0.000 A 
ATOM      3  C   UNL     1       4.178   4.000  18.390  0.00  0.00    +0.000 A 
ATOM      4  C   UNL     1       3.931   4.145  17.026  0.00  0.00    +0.000 A 
ATOM      5  C   UNL     1       4.963   4.449  16.134  0.00  0.00    +0.000 A 
ATOM      6  C   UNL     1       6.295   4.664  16.559  0.00  0.00    +0.000 A 
ENDROOT
BRANCH   3   7
ATOM      7  C   UNL     1       3.128   3.603  19.360  0.00  0.00    +0.000 A 
ATOM      8  C   UNL     1       1.793   4.024  19.201  0.00  0.00    +0.000 A 
ATOM      9  C   UNL     1       0.817   3.747  20.163  0.00  0.00    +0.000 A 
ATOM     10  C   UNL     1       1.148   3.017  21.298  0.00  0.00    +0.000 A 
ATOM     11  C   UNL     1       2.448   2.550  21.461  0.00  0.00    +0.000 A 
ATOM     12  C   UNL     1       3.428   2.841  20.503  0.00  0.00    +0.000 A 
ENDBRANCH   3   7
BRANCH   1  13
ATOM     13  N   UNL     1       7.832   4.664  18.512  0.00  0.00    +0.000 N 
ATOM     14  H   UNL     1       7.815   5.210  19.376  0.00  0.00    +0.000 HD
ATOM     15  H   UNL     1       8.503   5.109  17.865  0.00  0.00    +0.000 HD
ENDBRANCH   1  13
BRANCH   6  16
ATOM     16  C   UNL     1       7.255   4.994  15.426  0.00  0.00    +0.000 C 
BRANCH  16  17
ATOM     17  C   UNL     1       7.017   4.678  13.964  0.00  0.00    +0.000 C 
ATOM     18  O   UNL     1       7.569   5.473  13.137  0.00  0.00    +0.000 OA
ATOM     19  O   UNL     1       6.337   3.656  13.710  0.00  0.00    +0.000 OA
ENDBRANCH  16  17
ENDBRANCH   6  16
TORSDOF 4
ENDMDL
MODEL 6
REMARK VINA RESULT:      -6.9      3.604      4.536
REMARK  Name = 
REMARK  4 active torsions:
REMARK  status: ('A' for Active; 'I' for Inactive)
REMARK    1  A    between atoms: N_1  and  C_2
REMARK    2  A    between atoms: C_4  and  C_5
REMARK    3  A    between atoms: C_13  and  C_14
REMARK    4  A    between atoms: C_14  and  C_15
REMARK                            x       y       z     vdW  Elec       q    Type
REMARK                         _______ _______ _______ _____ _____    ______ ____
ROOT
ATOM      1  C   UNL     1       6.358   5.777  18.915  0.00  0.00    +0.000 A 
ATOM      2  C   UNL     1       5.199   5.041  19.234  0.00  0.00    +0.000 A 
ATOM      3  C   UNL     1       3.965   5.208  18.579  0.00  0.00    +0.000 A 
ATOM      4  C   UNL     1       3.941   6.135  17.539  0.00  0.00    +0.000 A 
ATOM      5  C   UNL     1       5.098   6.819  17.155  0.00  0.00    +0.000 A 
ATOM      6  C   UNL     1       6.337   6.645  17.813  0.00  0.00    +0.000 A 
ENDROOT
BRANCH   3   7
ATOM      7  C   UNL     1       2.781   4.405  18.970  0.00  0.00    +0.000 A 
ATOM      8  C   UNL     1       2.272   4.449  20.282  0.00  0.00    +0.000 A 
ATOM      9  C   UNL     1       1.225   3.618  20.692  0.00  0.00    +0.000 A 
ATOM     10  C   UNL     1       0.642   2.739  19.788  0.00  0.00    +0.000 A 
ATOM     11  C   UNL     1       1.093   2.705  18.473  0.00  0.00    +0.000 A 
ATOM     12  C   UNL     1       2.152   3.528  18.068  0.00  0.00    +0.000 A 
ENDBRANCH   3   7
BRANCH   1  13
ATOM     13  N   UNL     1       7.535   5.394  19.596  0.00  0.00    +0.000 N 
ATOM     14  H   UNL     1       8.157   4.874  18.973  0.00  0.00    +0.000 HD
ATOM     15  H   UNL     1       7.314   4.790  20.404  0.00  0.00    +0.000 HD
ENDBRANCH   1  13
BRANCH   6  16
ATOM     16  C   UNL     1       7.462   7.495  17.241  0.00  0.00    +0.000 C 
BRANCH  16  17
ATOM     17  C   UNL     1       8.151   8.630  17.970  0.00  0.00    +0.000 C 
ATOM     18  O   UNL     1       8.872   8.284  18.961  0.00  0.00    +0.000 OA
ATOM     19  O   UNL     1       7.977   9.785  17.513  0.00  0.00    +0.000 OA
ENDBRANCH  16  17
ENDBRANCH   6  16
TORSDOF 4
ENDMDL
MODEL 7
REMARK VINA RESULT:      -6.9      1.119      1.819
REMARK  Name = 
REMARK  4 active torsions:
REMARK  status: ('A' for Active; 'I' for Inactive)
REMARK    1  A    between atoms: N_1  and  C_2
REMARK    2  A    between atoms: C_4  and  C_5
REMARK    3  A    between atoms: C_13  and  C_14
REMARK    4  A    between atoms: C_14  and  C_15
REMARK                            x       y       z     vdW  Elec       q    Type
REMARK                         _______ _______ _______ _____ _____    ______ ____
ROOT
ATOM      1  C   UNL     1       4.368   4.266  17.300  0.00  0.00    +0.000 A 
ATOM      2  C   UNL     1       3.550   5.199  17.969  0.00  0.00    +0.000 A 
ATOM      3  C   UNL     1       3.598   6.586  17.737  0.00  0.00    +0.000 A 
ATOM      4  C   UNL     1       4.490   7.015  16.756  0.00  0.00    +0.000 A 
ATOM      5  C   UNL     1       5.255   6.100  16.025  0.00  0.00    +0.000 A 
ATOM      6  C   UNL     1       5.200   4.706  16.260  0.00  0.00    +0.000 A 
ENDROOT
BRANCH   3   7
ATOM      7  C   UNL     1       2.713   7.514  18.481  0.00  0.00    +0.000 A 
ATOM      8  C   UNL     1       2.343   7.254  19.815  0.00  0.00    +0.000 A 
ATOM      9  C   UNL     1       1.426   8.062  20.494  0.00  0.00    +0.000 A 
ATOM     10  C   UNL     1       0.876   9.169  19.861  0.00  0.00    +0.000 A 
ATOM     11  C   UNL     1       1.256   9.478  18.558  0.00  0.00    +0.000 A 
ATOM     12  C   UNL     1       2.164   8.658  17.876  0.00  0.00    +0.000 A 
ENDBRANCH   3   7
BRANCH   1  13
ATOM     13  N   UNL     1       4.101   2.907  17.576  0.00  0.00    +0.000 N 
ATOM     14  H   UNL     1       4.971   2.374  17.629  0.00  0.00    +0.000 HD
ATOM     15  H   UNL     1       3.514   2.489  16.836  0.00  0.00    +0.000 HD
ENDBRANCH   1  13
BRANCH   6  16
ATOM     16  C   UNL     1       6.122   3.895  15.362  0.00  0.00    +0.000 C 
BRANCH  16  17
ATOM     17  C   UNL     1       6.484   4.256  13.936  0.00  0.00    +0.000 C 
ATOM     18  O   UNL     1       5.837   3.631  13.034  0.00  0.00    +0.000 OA
ATOM     19  O   UNL     1       7.350   5.149  13.780  0.00  0.00    +0.000 OA
ENDBRANCH  16  17
ENDBRANCH   6  16
TORSDOF 4
ENDMDL
MODEL 8
REMARK VINA RESULT:      -6.9      1.415      1.885
REMARK  Name = 
REMARK  4 active torsions:
REMARK  status: ('A' for Active; 'I' for Inactive)
REMARK    1  A    between atoms: N_1  and  C_2
REMARK    2  A    between atoms: C_4  and  C_5
REMARK    3  A    between atoms: C_13  and  C_14
REMARK    4  A    between atoms: C_14  and  C_15
REMARK                            x       y       z     vdW  Elec       q    Type
REMARK                         _______ _______ _______ _____ _____    ______ ____
ROOT
ATOM      1  C   UNL     1       5.216   6.459  16.816  0.00  0.00    +0.000 A 
ATOM      2  C   UNL     1       4.332   7.275  17.551  0.00  0.00    +0.000 A 
ATOM      3  C   UNL     1       3.106   6.823  18.072  0.00  0.00    +0.000 A 
ATOM      4  C   UNL     1       2.805   5.479  17.860  0.00  0.00    +0.000 A 
ATOM      5  C   UNL     1       3.703   4.633  17.202  0.00  0.00    +0.000 A 
ATOM      6  C   UNL     1       4.936   5.091  16.684  0.00  0.00    +0.000 A 
ENDROOT
BRANCH   3   7
ATOM      7  C   UNL     1       2.218   7.737  18.831  0.00  0.00    +0.000 A 
ATOM      8  C   UNL     1       1.676   8.891  18.231  0.00  0.00    +0.000 A 
ATOM      9  C   UNL     1       0.927   9.816  18.963  0.00  0.00    +0.000 A 
ATOM     10  C   UNL     1       0.677   9.595  20.311  0.00  0.00    +0.000 A 
ATOM     11  C   UNL     1       1.161   8.442  20.922  0.00  0.00    +0.000 A 
ATOM     12  C   UNL     1       1.924   7.524  20.189  0.00  0.00    +0.000 A 
ENDBRANCH   3   7
BRANCH   1  13
ATOM     13  N   UNL     1       6.453   7.049  16.472  0.00  0.00    +0.000 N 
ATOM     14  H   UNL     1       7.208   6.364  16.542  0.00  0.00    +0.000 HD
ATOM     15  H   UNL     1       6.675   7.835  17.104  0.00  0.00    +0.000 HD
ENDBRANCH   1  13
BRANCH   6  16
ATOM     16  C   UNL     1       5.754   4.008  15.996  0.00  0.00    +0.000 C 
BRANCH  16  17
ATOM     17  C   UNL     1       6.546   4.195  14.719  0.00  0.00    +0.000 C 
ATOM     18  O   UNL     1       7.619   4.871  14.837  0.00  0.00    +0.000 OA
ATOM     19  O   UNL     1       6.095   3.644  13.687  0.00  0.00    +0.000 OA
ENDBRANCH  16  17
ENDBRANCH   6  16
TORSDOF 4
ENDMDL
MODEL 9
REMARK VINA RESULT:      -6.9      3.677      4.485
REMARK  Name = 
REMARK  4 active torsions:
REMARK  status: ('A' for Active; 'I' for Inactive)
REMARK    1  A    between atoms: N_1  and  C_2
REMARK    2  A    between atoms: C_4  and  C_5
REMARK    3  A    between atoms: C_13  and  C_14
REMARK    4  A    between atoms: C_14  and  C_15
REMARK                            x       y       z     vdW  Elec       q    Type
REMARK                         _______ _______ _______ _____ _____    ______ ____
ROOT
ATOM      1  C   UNL     1       6.477   5.709  18.951  0.00  0.00    +0.000 A 
ATOM      2  C   UNL     1       5.343   4.944  19.292  0.00  0.00    +0.000 A 
ATOM      3  C   UNL     1       4.085   5.100  18.680  0.00  0.00    +0.000 A 
ATOM      4  C   UNL     1       4.010   6.045  17.659  0.00  0.00    +0.000 A 
ATOM      5  C   UNL     1       5.141   6.760  17.252  0.00  0.00    +0.000 A 
ATOM      6  C   UNL     1       6.404   6.597  17.868  0.00  0.00    +0.000 A 
ENDROOT
BRANCH   3   7
ATOM      7  C   UNL     1       2.930   4.266  19.091  0.00  0.00    +0.000 A 
ATOM      8  C   UNL     1       2.191   3.529  18.145  0.00  0.00    +0.000 A 
ATOM      9  C   UNL     1       1.037   2.825  18.502  0.00  0.00    +0.000 A 
ATOM     10  C   UNL     1       0.608   2.819  19.824  0.00  0.00    +0.000 A 
ATOM     11  C   UNL     1       1.343   3.501  20.789  0.00  0.00    +0.000 A 
ATOM     12  C   UNL     1       2.490   4.217  20.426  0.00  0.00    +0.000 A 
ENDBRANCH   3   7
BRANCH   1  13
ATOM     13  N   UNL     1       7.682   5.336  19.587  0.00  0.00    +0.000 N 
ATOM     14  H   UNL     1       8.456   5.340  18.919  0.00  0.00    +0.000 HD
ATOM     15  H   UNL     1       7.609   4.387  19.987  0.00  0.00    +0.000 HD
ENDBRANCH   1  13
BRANCH   6  16
ATOM     16  C   UNL     1       7.493   7.480  17.277  0.00  0.00    +0.000 C 
BRANCH  16  17
ATOM     17  C   UNL     1       8.139   8.654  17.983  0.00  0.00    +0.000 C 
ATOM     18  O   UNL     1       8.863   8.356  18.987  0.00  0.00    +0.000 OA
ATOM     19  O   UNL     1       7.931   9.791  17.497  0.00  0.00    +0.000 OA
ENDBRANCH  16  17
ENDBRANCH   6  16
TORSDOF 4
ENDMDL
