MODEL 1
REMARK VINA RESULT:      -8.6      0.000      0.000
REMARK  Name = 
REMARK  5 active torsions:
REMARK  status: ('A' for Active; 'I' for Inactive)
REMARK    1  A    between atoms: C_1  and  C_2
REMARK    2  A    between atoms: C_6  and  C_7
REMARK    3  A    between atoms: C_7  and  N_8
REMARK    4  A    between atoms: C_11  and  N_12
REMARK    5  A    between atoms: C_18  and  C_19
REMARK                            x       y       z     vdW  Elec       q    Type
REMARK                         _______ _______ _______ _____ _____    ______ ____
ROOT
ATOM      1  N   UNL     1      -0.120  11.542  18.902  0.00  0.00    +0.000 N 
ATOM      2  C   UNL     1       0.598  12.829  19.112  0.00  0.00    +0.000 C 
ATOM      3  C   UNL     1       0.204  13.508  20.450  0.00  0.00    +0.000 C 
ATOM      4  C   UNL     1      -1.277  13.529  20.556  0.00  0.00    +0.000 A 
ATOM      5  N   UNL     1      -2.053  14.329  21.328  0.00  0.00    +0.000 N 
ATOM      6  N   UNL     1      -3.364  14.086  21.167  0.00  0.00    +0.000 NA
ATOM      7  C   UNL     1      -3.433  13.063  20.294  0.00  0.00    +0.000 A 
ATOM      8  C   UNL     1      -2.129  12.703  19.858  0.00  0.00    +0.000 A 
ATOM      9  C   UNL     1      -1.611  11.702  18.874  0.00  0.00    +0.000 C 
ATOM     10  H   UNL     1      -1.772  15.058  21.977  0.00  0.00    +0.000 HD
ENDROOT
BRANCH   1  14
ATOM     11  N   UNL     1       1.975   7.899  19.204  0.00  0.00    +0.000 N 
ATOM     12  C   UNL     1       1.803   8.525  17.984  0.00  0.00    +0.000 A 
ATOM     13  C   UNL     1       1.080   9.647  17.866  0.00  0.00    +0.000 A 
ATOM     14  C   UNL     1       0.464  10.271  19.026  0.00  0.00    +0.000 A 
ATOM     15  C   UNL     1       0.533   9.601  20.192  0.00  0.00    +0.000 A 
ATOM     16  C   UNL     1       1.313   8.343  20.343  0.00  0.00    +0.000 A 
ATOM     17  O   UNL     1       1.388   7.819  21.453  0.00  0.00    +0.000 OA
BRANCH  11  18
ATOM     18  C   UNL     1       2.964   6.834  19.338  0.00  0.00    +0.000 C 
BRANCH  18  24
ATOM     19  C   UNL     1       1.586   2.603  21.706  0.00  0.00    +0.000 C 
ATOM     20  C   UNL     1       1.698   3.396  20.438  0.00  0.00    +0.000 A 
ATOM     21  C   UNL     1       1.316   2.849  19.209  0.00  0.00    +0.000 A 
ATOM     22  C   UNL     1       1.464   3.585  18.033  0.00  0.00    +0.000 A 
ATOM     23  C   UNL     1       2.006   4.869  18.075  0.00  0.00    +0.000 A 
ATOM     24  C   UNL     1       2.389   5.439  19.295  0.00  0.00    +0.000 A 
ATOM     25  C   UNL     1       2.222   4.696  20.473  0.00  0.00    +0.000 A 
ENDBRANCH  18  24
ENDBRANCH  11  18
ENDBRANCH   1  14
BRANCH   7  26
ATOM     26  C   UNL     1      -4.726  12.491  19.913  0.00  0.00    +0.000 A 
ATOM     27  C   UNL     1      -5.730  12.317  20.870  0.00  0.00    +0.000 A 
ATOM     28  C   UNL     1      -6.929  11.749  20.476  0.00  0.00    +0.000 A 
ATOM     29  N   UNL     1      -7.200  11.361  19.214  0.00  0.00    +0.000 NA
ATOM     30  C   UNL     1      -6.216  11.526  18.307  0.00  0.00    +0.000 A 
ATOM     31  C   UNL     1      -4.980  12.071  18.604  0.00  0.00    +0.000 A 
ENDBRANCH   7  26
TORSDOF 4
ENDMDL
MODEL 2
REMARK VINA RESULT:      -8.6      4.236     10.532
REMARK  Name = 
REMARK  5 active torsions:
REMARK  status: ('A' for Active; 'I' for Inactive)
REMARK    1  A    between atoms: C_1  and  C_2
REMARK    2  A    between atoms: C_6  and  C_7
REMARK    3  A    between atoms: C_7  and  N_8
REMARK    4  A    between atoms: C_11  and  N_12
REMARK    5  A    between atoms: C_18  and  C_19
REMARK                            x       y       z     vdW  Elec       q    Type
REMARK                         _______ _______ _______ _____ _____    ______ ____
ROOT
ATOM      1  N   UNL     1       3.749   5.444  18.516  0.00  0.00    +0.000 N 
ATOM      2  C   UNL     1       4.374   4.744  19.673  0.00  0.00    +0.000 C 
ATOM      3  C   UNL     1       5.907   4.977  19.740  0.00  0.00    +0.000 C 
ATOM      4  C   UNL     1       6.487   4.724  18.397  0.00  0.00    +0.000 A 
ATOM      5  N   UNL     1       7.772   4.437  18.077  0.00  0.00    +0.000 N 
ATOM      6  N   UNL     1       7.947   4.253  16.758  0.00  0.00    +0.000 NA
ATOM      7  C   UNL     1       6.740   4.474  16.204  0.00  0.00    +0.000 A 
ATOM      8  C   UNL     1       5.779   4.744  17.216  0.00  0.00    +0.000 A 
ATOM      9  C   UNL     1       4.305   5.000  17.195  0.00  0.00    +0.000 C 
ATOM     10  H   UNL     1       8.577   4.342  18.689  0.00  0.00    +0.000 HD
ENDROOT
BRANCH   1  14
ATOM     11  N   UNL     1       1.598   9.014  19.123  0.00  0.00    +0.000 N 
ATOM     12  C   UNL     1       1.432   7.929  19.963  0.00  0.00    +0.000 A 
ATOM     13  C   UNL     1       2.058   6.766  19.739  0.00  0.00    +0.000 A 
ATOM     14  C   UNL     1       2.964   6.603  18.613  0.00  0.00    +0.000 A 
ATOM     15  C   UNL     1       3.035   7.619  17.731  0.00  0.00    +0.000 A 
ATOM     16  C   UNL     1       2.333   8.913  17.948  0.00  0.00    +0.000 A 
ATOM     17  O   UNL     1       2.496   9.821  17.135  0.00  0.00    +0.000 OA
BRANCH  11  18
ATOM     18  C   UNL     1       1.106  10.327  19.531  0.00  0.00    +0.000 C 
BRANCH  18  24
ATOM     19  C   UNL     1      -2.629   9.720  16.202  0.00  0.00    +0.000 C 
ATOM     20  C   UNL     1      -2.116  10.335  17.470  0.00  0.00    +0.000 A 
ATOM     21  C   UNL     1      -2.900  11.228  18.207  0.00  0.00    +0.000 A 
ATOM     22  C   UNL     1      -2.393  11.822  19.363  0.00  0.00    +0.000 A 
ATOM     23  C   UNL     1      -1.094  11.538  19.784  0.00  0.00    +0.000 A 
ATOM     24  C   UNL     1      -0.294  10.642  19.065  0.00  0.00    +0.000 A 
ATOM     25  C   UNL     1      -0.819  10.038  17.913  0.00  0.00    +0.000 A 
ENDBRANCH  18  24
ENDBRANCH  11  18
ENDBRANCH   1  14
BRANCH   7  26
ATOM     26  C   UNL     1       6.560   4.408  14.752  0.00  0.00    +0.000 A 
ATOM     27  C   UNL     1       5.459   3.742  14.207  0.00  0.00    +0.000 A 
ATOM     28  C   UNL     1       5.337   3.680  12.830  0.00  0.00    +0.000 A 
ATOM     29  N   UNL     1       6.214   4.238  11.970  0.00  0.00    +0.000 NA
ATOM     30  C   UNL     1       7.275   4.867  12.514  0.00  0.00    +0.000 A 
ATOM     31  C   UNL     1       7.493   4.972  13.876  0.00  0.00    +0.000 A 
ENDBRANCH   7  26
TORSDOF 4
ENDMDL
MODEL 3
REMARK VINA RESULT:      -8.5      0.612      1.085
REMARK  Name = 
REMARK  5 active torsions:
REMARK  status: ('A' for Active; 'I' for Inactive)
REMARK    1  A    between atoms: C_1  and  C_2
REMARK    2  A    between atoms: C_6  and  C_7
REMARK    3  A    between atoms: C_7  and  N_8
REMARK    4  A    between atoms: C_11  and  N_12
REMARK    5  A    between atoms: C_18  and  C_19
REMARK                            x       y       z     vdW  Elec       q    Type
REMARK                         _______ _______ _______ _____ _____    ______ ____
ROOT
ATOM      1  N   UNL     1       0.187  11.536  18.877  0.00  0.00    +0.000 N 
ATOM      2  C   UNL     1       1.006  12.779  18.847  0.00  0.00    +0.000 C 
ATOM      3  C   UNL     1       0.894  13.587  20.167  0.00  0.00    +0.000 C 
ATOM      4  C   UNL     1      -0.542  13.726  20.520  0.00  0.00    +0.000 A 
ATOM      5  N   UNL     1      -1.122  14.638  21.339  0.00  0.00    +0.000 N 
ATOM      6  N   UNL     1      -2.453  14.481  21.425  0.00  0.00    +0.000 NA
ATOM      7  C   UNL     1      -2.735  13.402  20.670  0.00  0.00    +0.000 A 
ATOM      8  C   UNL     1      -1.551  12.914  20.052  0.00  0.00    +0.000 A 
ATOM      9  C   UNL     1      -1.274  11.804  19.088  0.00  0.00    +0.000 C 
ATOM     10  H   UNL     1      -0.689  15.392  21.863  0.00  0.00    +0.000 HD
ENDROOT
BRANCH   1  14
ATOM     11  N   UNL     1       2.097   7.797  19.210  0.00  0.00    +0.000 N 
ATOM     12  C   UNL     1       1.950   8.416  17.983  0.00  0.00    +0.000 A 
ATOM     13  C   UNL     1       1.284   9.572  17.856  0.00  0.00    +0.000 A 
ATOM     14  C   UNL     1       0.707  10.240  19.013  0.00  0.00    +0.000 A 
ATOM     15  C   UNL     1       0.748   9.579  20.186  0.00  0.00    +0.000 A 
ATOM     16  C   UNL     1       1.465   8.286  20.347  0.00  0.00    +0.000 A 
ATOM     17  O   UNL     1       1.519   7.771  21.462  0.00  0.00    +0.000 OA
BRANCH  11  18
ATOM     18  C   UNL     1       3.032   6.684  19.350  0.00  0.00    +0.000 C 
BRANCH  18  24
ATOM     19  C   UNL     1       1.342   2.558  21.700  0.00  0.00    +0.000 C 
ATOM     20  C   UNL     1       1.550   3.328  20.430  0.00  0.00    +0.000 A 
ATOM     21  C   UNL     1       1.195   2.784  19.191  0.00  0.00    +0.000 A 
ATOM     22  C   UNL     1       1.430   3.496  18.015  0.00  0.00    +0.000 A 
ATOM     23  C   UNL     1       2.034   4.753  18.068  0.00  0.00    +0.000 A 
ATOM     24  C   UNL     1       2.391   5.319  19.297  0.00  0.00    +0.000 A 
ATOM     25  C   UNL     1       2.135   4.600  20.475  0.00  0.00    +0.000 A 
ENDBRANCH  18  24
ENDBRANCH  11  18
ENDBRANCH   1  14
BRANCH   7  26
ATOM     26  C   UNL     1      -4.106  12.899  20.566  0.00  0.00    +0.000 A 
ATOM     27  C   UNL     1      -4.580  12.385  19.356  0.00  0.00    +0.000 A 
ATOM     28  C   UNL     1      -5.889  11.942  19.291  0.00  0.00    +0.000 A 
ATOM     29  N   UNL     1      -6.744  11.963  20.334  0.00  0.00    +0.000 NA
ATOM     30  C   UNL     1      -6.273  12.473  21.490  0.00  0.00    +0.000 A 
ATOM     31  C   UNL     1      -4.986  12.952  21.652  0.00  0.00    +0.000 A 
ENDBRANCH   7  26
TORSDOF 4
ENDMDL
MODEL 4
REMARK VINA RESULT:      -8.4      1.843      2.273
REMARK  Name = 
REMARK  5 active torsions:
REMARK  status: ('A' for Active; 'I' for Inactive)
REMARK    1  A    between atoms: C_1  and  C_2
REMARK    2  A    between atoms: C_6  and  C_7
REMARK    3  A    between atoms: C_7  and  N_8
REMARK    4  A    between atoms: C_11  and  N_12
REMARK    5  A    between atoms: C_18  and  C_19
REMARK                            x       y       z     vdW  Elec       q    Type
REMARK                         _______ _______ _______ _____ _____    ______ ____
ROOT
ATOM      1  N   UNL     1       0.348  11.582  19.129  0.00  0.00    +0.000 N 
ATOM      2  C   UNL     1       1.100  12.754  18.602  0.00  0.00    +0.000 C 
ATOM      3  C   UNL     1       1.618  13.676  19.737  0.00  0.00    +0.000 C 
ATOM      4  C   UNL     1       0.501  13.950  20.676  0.00  0.00    +0.000 A 
ATOM      5  N   UNL     1       0.379  14.968  21.563  0.00  0.00    +0.000 N 
ATOM      6  N   UNL     1      -0.774  14.919  22.249  0.00  0.00    +0.000 NA
ATOM      7  C   UNL     1      -1.397  13.804  21.822  0.00  0.00    +0.000 A 
ATOM      8  C   UNL     1      -0.633  13.178  20.799  0.00  0.00    +0.000 A 
ATOM      9  C   UNL     1      -0.852  11.974  19.939  0.00  0.00    +0.000 C 
ATOM     10  H   UNL     1       1.023  15.731  21.753  0.00  0.00    +0.000 HD
ENDROOT
BRANCH   1  14
ATOM     11  N   UNL     1       2.170   7.784  19.167  0.00  0.00    +0.000 N 
ATOM     12  C   UNL     1       2.071   8.517  17.999  0.00  0.00    +0.000 A 
ATOM     13  C   UNL     1       1.434   9.694  17.962  0.00  0.00    +0.000 A 
ATOM     14  C   UNL     1       0.837  10.266  19.158  0.00  0.00    +0.000 A 
ATOM     15  C   UNL     1       0.830   9.501  20.266  0.00  0.00    +0.000 A 
ATOM     16  C   UNL     1       1.515   8.181  20.327  0.00  0.00    +0.000 A 
ATOM     17  O   UNL     1       1.526   7.565  21.391  0.00  0.00    +0.000 OA
BRANCH  11  18
ATOM     18  C   UNL     1       3.077   6.641  19.230  0.00  0.00    +0.000 C 
BRANCH  18  24
ATOM     19  C   UNL     1       1.448   2.525  21.640  0.00  0.00    +0.000 C 
ATOM     20  C   UNL     1       1.579   3.312  20.369  0.00  0.00    +0.000 A 
ATOM     21  C   UNL     1       1.112   2.802  19.154  0.00  0.00    +0.000 A 
ATOM     22  C   UNL     1       1.277   3.528  17.975  0.00  0.00    +0.000 A 
ATOM     23  C   UNL     1       1.921   4.765  17.999  0.00  0.00    +0.000 A 
ATOM     24  C   UNL     1       2.391   5.297  19.206  0.00  0.00    +0.000 A 
ATOM     25  C   UNL     1       2.206   4.565  20.388  0.00  0.00    +0.000 A 
ENDBRANCH  18  24
ENDBRANCH  11  18
ENDBRANCH   1  14
BRANCH   7  26
ATOM     26  C   UNL     1      -2.680  13.396  22.396  0.00  0.00    +0.000 A 
ATOM     27  C   UNL     1      -3.880  13.823  21.818  0.00  0.00    +0.000 A 
ATOM     28  C   UNL     1      -5.072  13.437  22.405  0.00  0.00    +0.000 A 
ATOM     29  N   UNL     1      -5.154  12.658  23.502  0.00  0.00    +0.000 NA
ATOM     30  C   UNL     1      -3.988  12.265  24.052  0.00  0.00    +0.000 A 
ATOM     31  C   UNL     1      -2.746  12.608  23.549  0.00  0.00    +0.000 A 
ENDBRANCH   7  26
TORSDOF 4
ENDMDL
MODEL 5
REMARK VINA RESULT:      -8.4      4.221     10.575
REMARK  Name = 
REMARK  5 active torsions:
REMARK  status: ('A' for Active; 'I' for Inactive)
REMARK    1  A    between atoms: C_1  and  C_2
REMARK    2  A    between atoms: C_6  and  C_7
REMARK    3  A    between atoms: C_7  and  N_8
REMARK    4  A    between atoms: C_11  and  N_12
REMARK    5  A    between atoms: C_18  and  C_19
REMARK                            x       y       z     vdW  Elec       q    Type
REMARK                         _______ _______ _______ _____ _____    ______ ____
ROOT
ATOM      1  N   UNL     1       3.768   5.428  18.491  0.00  0.00    +0.000 N 
ATOM      2  C   UNL     1       4.373   4.718  19.651  0.00  0.00    +0.000 C 
ATOM      3  C   UNL     1       5.903   4.956  19.751  0.00  0.00    +0.000 C 
ATOM      4  C   UNL     1       6.511   4.720  18.417  0.00  0.00    +0.000 A 
ATOM      5  N   UNL     1       7.804   4.442  18.120  0.00  0.00    +0.000 N 
ATOM      6  N   UNL     1       8.005   4.274  16.803  0.00  0.00    +0.000 NA
ATOM      7  C   UNL     1       6.808   4.495  16.227  0.00  0.00    +0.000 A 
ATOM      8  C   UNL     1       5.826   4.750  17.223  0.00  0.00    +0.000 A 
ATOM      9  C   UNL     1       4.352   5.001  17.176  0.00  0.00    +0.000 C 
ATOM     10  H   UNL     1       8.597   4.344  18.746  0.00  0.00    +0.000 HD
ENDROOT
BRANCH   1  14
ATOM     11  N   UNL     1       1.596   8.987  19.090  0.00  0.00    +0.000 N 
ATOM     12  C   UNL     1       1.433   7.901  19.930  0.00  0.00    +0.000 A 
ATOM     13  C   UNL     1       2.067   6.741  19.708  0.00  0.00    +0.000 A 
ATOM     14  C   UNL     1       2.977   6.583  18.585  0.00  0.00    +0.000 A 
ATOM     15  C   UNL     1       3.045   7.599  17.703  0.00  0.00    +0.000 A 
ATOM     16  C   UNL     1       2.335   8.889  17.917  0.00  0.00    +0.000 A 
ATOM     17  O   UNL     1       2.495   9.798  17.105  0.00  0.00    +0.000 OA
BRANCH  11  18
ATOM     18  C   UNL     1       1.095  10.297  19.497  0.00  0.00    +0.000 C 
BRANCH  18  24
ATOM     19  C   UNL     1      -3.290  12.692  20.157  0.00  0.00    +0.000 C 
ATOM     20  C   UNL     1      -2.431  11.769  19.344  0.00  0.00    +0.000 A 
ATOM     21  C   UNL     1      -2.928  11.147  18.193  0.00  0.00    +0.000 A 
ATOM     22  C   UNL     1      -2.130  10.261  17.470  0.00  0.00    +0.000 A 
ATOM     23  C   UNL     1      -0.833   9.979  17.899  0.00  0.00    +0.000 A 
ATOM     24  C   UNL     1      -0.313  10.595  19.044  0.00  0.00    +0.000 A 
ATOM     25  C   UNL     1      -1.119  11.496  19.755  0.00  0.00    +0.000 A 
ENDBRANCH  18  24
ENDBRANCH  11  18
ENDBRANCH   1  14
BRANCH   7  26
ATOM     26  C   UNL     1       6.657   4.445  14.771  0.00  0.00    +0.000 A 
ATOM     27  C   UNL     1       5.630   3.692  14.194  0.00  0.00    +0.000 A 
ATOM     28  C   UNL     1       5.536   3.650  12.814  0.00  0.00    +0.000 A 
ATOM     29  N   UNL     1       6.370   4.305  11.981  0.00  0.00    +0.000 NA
ATOM     30  C   UNL     1       7.360   5.017  12.556  0.00  0.00    +0.000 A 
ATOM     31  C   UNL     1       7.547   5.111  13.923  0.00  0.00    +0.000 A 
ENDBRANCH   7  26
TORSDOF 4
ENDMDL
MODEL 6
REMARK VINA RESULT:      -8.3      1.197      1.420
REMARK  Name = 
REMARK  5 active torsions:
REMARK  status: ('A' for Active; 'I' for Inactive)
REMARK    1  A    between atoms: C_1  and  C_2
REMARK    2  A    between atoms: C_6  and  C_7
REMARK    3  A    between atoms: C_7  and  N_8
REMARK    4  A    between atoms: C_11  and  N_12
REMARK    5  A    between atoms: C_18  and  C_19
REMARK                            x       y       z     vdW  Elec       q    Type
REMARK                         _______ _______ _______ _____ _____    ______ ____
ROOT
ATOM      1  N   UNL     1      -0.858  11.807  18.916  0.00  0.00    +0.000 N 
ATOM      2  C   UNL     1      -0.251  13.060  18.390  0.00  0.00    +0.000 C 
ATOM      3  C   UNL     1      -0.048  14.125  19.501  0.00  0.00    +0.000 C 
ATOM      4  C   UNL     1      -1.310  14.252  20.275  0.00  0.00    +0.000 A 
ATOM      5  N   UNL     1      -1.716  15.282  21.056  0.00  0.00    +0.000 N 
ATOM      6  N   UNL     1      -2.925  15.070  21.602  0.00  0.00    +0.000 NA
ATOM      7  C   UNL     1      -3.290  13.839  21.194  0.00  0.00    +0.000 A 
ATOM      8  C   UNL     1      -2.304  13.300  20.323  0.00  0.00    +0.000 A 
ATOM      9  C   UNL     1      -2.203  12.028  19.543  0.00  0.00    +0.000 C 
ATOM     10  H   UNL     1      -1.240  16.156  21.260  0.00  0.00    +0.000 HD
ENDROOT
BRANCH   1  14
ATOM     11  N   UNL     1       1.547   8.381  19.388  0.00  0.00    +0.000 N 
ATOM     12  C   UNL     1       1.247   8.875  18.132  0.00  0.00    +0.000 A 
ATOM     13  C   UNL     1       0.428   9.923  17.968  0.00  0.00    +0.000 A 
ATOM     14  C   UNL     1      -0.164  10.603  19.110  0.00  0.00    +0.000 A 
ATOM     15  C   UNL     1       0.033  10.050  20.322  0.00  0.00    +0.000 A 
ATOM     16  C   UNL     1       0.924   8.876  20.527  0.00  0.00    +0.000 A 
ATOM     17  O   UNL     1       1.111   8.464  21.670  0.00  0.00    +0.000 OA
BRANCH  11  18
ATOM     18  C   UNL     1       2.628   7.412  19.544  0.00  0.00    +0.000 C 
BRANCH  18  24
ATOM     19  C   UNL     1       1.341   2.923  21.441  0.00  0.00    +0.000 C 
ATOM     20  C   UNL     1       1.567   3.806  20.249  0.00  0.00    +0.000 A 
ATOM     21  C   UNL     1       1.439   3.308  18.948  0.00  0.00    +0.000 A 
ATOM     22  C   UNL     1       1.692   4.131  17.851  0.00  0.00    +0.000 A 
ATOM     23  C   UNL     1       2.086   5.454  18.045  0.00  0.00    +0.000 A 
ATOM     24  C   UNL     1       2.214   5.976  19.339  0.00  0.00    +0.000 A 
ATOM     25  C   UNL     1       1.942   5.143  20.435  0.00  0.00    +0.000 A 
ENDBRANCH  18  24
ENDBRANCH  11  18
ENDBRANCH   1  14
BRANCH   7  26
ATOM     26  C   UNL     1      -4.551  13.246  21.642  0.00  0.00    +0.000 A 
ATOM     27  C   UNL     1      -4.925  13.314  22.987  0.00  0.00    +0.000 A 
ATOM     28  C   UNL     1      -6.113  12.720  23.375  0.00  0.00    +0.000 A 
ATOM     29  N   UNL     1      -6.949  12.084  22.529  0.00  0.00    +0.000 NA
ATOM     30  C   UNL     1      -6.567  12.019  21.238  0.00  0.00    +0.000 A 
ATOM     31  C   UNL     1      -5.393  12.569  20.754  0.00  0.00    +0.000 A 
ENDBRANCH   7  26
TORSDOF 4
ENDMDL
MODEL 7
REMARK VINA RESULT:      -8.2      0.846      1.067
REMARK  Name = 
REMARK  5 active torsions:
REMARK  status: ('A' for Active; 'I' for Inactive)
REMARK    1  A    between atoms: C_1  and  C_2
REMARK    2  A    between atoms: C_6  and  C_7
REMARK    3  A    between atoms: C_7  and  N_8
REMARK    4  A    between atoms: C_11  and  N_12
REMARK    5  A    between atoms: C_18  and  C_19
REMARK                            x       y       z     vdW  Elec       q    Type
REMARK                         _______ _______ _______ _____ _____    ______ ____
ROOT
ATOM      1  N   UNL     1       0.144  11.379  18.667  0.00  0.00    +0.000 N 
ATOM      2  C   UNL     1       0.889  12.667  18.692  0.00  0.00    +0.000 C 
ATOM      3  C   UNL     1       0.609  13.481  19.984  0.00  0.00    +0.000 C 
ATOM      4  C   UNL     1      -0.859  13.540  20.201  0.00  0.00    +0.000 A 
ATOM      5  N   UNL     1      -1.563  14.424  20.948  0.00  0.00    +0.000 N 
ATOM      6  N   UNL     1      -2.885  14.191  20.914  0.00  0.00    +0.000 NA
ATOM      7  C   UNL     1      -3.034  13.089  20.154  0.00  0.00    +0.000 A 
ATOM      8  C   UNL     1      -1.772  12.664  19.656  0.00  0.00    +0.000 A 
ATOM      9  C   UNL     1      -1.343  11.563  18.739  0.00  0.00    +0.000 C 
ATOM     10  H   UNL     1      -1.224  15.209  21.498  0.00  0.00    +0.000 HD
ENDROOT
BRANCH   1  14
ATOM     11  N   UNL     1       2.227   7.763  19.244  0.00  0.00    +0.000 N 
ATOM     12  C   UNL     1       2.186   8.373  18.005  0.00  0.00    +0.000 A 
ATOM     13  C   UNL     1       1.470   9.486  17.794  0.00  0.00    +0.000 A 
ATOM     14  C   UNL     1       0.723  10.116  18.871  0.00  0.00    +0.000 A 
ATOM     15  C   UNL     1       0.667   9.459  20.045  0.00  0.00    +0.000 A 
ATOM     16  C   UNL     1       1.438   8.211  20.297  0.00  0.00    +0.000 A 
ATOM     17  O   UNL     1       1.393   7.700  21.414  0.00  0.00    +0.000 OA
BRANCH  11  18
ATOM     18  C   UNL     1       3.205   6.710  19.500  0.00  0.00    +0.000 C 
BRANCH  18  24
ATOM     19  C   UNL     1       0.576   2.461  18.835  0.00  0.00    +0.000 C 
ATOM     20  C   UNL     1       1.675   3.382  18.397  0.00  0.00    +0.000 A 
ATOM     21  C   UNL     1       2.503   3.055  17.318  0.00  0.00    +0.000 A 
ATOM     22  C   UNL     1       3.546   3.903  16.947  0.00  0.00    +0.000 A 
ATOM     23  C   UNL     1       3.778   5.079  17.661  0.00  0.00    +0.000 A 
ATOM     24  C   UNL     1       2.958   5.430  18.740  0.00  0.00    +0.000 A 
ATOM     25  C   UNL     1       1.902   4.577  19.094  0.00  0.00    +0.000 A 
ENDBRANCH  18  24
ENDBRANCH  11  18
ENDBRANCH   1  14
BRANCH   7  26
ATOM     26  C   UNL     1      -4.358  12.506  19.933  0.00  0.00    +0.000 A 
ATOM     27  C   UNL     1      -5.294  12.466  20.970  0.00  0.00    +0.000 A 
ATOM     28  C   UNL     1      -6.526  11.884  20.729  0.00  0.00    +0.000 A 
ATOM     29  N   UNL     1      -6.892  11.359  19.543  0.00  0.00    +0.000 NA
ATOM     30  C   UNL     1      -5.972  11.396  18.557  0.00  0.00    +0.000 A 
ATOM     31  C   UNL     1      -4.711  11.943  18.702  0.00  0.00    +0.000 A 
ENDBRANCH   7  26
TORSDOF 4
ENDMDL
MODEL 8
REMARK VINA RESULT:      -8.2      3.143      9.977
REMARK  Name = 
REMARK  5 active torsions:
REMARK  status: ('A' for Active; 'I' for Inactive)
REMARK    1  A    between atoms: C_1  and  C_2
REMARK    2  A    between atoms: C_6  and  C_7
REMARK    3  A    between atoms: C_7  and  N_8
REMARK    4  A    between atoms: C_11  and  N_12
REMARK    5  A    between atoms: C_18  and  C_19
REMARK                            x       y       z     vdW  Elec       q    Type
REMARK                         _______ _______ _______ _____ _____    ______ ____
ROOT
ATOM      1  N   UNL     1       1.968   6.318  19.082  0.00  0.00    +0.000 N 
ATOM      2  C   UNL     1       1.530   5.266  20.040  0.00  0.00    +0.000 C 
ATOM      3  C   UNL     1       2.723   4.644  20.814  0.00  0.00    +0.000 C 
ATOM      4  C   UNL     1       3.784   4.279  19.841  0.00  0.00    +0.000 A 
ATOM      5  N   UNL     1       4.800   3.396  19.997  0.00  0.00    +0.000 N 
ATOM      6  N   UNL     1       5.574   3.301  18.904  0.00  0.00    +0.000 NA
ATOM      7  C   UNL     1       5.065   4.188  18.028  0.00  0.00    +0.000 A 
ATOM      8  C   UNL     1       3.907   4.807  18.575  0.00  0.00    +0.000 A 
ATOM      9  C   UNL     1       2.924   5.803  18.047  0.00  0.00    +0.000 C 
ATOM     10  H   UNL     1       5.028   2.820  20.802  0.00  0.00    +0.000 HD
ENDROOT
BRANCH   1  14
ATOM     11  N   UNL     1       1.123  10.431  19.411  0.00  0.00    +0.000 N 
ATOM     12  C   UNL     1       1.647   9.901  18.247  0.00  0.00    +0.000 A 
ATOM     13  C   UNL     1       1.983   8.607  18.155  0.00  0.00    +0.000 A 
ATOM     14  C   UNL     1       1.788   7.697  19.272  0.00  0.00    +0.000 A 
ATOM     15  C   UNL     1       1.389   8.236  20.440  0.00  0.00    +0.000 A 
ATOM     16  C   UNL     1       1.027   9.673  20.572  0.00  0.00    +0.000 A 
ATOM     17  O   UNL     1       0.607  10.084  21.651  0.00  0.00    +0.000 OA
BRANCH  11  18
ATOM     18  C   UNL     1       0.538  11.769  19.397  0.00  0.00    +0.000 C 
BRANCH  18  24
ATOM     19  C   UNL     1      -3.510  10.516  16.668  0.00  0.00    +0.000 C 
ATOM     20  C   UNL     1      -2.922  11.174  17.881  0.00  0.00    +0.000 A 
ATOM     21  C   UNL     1      -3.733  11.848  18.800  0.00  0.00    +0.000 A 
ATOM     22  C   UNL     1      -3.168  12.488  19.902  0.00  0.00    +0.000 A 
ATOM     23  C   UNL     1      -1.786  12.470  20.088  0.00  0.00    +0.000 A 
ATOM     24  C   UNL     1      -0.955  11.796  19.185  0.00  0.00    +0.000 A 
ATOM     25  C   UNL     1      -1.536  11.142  18.088  0.00  0.00    +0.000 A 
ENDBRANCH  18  24
ENDBRANCH  11  18
ENDBRANCH   1  14
BRANCH   7  26
ATOM     26  C   UNL     1       5.694   4.396  16.722  0.00  0.00    +0.000 A 
ATOM     27  C   UNL     1       4.996   4.103  15.547  0.00  0.00    +0.000 A 
ATOM     28  C   UNL     1       5.633   4.289  14.334  0.00  0.00    +0.000 A 
ATOM     29  N   UNL     1       6.893   4.752  14.208  0.00  0.00    +0.000 NA
ATOM     30  C   UNL     1       7.555   5.019  15.352  0.00  0.00    +0.000 A 
ATOM     31  C   UNL     1       7.011   4.854  16.612  0.00  0.00    +0.000 A 
ENDBRANCH   7  26
TORSDOF 4
ENDMDL
MODEL 9
REMARK VINA RESULT:      -8.2      2.294      2.633
REMARK  Name = 
REMARK  5 active torsions:
REMARK  status: ('A' for Active; 'I' for Inactive)
REMARK    1  A    between atoms: C_1  and  C_2
REMARK    2  A    between atoms: C_6  and  C_7
REMARK    3  A    between atoms: C_7  and  N_8
REMARK    4  A    between atoms: C_11  and  N_12
REMARK    5  A    between atoms: C_18  and  C_19
REMARK                            x       y       z     vdW  Elec       q    Type
REMARK                         _______ _______ _______ _____ _____    ______ ____
ROOT
ATOM      1  N   UNL     1       0.922  11.498  18.998  0.00  0.00    +0.000 N 
ATOM      2  C   UNL     1       1.750  12.595  18.429  0.00  0.00    +0.000 C 
ATOM      3  C   UNL     1       2.386  13.483  19.531  0.00  0.00    +0.000 C 
ATOM      4  C   UNL     1       1.330  13.862  20.505  0.00  0.00    +0.000 A 
ATOM      5  N   UNL     1       1.327  14.896  21.381  0.00  0.00    +0.000 N 
ATOM      6  N   UNL     1       0.199  14.953  22.108  0.00  0.00    +0.000 NA
ATOM      7  C   UNL     1      -0.531  13.890  21.719  0.00  0.00    +0.000 A 
ATOM      8  C   UNL     1       0.140  13.190  20.679  0.00  0.00    +0.000 A 
ATOM      9  C   UNL     1      -0.211  11.999  19.844  0.00  0.00    +0.000 C 
ATOM     10  H   UNL     1       2.039  15.603  21.537  0.00  0.00    +0.000 HD
ENDROOT
BRANCH   1  14
ATOM     11  N   UNL     1       2.420   7.561  19.075  0.00  0.00    +0.000 N 
ATOM     12  C   UNL     1       2.480   8.326  17.925  0.00  0.00    +0.000 A 
ATOM     13  C   UNL     1       1.945   9.553  17.870  0.00  0.00    +0.000 A 
ATOM     14  C   UNL     1       1.298  10.146  19.030  0.00  0.00    +0.000 A 
ATOM     15  C   UNL     1       1.136   9.358  20.110  0.00  0.00    +0.000 A 
ATOM     16  C   UNL     1       1.704   7.986  20.189  0.00  0.00    +0.000 A 
ATOM     17  O   UNL     1       1.575   7.347  21.231  0.00  0.00    +0.000 OA
BRANCH  11  18
ATOM     18  C   UNL     1       3.223   6.346  19.179  0.00  0.00    +0.000 C 
BRANCH  18  24
ATOM     19  C   UNL     1       1.359   2.429  21.745  0.00  0.00    +0.000 C 
ATOM     20  C   UNL     1       1.496   3.181  20.454  0.00  0.00    +0.000 A 
ATOM     21  C   UNL     1       0.926   2.697  19.273  0.00  0.00    +0.000 A 
ATOM     22  C   UNL     1       1.096   3.387  18.073  0.00  0.00    +0.000 A 
ATOM     23  C   UNL     1       1.847   4.562  18.043  0.00  0.00    +0.000 A 
ATOM     24  C   UNL     1       2.422   5.069  19.215  0.00  0.00    +0.000 A 
ATOM     25  C   UNL     1       2.231   4.374  20.419  0.00  0.00    +0.000 A 
ENDBRANCH  18  24
ENDBRANCH  11  18
ENDBRANCH   1  14
BRANCH   7  26
ATOM     26  C   UNL     1      -1.822  13.600  22.344  0.00  0.00    +0.000 A 
ATOM     27  C   UNL     1      -1.989  12.450  23.120  0.00  0.00    +0.000 A 
ATOM     28  C   UNL     1      -3.232  12.198  23.673  0.00  0.00    +0.000 A 
ATOM     29  N   UNL     1      -4.302  13.005  23.522  0.00  0.00    +0.000 NA
ATOM     30  C   UNL     1      -4.125  14.104  22.760  0.00  0.00    +0.000 A 
ATOM     31  C   UNL     1      -2.927  14.436  22.154  0.00  0.00    +0.000 A 
ENDBRANCH   7  26
TORSDOF 4
ENDMDL
