MODEL 1
REMARK VINA RESULT:      -7.9      0.000      0.000
REMARK  Name = 
REMARK  7 active torsions:
REMARK  status: ('A' for Active; 'I' for Inactive)
REMARK    1  A    between atoms: C_2  and  C_3
REMARK    2  A    between atoms: N_5  and  C_6
REMARK    3  A    between atoms: C_9  and  C_10
REMARK    4  A    between atoms: C_11  and  C_12
REMARK    5  A    between atoms: C_18  and  C_19
REMARK    6  A    between atoms: C_26  and  N_27
REMARK    7  A    between atoms: N_30  and  C_31
REMARK                            x       y       z     vdW  Elec       q    Type
REMARK                         _______ _______ _______ _____ _____    ______ ____
ROOT
ATOM      1  C   UNL     1      -0.296  11.163  19.259  0.00  0.00    +0.000 A 
ATOM      2  N   UNL     1       0.291  12.089  20.024  0.00  0.00    +0.000 NA
ATOM      3  C   UNL     1      -0.487  13.032  20.564  0.00  0.00    +0.000 A 
ATOM      4  N   UNL     1       0.069  14.072  21.339  0.00  0.00    +0.000 N 
ATOM      5  C   UNL     1       1.365  14.431  21.314  0.00  0.00    +0.000 A 
ATOM      6  C   UNL     1       2.141  14.491  20.135  0.00  0.00    +0.000 A 
ATOM      7  C   UNL     1       3.407  14.782  20.565  0.00  0.00    +0.000 A 
ATOM      8  N   UNL     1       3.318  14.956  21.914  0.00  0.00    +0.000 N 
ATOM      9  N   UNL     1       2.069  14.800  22.387  0.00  0.00    +0.000 NA
ATOM     10  C   UNL     1      -1.840  13.043  20.342  0.00  0.00    +0.000 A 
ATOM     11  C   UNL     1      -2.380  12.067  19.520  0.00  0.00    +0.000 A 
ATOM     12  N   UNL     1      -1.609  11.122  18.959  0.00  0.00    +0.000 NA
ATOM     13  H   UNL     1      -0.360  14.106  22.256  0.00  0.00    +0.000 HD
ATOM     14  H   UNL     1       4.054  15.174  22.576  0.00  0.00    +0.000 HD
ENDROOT
BRANCH  11  15
ATOM     15  N   UNL     1      -3.728  12.159  19.218  0.00  0.00    +0.000 N 
ATOM     16  C   UNL     1      -4.320  11.281  18.209  0.00  0.00    +0.000 C 
ATOM     17  C   UNL     1      -5.510  12.045  17.563  0.00  0.00    +0.000 C 
ATOM     18  N   UNL     1      -6.513  12.505  18.559  0.00  0.00    +0.000 NA
ATOM     19  C   UNL     1      -7.567  13.282  17.912  0.00  0.00    +0.000 C 
ATOM     20  C   UNL     1      -5.847  13.316  19.603  0.00  0.00    +0.000 C 
ATOM     21  C   UNL     1      -4.672  12.570  20.266  0.00  0.00    +0.000 C 
ENDBRANCH  11  15
BRANCH   7  22
ATOM     22  C   UNL     1       4.629  14.813  19.680  0.00  0.00    +0.000 C 
ATOM     23  C   UNL     1       4.435  14.439  18.203  0.00  0.00    +0.000 C 
ATOM     24  O   UNL     1       5.127  15.640  17.773  0.00  0.00    +0.000 OA
ATOM     25  C   UNL     1       4.927  16.209  19.093  0.00  0.00    +0.000 C 
ENDBRANCH   7  22
BRANCH   1  27
ATOM     26  C   UNL     1       1.012   9.029  19.469  0.00  0.00    +0.000 C 
ATOM     27  C   UNL     1       0.615  10.117  18.791  0.00  0.00    +0.000 C 
BRANCH  26  31
ATOM     28  C   UNL     1       4.026   6.250  18.136  0.00  0.00    +0.000 A 
ATOM     29  C   UNL     1       3.319   6.059  19.324  0.00  0.00    +0.000 A 
ATOM     30  C   UNL     1       2.329   6.963  19.727  0.00  0.00    +0.000 A 
ATOM     31  C   UNL     1       2.025   8.088  18.959  0.00  0.00    +0.000 A 
ATOM     32  C   UNL     1       2.708   8.259  17.746  0.00  0.00    +0.000 A 
ATOM     33  C   UNL     1       3.712   7.359  17.347  0.00  0.00    +0.000 A 
BRANCH  28  36
ATOM     34  C   UNL     1       6.413   5.680  17.733  0.00  0.00    +0.000 C 
ATOM     35  O   UNL     1       6.938   6.674  18.218  0.00  0.00    +0.000 OA
ATOM     36  N   UNL     1       5.063   5.388  17.705  0.00  0.00    +0.000 N 
ATOM     37  H   UNL     1       4.779   4.471  17.389  0.00  0.00    +0.000 HD
BRANCH  34  39
ATOM     38  C   UNL     1       7.045   4.281  15.836  0.00  0.00    +0.000 C 
ATOM     39  C   UNL     1       7.254   4.613  17.117  0.00  0.00    +0.000 C 
ENDBRANCH  34  39
ENDBRANCH  28  36
ENDBRANCH  26  31
ENDBRANCH   1  27
TORSDOF 6
ENDMDL
MODEL 2
REMARK VINA RESULT:      -7.8      0.807      1.144
REMARK  Name = 
REMARK  7 active torsions:
REMARK  status: ('A' for Active; 'I' for Inactive)
REMARK    1  A    between atoms: C_2  and  C_3
REMARK    2  A    between atoms: N_5  and  C_6
REMARK    3  A    between atoms: C_9  and  C_10
REMARK    4  A    between atoms: C_11  and  C_12
REMARK    5  A    between atoms: C_18  and  C_19
REMARK    6  A    between atoms: C_26  and  N_27
REMARK    7  A    between atoms: N_30  and  C_31
REMARK                            x       y       z     vdW  Elec       q    Type
REMARK                         _______ _______ _______ _____ _____    ______ ____
ROOT
ATOM      1  C   UNL     1      -0.553  11.262  19.330  0.00  0.00    +0.000 A 
ATOM      2  N   UNL     1       0.045  12.195  20.079  0.00  0.00    +0.000 NA
ATOM      3  C   UNL     1      -0.724  13.147  20.615  0.00  0.00    +0.000 A 
ATOM      4  N   UNL     1      -0.156  14.194  21.371  0.00  0.00    +0.000 N 
ATOM      5  C   UNL     1       1.141  14.547  21.330  0.00  0.00    +0.000 A 
ATOM      6  C   UNL     1       1.905  14.591  20.142  0.00  0.00    +0.000 A 
ATOM      7  C   UNL     1       3.177  14.882  20.556  0.00  0.00    +0.000 A 
ATOM      8  N   UNL     1       3.102  15.072  21.904  0.00  0.00    +0.000 N 
ATOM      9  N   UNL     1       1.857  14.926  22.391  0.00  0.00    +0.000 NA
ATOM     10  C   UNL     1      -2.079  13.160  20.406  0.00  0.00    +0.000 A 
ATOM     11  C   UNL     1      -2.631  12.177  19.602  0.00  0.00    +0.000 A 
ATOM     12  N   UNL     1      -1.869  11.222  19.043  0.00  0.00    +0.000 NA
ATOM     13  H   UNL     1      -0.575  14.240  22.293  0.00  0.00    +0.000 HD
ATOM     14  H   UNL     1       3.846  15.295  22.556  0.00  0.00    +0.000 HD
ENDROOT
BRANCH  11  15
ATOM     15  N   UNL     1      -3.981  12.271  19.311  0.00  0.00    +0.000 N 
ATOM     16  C   UNL     1      -4.568  11.447  18.256  0.00  0.00    +0.000 C 
ATOM     17  C   UNL     1      -5.771  12.233  17.661  0.00  0.00    +0.000 C 
ATOM     18  N   UNL     1      -6.774  12.621  18.688  0.00  0.00    +0.000 NA
ATOM     19  C   UNL     1      -7.840  13.423  18.092  0.00  0.00    +0.000 C 
ATOM     20  C   UNL     1      -6.112  13.378  19.775  0.00  0.00    +0.000 C 
ATOM     21  C   UNL     1      -4.924  12.608  20.387  0.00  0.00    +0.000 C 
ENDBRANCH  11  15
BRANCH   7  22
ATOM     22  C   UNL     1       4.389  14.898  19.659  0.00  0.00    +0.000 C 
ATOM     23  C   UNL     1       4.255  14.224  18.285  0.00  0.00    +0.000 C 
ATOM     24  O   UNL     1       4.788  15.398  17.619  0.00  0.00    +0.000 OA
ATOM     25  C   UNL     1       4.508  16.181  18.808  0.00  0.00    +0.000 C 
ENDBRANCH   7  22
BRANCH   1  27
ATOM     26  C   UNL     1       0.914   9.242  19.608  0.00  0.00    +0.000 C 
ATOM     27  C   UNL     1       0.350  10.207  18.866  0.00  0.00    +0.000 C 
BRANCH  26  31
ATOM     28  C   UNL     1       3.753   6.491  17.887  0.00  0.00    +0.000 A 
ATOM     29  C   UNL     1       3.420   7.695  17.264  0.00  0.00    +0.000 A 
ATOM     30  C   UNL     1       2.511   8.583  17.851  0.00  0.00    +0.000 A 
ATOM     31  C   UNL     1       1.904   8.289  19.073  0.00  0.00    +0.000 A 
ATOM     32  C   UNL     1       2.268   7.099  19.718  0.00  0.00    +0.000 A 
ATOM     33  C   UNL     1       3.169   6.199  19.122  0.00  0.00    +0.000 A 
BRANCH  28  36
ATOM     34  C   UNL     1       5.241   5.653  16.080  0.00  0.00    +0.000 C 
ATOM     35  O   UNL     1       5.200   6.618  15.328  0.00  0.00    +0.000 OA
ATOM     36  N   UNL     1       4.634   5.542  17.316  0.00  0.00    +0.000 N 
ATOM     37  H   UNL     1       4.858   4.740  17.888  0.00  0.00    +0.000 HD
BRANCH  34  39
ATOM     38  C   UNL     1       6.683   4.430  14.537  0.00  0.00    +0.000 C 
ATOM     39  C   UNL     1       6.033   4.445  15.709  0.00  0.00    +0.000 C 
ENDBRANCH  34  39
ENDBRANCH  28  36
ENDBRANCH  26  31
ENDBRANCH   1  27
TORSDOF 6
ENDMDL
MODEL 3
REMARK VINA RESULT:      -7.8      2.501      3.180
REMARK  Name = 
REMARK  7 active torsions:
REMARK  status: ('A' for Active; 'I' for Inactive)
REMARK    1  A    between atoms: C_2  and  C_3
REMARK    2  A    between atoms: N_5  and  C_6
REMARK    3  A    between atoms: C_9  and  C_10
REMARK    4  A    between atoms: C_11  and  C_12
REMARK    5  A    between atoms: C_18  and  C_19
REMARK    6  A    between atoms: C_26  and  N_27
REMARK    7  A    between atoms: N_30  and  C_31
REMARK                            x       y       z     vdW  Elec       q    Type
REMARK                         _______ _______ _______ _____ _____    ______ ____
ROOT
ATOM      1  C   UNL     1      -0.154  12.282  21.623  0.00  0.00    +0.000 A 
ATOM      2  N   UNL     1       0.551  13.397  21.842  0.00  0.00    +0.000 NA
ATOM      3  C   UNL     1      -0.071  14.416  22.443  0.00  0.00    +0.000 A 
ATOM      4  N   UNL     1       0.593  15.642  22.658  0.00  0.00    +0.000 N 
ATOM      5  C   UNL     1       1.702  16.033  22.005  0.00  0.00    +0.000 A 
ATOM      6  C   UNL     1       1.918  15.817  20.626  0.00  0.00    +0.000 A 
ATOM      7  C   UNL     1       3.194  16.259  20.400  0.00  0.00    +0.000 A 
ATOM      8  N   UNL     1       3.632  16.772  21.584  0.00  0.00    +0.000 N 
ATOM      9  N   UNL     1       2.717  16.694  22.566  0.00  0.00    +0.000 NA
ATOM     10  C   UNL     1      -1.385  14.315  22.823  0.00  0.00    +0.000 A 
ATOM     11  C   UNL     1      -2.063  13.140  22.545  0.00  0.00    +0.000 A 
ATOM     12  N   UNL     1      -1.455  12.113  21.929  0.00  0.00    +0.000 NA
ATOM     13  H   UNL     1       0.571  15.895  23.639  0.00  0.00    +0.000 HD
ATOM     14  H   UNL     1       4.533  17.183  21.804  0.00  0.00    +0.000 HD
ENDROOT
BRANCH  11  15
ATOM     15  N   UNL     1      -3.416  13.098  22.834  0.00  0.00    +0.000 N 
ATOM     16  C   UNL     1      -3.882  13.276  24.208  0.00  0.00    +0.000 C 
ATOM     17  C   UNL     1      -5.207  12.477  24.361  0.00  0.00    +0.000 C 
ATOM     18  N   UNL     1      -6.240  12.871  23.366  0.00  0.00    +0.000 NA
ATOM     19  C   UNL     1      -7.433  12.038  23.501  0.00  0.00    +0.000 C 
ATOM     20  C   UNL     1      -5.688  12.754  21.998  0.00  0.00    +0.000 C 
ATOM     21  C   UNL     1      -4.379  13.552  21.822  0.00  0.00    +0.000 C 
ENDBRANCH  11  15
BRANCH   7  22
ATOM     22  C   UNL     1       3.936  16.108  19.095  0.00  0.00    +0.000 C 
ATOM     23  C   UNL     1       3.807  14.764  18.365  0.00  0.00    +0.000 C 
ATOM     24  O   UNL     1       3.461  15.431  17.124  0.00  0.00    +0.000 OA
ATOM     25  C   UNL     1       3.148  16.632  17.876  0.00  0.00    +0.000 C 
ENDBRANCH   7  22
BRANCH   1  27
ATOM     26  C   UNL     1       0.342  10.469  19.956  0.00  0.00    +0.000 C 
ATOM     27  C   UNL     1       0.632  11.187  21.051  0.00  0.00    +0.000 C 
BRANCH  26  31
ATOM     28  C   UNL     1       2.590   7.078  18.532  0.00  0.00    +0.000 A 
ATOM     29  C   UNL     1       2.271   8.154  17.702  0.00  0.00    +0.000 A 
ATOM     30  C   UNL     1       1.558   9.255  18.191  0.00  0.00    +0.000 A 
ATOM     31  C   UNL     1       1.137   9.307  19.521  0.00  0.00    +0.000 A 
ATOM     32  C   UNL     1       1.492   8.244  20.364  0.00  0.00    +0.000 A 
ATOM     33  C   UNL     1       2.195   7.132  19.871  0.00  0.00    +0.000 A 
BRANCH  28  36
ATOM     34  C   UNL     1       2.679   4.732  17.712  0.00  0.00    +0.000 C 
ATOM     35  O   UNL     1       1.478   4.507  17.628  0.00  0.00    +0.000 OA
ATOM     36  N   UNL     1       3.273   5.925  18.076  0.00  0.00    +0.000 N 
ATOM     37  H   UNL     1       4.275   6.009  17.977  0.00  0.00    +0.000 HD
BRANCH  34  39
ATOM     38  C   UNL     1       4.938   4.014  17.132  0.00  0.00    +0.000 C 
ATOM     39  C   UNL     1       3.666   3.667  17.373  0.00  0.00    +0.000 C 
ENDBRANCH  34  39
ENDBRANCH  28  36
ENDBRANCH  26  31
ENDBRANCH   1  27
TORSDOF 6
ENDMDL
MODEL 4
REMARK VINA RESULT:      -7.8      2.450      2.951
REMARK  Name = 
REMARK  7 active torsions:
REMARK  status: ('A' for Active; 'I' for Inactive)
REMARK    1  A    between atoms: C_2  and  C_3
REMARK    2  A    between atoms: N_5  and  C_6
REMARK    3  A    between atoms: C_9  and  C_10
REMARK    4  A    between atoms: C_11  and  C_12
REMARK    5  A    between atoms: C_18  and  C_19
REMARK    6  A    between atoms: C_26  and  N_27
REMARK    7  A    between atoms: N_30  and  C_31
REMARK                            x       y       z     vdW  Elec       q    Type
REMARK                         _______ _______ _______ _____ _____    ______ ____
ROOT
ATOM      1  C   UNL     1      -0.530  11.862  21.562  0.00  0.00    +0.000 A 
ATOM      2  N   UNL     1       0.259  12.905  21.841  0.00  0.00    +0.000 NA
ATOM      3  C   UNL     1      -0.308  13.983  22.390  0.00  0.00    +0.000 A 
ATOM      4  N   UNL     1       0.451  15.141  22.662  0.00  0.00    +0.000 N 
ATOM      5  C   UNL     1       1.643  15.419  22.102  0.00  0.00    +0.000 A 
ATOM      6  C   UNL     1       1.949  15.174  20.745  0.00  0.00    +0.000 A 
ATOM      7  C   UNL     1       3.275  15.490  20.625  0.00  0.00    +0.000 A 
ATOM      8  N   UNL     1       3.663  15.966  21.842  0.00  0.00    +0.000 N 
ATOM      9  N   UNL     1       2.668  15.983  22.746  0.00  0.00    +0.000 NA
ATOM     10  C   UNL     1      -1.652  14.012  22.661  0.00  0.00    +0.000 A 
ATOM     11  C   UNL     1      -2.416  12.905  22.326  0.00  0.00    +0.000 A 
ATOM     12  N   UNL     1      -1.862  11.821  21.760  0.00  0.00    +0.000 NA
ATOM     13  H   UNL     1       0.373  15.401  23.638  0.00  0.00    +0.000 HD
ATOM     14  H   UNL     1       4.578  16.290  22.135  0.00  0.00    +0.000 HD
ENDROOT
BRANCH  11  15
ATOM     15  N   UNL     1      -3.785  12.996  22.504  0.00  0.00    +0.000 N 
ATOM     16  C   UNL     1      -4.334  13.547  23.742  0.00  0.00    +0.000 C 
ATOM     17  C   UNL     1      -5.713  12.871  23.986  0.00  0.00    +0.000 C 
ATOM     18  N   UNL     1      -6.648  13.031  22.841  0.00  0.00    +0.000 NA
ATOM     19  C   UNL     1      -7.896  12.313  23.088  0.00  0.00    +0.000 C 
ATOM     20  C   UNL     1      -6.011  12.538  21.600  0.00  0.00    +0.000 C 
ATOM     21  C   UNL     1      -4.647  13.208  21.333  0.00  0.00    +0.000 C 
ENDBRANCH  11  15
BRANCH   7  22
ATOM     22  C   UNL     1       4.103  15.261  19.385  0.00  0.00    +0.000 C 
ATOM     23  C   UNL     1       4.530  16.500  18.586  0.00  0.00    +0.000 C 
ATOM     24  O   UNL     1       5.912  16.059  18.572  0.00  0.00    +0.000 OA
ATOM     25  C   UNL     1       5.617  15.154  19.667  0.00  0.00    +0.000 C 
ENDBRANCH   7  22
BRANCH   1  27
ATOM     26  C   UNL     1       0.664  10.511  19.813  0.00  0.00    +0.000 C 
ATOM     27  C   UNL     1       0.191  10.693  21.055  0.00  0.00    +0.000 C 
BRANCH  26  31
ATOM     28  C   UNL     1       2.541   6.811  18.641  0.00  0.00    +0.000 A 
ATOM     29  C   UNL     1       2.106   7.037  19.948  0.00  0.00    +0.000 A 
ATOM     30  C   UNL     1       1.480   8.238  20.302  0.00  0.00    +0.000 A 
ATOM     31  C   UNL     1       1.278   9.250  19.361  0.00  0.00    +0.000 A 
ATOM     32  C   UNL     1       1.679   9.007  18.040  0.00  0.00    +0.000 A 
ATOM     33  C   UNL     1       2.321   7.807  17.687  0.00  0.00    +0.000 A 
BRANCH  28  36
ATOM     34  C   UNL     1       2.612   4.494  17.742  0.00  0.00    +0.000 C 
ATOM     35  O   UNL     1       1.427   4.352  17.469  0.00  0.00    +0.000 OA
ATOM     36  N   UNL     1       3.215   5.632  18.243  0.00  0.00    +0.000 N 
ATOM     37  H   UNL     1       4.223   5.653  18.299  0.00  0.00    +0.000 HD
BRANCH  34  39
ATOM     38  C   UNL     1       3.291   2.164  17.998  0.00  0.00    +0.000 C 
ATOM     39  C   UNL     1       3.574   3.379  17.509  0.00  0.00    +0.000 C 
ENDBRANCH  34  39
ENDBRANCH  28  36
ENDBRANCH  26  31
ENDBRANCH   1  27
TORSDOF 6
ENDMDL
MODEL 5
REMARK VINA RESULT:      -7.8      2.351      2.881
REMARK  Name = 
REMARK  7 active torsions:
REMARK  status: ('A' for Active; 'I' for Inactive)
REMARK    1  A    between atoms: C_2  and  C_3
REMARK    2  A    between atoms: N_5  and  C_6
REMARK    3  A    between atoms: C_9  and  C_10
REMARK    4  A    between atoms: C_11  and  C_12
REMARK    5  A    between atoms: C_18  and  C_19
REMARK    6  A    between atoms: C_26  and  N_27
REMARK    7  A    between atoms: N_30  and  C_31
REMARK                            x       y       z     vdW  Elec       q    Type
REMARK                         _______ _______ _______ _____ _____    ______ ____
ROOT
ATOM      1  C   UNL     1      -0.130  12.096  21.421  0.00  0.00    +0.000 A 
ATOM      2  N   UNL     1       0.527  13.245  21.615  0.00  0.00    +0.000 NA
ATOM      3  C   UNL     1      -0.115  14.227  22.254  0.00  0.00    +0.000 A 
ATOM      4  N   UNL     1       0.495  15.485  22.447  0.00  0.00    +0.000 N 
ATOM      5  C   UNL     1       1.550  15.936  21.744  0.00  0.00    +0.000 A 
ATOM      6  C   UNL     1       1.709  15.739  20.354  0.00  0.00    +0.000 A 
ATOM      7  C   UNL     1       2.948  16.247  20.070  0.00  0.00    +0.000 A 
ATOM      8  N   UNL     1       3.417  16.775  21.235  0.00  0.00    +0.000 N 
ATOM      9  N   UNL     1       2.557  16.645  22.260  0.00  0.00    +0.000 NA
ATOM     10  C   UNL     1      -1.402  14.057  22.696  0.00  0.00    +0.000 A 
ATOM     11  C   UNL     1      -2.032  12.850  22.442  0.00  0.00    +0.000 A 
ATOM     12  N   UNL     1      -1.404  11.859  21.788  0.00  0.00    +0.000 NA
ATOM     13  H   UNL     1       0.508  15.731  23.430  0.00  0.00    +0.000 HD
ATOM     14  H   UNL     1       4.305  17.231  21.414  0.00  0.00    +0.000 HD
ENDROOT
BRANCH  11  15
ATOM     15  N   UNL     1      -3.365  12.737  22.796  0.00  0.00    +0.000 N 
ATOM     16  C   UNL     1      -4.396  12.632  21.765  0.00  0.00    +0.000 C 
ATOM     17  C   UNL     1      -5.699  13.256  22.339  0.00  0.00    +0.000 C 
ATOM     18  N   UNL     1      -6.126  12.632  23.619  0.00  0.00    +0.000 NA
ATOM     19  C   UNL     1      -7.307  13.305  24.155  0.00  0.00    +0.000 C 
ATOM     20  C   UNL     1      -5.017  12.689  24.599  0.00  0.00    +0.000 C 
ATOM     21  C   UNL     1      -3.718  12.062  24.052  0.00  0.00    +0.000 C 
ENDBRANCH  11  15
BRANCH   7  22
ATOM     22  C   UNL     1       3.632  16.142  18.729  0.00  0.00    +0.000 C 
ATOM     23  C   UNL     1       5.165  16.072  18.727  0.00  0.00    +0.000 C 
ATOM     24  O   UNL     1       5.145  14.904  17.866  0.00  0.00    +0.000 OA
ATOM     25  C   UNL     1       3.751  14.693  18.212  0.00  0.00    +0.000 C 
ENDBRANCH   7  22
BRANCH   1  27
ATOM     26  C   UNL     1       0.417  10.383  19.668  0.00  0.00    +0.000 C 
ATOM     27  C   UNL     1       0.683  11.047  20.803  0.00  0.00    +0.000 C 
BRANCH  26  31
ATOM     28  C   UNL     1       2.883   7.081  18.402  0.00  0.00    +0.000 A 
ATOM     29  C   UNL     1       2.302   7.125  19.670  0.00  0.00    +0.000 A 
ATOM     30  C   UNL     1       1.487   8.197  20.053  0.00  0.00    +0.000 A 
ATOM     31  C   UNL     1       1.238   9.259  19.182  0.00  0.00    +0.000 A 
ATOM     32  C   UNL     1       1.790   9.195  17.894  0.00  0.00    +0.000 A 
ATOM     33  C   UNL     1       2.620   8.127  17.514  0.00  0.00    +0.000 A 
BRANCH  28  36
ATOM     34  C   UNL     1       3.358   4.750  17.676  0.00  0.00    +0.000 C 
ATOM     35  O   UNL     1       2.211   4.323  17.622  0.00  0.00    +0.000 OA
ATOM     36  N   UNL     1       3.746   6.041  17.981  0.00  0.00    +0.000 N 
ATOM     37  H   UNL     1       4.718   6.287  17.862  0.00  0.00    +0.000 HD
BRANCH  34  39
ATOM     38  C   UNL     1       5.727   4.388  17.215  0.00  0.00    +0.000 C 
ATOM     39  C   UNL     1       4.507   3.853  17.364  0.00  0.00    +0.000 C 
ENDBRANCH  34  39
ENDBRANCH  28  36
ENDBRANCH  26  31
ENDBRANCH   1  27
TORSDOF 6
ENDMDL
MODEL 6
REMARK VINA RESULT:      -7.7      0.903      1.493
REMARK  Name = 
REMARK  7 active torsions:
REMARK  status: ('A' for Active; 'I' for Inactive)
REMARK    1  A    between atoms: C_2  and  C_3
REMARK    2  A    between atoms: N_5  and  C_6
REMARK    3  A    between atoms: C_9  and  C_10
REMARK    4  A    between atoms: C_11  and  C_12
REMARK    5  A    between atoms: C_18  and  C_19
REMARK    6  A    between atoms: C_26  and  N_27
REMARK    7  A    between atoms: N_30  and  C_31
REMARK                            x       y       z     vdW  Elec       q    Type
REMARK                         _______ _______ _______ _____ _____    ______ ____
ROOT
ATOM      1  C   UNL     1      -0.025  11.145  19.499  0.00  0.00    +0.000 A 
ATOM      2  N   UNL     1       0.654  12.064  20.194  0.00  0.00    +0.000 NA
ATOM      3  C   UNL     1      -0.047  13.021  20.808  0.00  0.00    +0.000 A 
ATOM      4  N   UNL     1       0.604  14.054  21.515  0.00  0.00    +0.000 N 
ATOM      5  C   UNL     1       1.897  14.391  21.352  0.00  0.00    +0.000 A 
ATOM      6  C   UNL     1       2.544  14.435  20.098  0.00  0.00    +0.000 A 
ATOM      7  C   UNL     1       3.854  14.706  20.391  0.00  0.00    +0.000 A 
ATOM      8  N   UNL     1       3.910  14.886  21.740  0.00  0.00    +0.000 N 
ATOM      9  N   UNL     1       2.716  14.751  22.343  0.00  0.00    +0.000 NA
ATOM     10  C   UNL     1      -1.416  13.054  20.729  0.00  0.00    +0.000 A 
ATOM     11  C   UNL     1      -2.055  12.084  19.974  0.00  0.00    +0.000 A 
ATOM     12  N   UNL     1      -1.363  11.125  19.339  0.00  0.00    +0.000 NA
ATOM     13  H   UNL     1       0.275  14.098  22.472  0.00  0.00    +0.000 HD
ATOM     14  H   UNL     1       4.716  15.094  22.321  0.00  0.00    +0.000 HD
ENDROOT
BRANCH  11  15
ATOM     15  N   UNL     1      -3.425  12.199  19.814  0.00  0.00    +0.000 N 
ATOM     16  C   UNL     1      -4.168  13.233  20.533  0.00  0.00    +0.000 C 
ATOM     17  C   UNL     1      -5.606  12.694  20.776  0.00  0.00    +0.000 C 
ATOM     18  N   UNL     1      -6.292  12.286  19.521  0.00  0.00    +0.000 NA
ATOM     19  C   UNL     1      -7.605  11.715  19.811  0.00  0.00    +0.000 C 
ATOM     20  C   UNL     1      -5.458  11.304  18.791  0.00  0.00    +0.000 C 
ATOM     21  C   UNL     1      -4.031  11.827  18.529  0.00  0.00    +0.000 C 
ENDBRANCH  11  15
BRANCH   7  22
ATOM     22  C   UNL     1       4.975  14.714  19.382  0.00  0.00    +0.000 C 
ATOM     23  C   UNL     1       4.926  15.788  18.286  0.00  0.00    +0.000 C 
ATOM     24  O   UNL     1       6.296  16.180  18.560  0.00  0.00    +0.000 OA
ATOM     25  C   UNL     1       6.213  15.511  19.845  0.00  0.00    +0.000 C 
ENDBRANCH   7  22
BRANCH   1  27
ATOM     26  C   UNL     1       1.262   8.990  19.580  0.00  0.00    +0.000 C 
ATOM     27  C   UNL     1       0.815  10.083  18.943  0.00  0.00    +0.000 C 
BRANCH  26  31
ATOM     28  C   UNL     1       3.955   6.235  17.645  0.00  0.00    +0.000 A 
ATOM     29  C   UNL     1       3.708   7.509  17.132  0.00  0.00    +0.000 A 
ATOM     30  C   UNL     1       2.846   8.396  17.788  0.00  0.00    +0.000 A 
ATOM     31  C   UNL     1       2.200   8.030  18.971  0.00  0.00    +0.000 A 
ATOM     32  C   UNL     1       2.479   6.764  19.507  0.00  0.00    +0.000 A 
ATOM     33  C   UNL     1       3.334   5.868  18.841  0.00  0.00    +0.000 A 
BRANCH  28  36
ATOM     34  C   UNL     1       6.041   5.544  16.482  0.00  0.00    +0.000 C 
ATOM     35  O   UNL     1       6.677   6.585  16.582  0.00  0.00    +0.000 OA
ATOM     36  N   UNL     1       4.786   5.288  16.999  0.00  0.00    +0.000 N 
ATOM     37  H   UNL     1       4.434   4.342  16.954  0.00  0.00    +0.000 HD
BRANCH  34  39
ATOM     38  C   UNL     1       6.038   3.931  14.650  0.00  0.00    +0.000 C 
ATOM     39  C   UNL     1       6.628   4.372  15.769  0.00  0.00    +0.000 C 
ENDBRANCH  34  39
ENDBRANCH  28  36
ENDBRANCH  26  31
ENDBRANCH   1  27
TORSDOF 6
ENDMDL
MODEL 7
REMARK VINA RESULT:      -7.7      2.226      2.801
REMARK  Name = 
REMARK  7 active torsions:
REMARK  status: ('A' for Active; 'I' for Inactive)
REMARK    1  A    between atoms: C_2  and  C_3
REMARK    2  A    between atoms: N_5  and  C_6
REMARK    3  A    between atoms: C_9  and  C_10
REMARK    4  A    between atoms: C_11  and  C_12
REMARK    5  A    between atoms: C_18  and  C_19
REMARK    6  A    between atoms: C_26  and  N_27
REMARK    7  A    between atoms: N_30  and  C_31
REMARK                            x       y       z     vdW  Elec       q    Type
REMARK                         _______ _______ _______ _____ _____    ______ ____
ROOT
ATOM      1  C   UNL     1       0.004  12.125  21.317  0.00  0.00    +0.000 A 
ATOM      2  N   UNL     1       0.669  13.265  21.535  0.00  0.00    +0.000 NA
ATOM      3  C   UNL     1       0.038  14.233  22.205  0.00  0.00    +0.000 A 
ATOM      4  N   UNL     1       0.658  15.481  22.426  0.00  0.00    +0.000 N 
ATOM      5  C   UNL     1       1.709  15.945  21.726  0.00  0.00    +0.000 A 
ATOM      6  C   UNL     1       1.854  15.784  20.330  0.00  0.00    +0.000 A 
ATOM      7  C   UNL     1       3.093  16.293  20.048  0.00  0.00    +0.000 A 
ATOM      8  N   UNL     1       3.576  16.787  21.222  0.00  0.00    +0.000 N 
ATOM      9  N   UNL     1       2.724  16.634  22.251  0.00  0.00    +0.000 NA
ATOM     10  C   UNL     1      -1.245  14.059  22.655  0.00  0.00    +0.000 A 
ATOM     11  C   UNL     1      -1.885  12.862  22.375  0.00  0.00    +0.000 A 
ATOM     12  N   UNL     1      -1.269  11.885  21.689  0.00  0.00    +0.000 NA
ATOM     13  H   UNL     1       0.681  15.701  23.415  0.00  0.00    +0.000 HD
ATOM     14  H   UNL     1       4.469  17.232  21.405  0.00  0.00    +0.000 HD
ENDROOT
BRANCH  11  15
ATOM     15  N   UNL     1      -3.215  12.748  22.738  0.00  0.00    +0.000 N 
ATOM     16  C   UNL     1      -4.255  12.654  21.714  0.00  0.00    +0.000 C 
ATOM     17  C   UNL     1      -5.552  13.274  22.305  0.00  0.00    +0.000 C 
ATOM     18  N   UNL     1      -5.970  12.638  23.582  0.00  0.00    +0.000 NA
ATOM     19  C   UNL     1      -7.145  13.307  24.134  0.00  0.00    +0.000 C 
ATOM     20  C   UNL     1      -4.853  12.683  24.553  0.00  0.00    +0.000 C 
ATOM     21  C   UNL     1      -3.560  12.060  23.990  0.00  0.00    +0.000 C 
ENDBRANCH  11  15
BRANCH   7  22
ATOM     22  C   UNL     1       3.764  16.219  18.698  0.00  0.00    +0.000 C 
ATOM     23  C   UNL     1       5.294  16.088  18.681  0.00  0.00    +0.000 C 
ATOM     24  O   UNL     1       5.221  14.961  17.770  0.00  0.00    +0.000 OA
ATOM     25  C   UNL     1       3.822  14.791  18.117  0.00  0.00    +0.000 C 
ENDBRANCH   7  22
BRANCH   1  27
ATOM     26  C   UNL     1       0.369   9.913  20.185  0.00  0.00    +0.000 C 
ATOM     27  C   UNL     1       0.804  11.088  20.663  0.00  0.00    +0.000 C 
BRANCH  26  31
ATOM     28  C   UNL     1       2.940   6.917  18.453  0.00  0.00    +0.000 A 
ATOM     29  C   UNL     1       2.610   8.090  17.773  0.00  0.00    +0.000 A 
ATOM     30  C   UNL     1       1.791   9.059  18.363  0.00  0.00    +0.000 A 
ATOM     31  C   UNL     1       1.271   8.879  19.645  0.00  0.00    +0.000 A 
ATOM     32  C   UNL     1       1.634   7.718  20.344  0.00  0.00    +0.000 A 
ATOM     33  C   UNL     1       2.445   6.738  19.747  0.00  0.00    +0.000 A 
BRANCH  28  36
ATOM     34  C   UNL     1       4.861   5.338  18.457  0.00  0.00    +0.000 C 
ATOM     35  O   UNL     1       5.306   5.571  19.574  0.00  0.00    +0.000 OA
ATOM     36  N   UNL     1       3.730   5.889  17.885  0.00  0.00    +0.000 N 
ATOM     37  H   UNL     1       3.407   5.509  17.007  0.00  0.00    +0.000 HD
BRANCH  34  39
ATOM     38  C   UNL     1       4.969   4.024  16.404  0.00  0.00    +0.000 C 
ATOM     39  C   UNL     1       5.539   4.347  17.573  0.00  0.00    +0.000 C 
ENDBRANCH  34  39
ENDBRANCH  28  36
ENDBRANCH  26  31
ENDBRANCH   1  27
TORSDOF 6
ENDMDL
MODEL 8
REMARK VINA RESULT:      -7.7      2.319      2.905
REMARK  Name = 
REMARK  7 active torsions:
REMARK  status: ('A' for Active; 'I' for Inactive)
REMARK    1  A    between atoms: C_2  and  C_3
REMARK    2  A    between atoms: N_5  and  C_6
REMARK    3  A    between atoms: C_9  and  C_10
REMARK    4  A    between atoms: C_11  and  C_12
REMARK    5  A    between atoms: C_18  and  C_19
REMARK    6  A    between atoms: C_26  and  N_27
REMARK    7  A    between atoms: N_30  and  C_31
REMARK                            x       y       z     vdW  Elec       q    Type
REMARK                         _______ _______ _______ _____ _____    ______ ____
ROOT
ATOM      1  C   UNL     1      -0.376  12.153  21.443  0.00  0.00    +0.000 A 
ATOM      2  N   UNL     1       0.312  13.214  21.878  0.00  0.00    +0.000 NA
ATOM      3  C   UNL     1      -0.379  14.223  22.418  0.00  0.00    +0.000 A 
ATOM      4  N   UNL     1       0.274  15.397  22.849  0.00  0.00    +0.000 N 
ATOM      5  C   UNL     1       1.505  15.772  22.458  0.00  0.00    +0.000 A 
ATOM      6  C   UNL     1       1.984  15.634  21.136  0.00  0.00    +0.000 A 
ATOM      7  C   UNL     1       3.295  16.025  21.198  0.00  0.00    +0.000 A 
ATOM      8  N   UNL     1       3.507  16.437  22.479  0.00  0.00    +0.000 N 
ATOM      9  N   UNL     1       2.412  16.343  23.254  0.00  0.00    +0.000 NA
ATOM     10  C   UNL     1      -1.745  14.165  22.524  0.00  0.00    +0.000 A 
ATOM     11  C   UNL     1      -2.397  13.046  22.033  0.00  0.00    +0.000 A 
ATOM     12  N   UNL     1      -1.717  12.031  21.474  0.00  0.00    +0.000 NA
ATOM     13  H   UNL     1       0.066  15.587  23.823  0.00  0.00    +0.000 HD
ATOM     14  H   UNL     1       4.360  16.786  22.901  0.00  0.00    +0.000 HD
ENDROOT
BRANCH  11  15
ATOM     15  N   UNL     1      -3.781  13.054  22.047  0.00  0.00    +0.000 N 
ATOM     16  C   UNL     1      -4.504  13.751  23.110  0.00  0.00    +0.000 C 
ATOM     17  C   UNL     1      -5.857  13.015  23.316  0.00  0.00    +0.000 C 
ATOM     18  N   UNL     1      -6.660  12.916  22.069  0.00  0.00    +0.000 NA
ATOM     19  C   UNL     1      -7.882  12.150  22.298  0.00  0.00    +0.000 C 
ATOM     20  C   UNL     1      -5.852  12.283  21.002  0.00  0.00    +0.000 C 
ATOM     21  C   UNL     1      -4.511  13.008  20.772  0.00  0.00    +0.000 C 
ENDBRANCH  11  15
BRANCH   7  22
ATOM     22  C   UNL     1       4.276  15.921  20.057  0.00  0.00    +0.000 C 
ATOM     23  C   UNL     1       3.897  16.613  18.739  0.00  0.00    +0.000 C 
ATOM     24  O   UNL     1       5.184  17.279  18.679  0.00  0.00    +0.000 OA
ATOM     25  C   UNL     1       5.376  17.003  20.091  0.00  0.00    +0.000 C 
ENDBRANCH   7  22
BRANCH   1  27
ATOM     26  C   UNL     1       0.305  10.351  19.831  0.00  0.00    +0.000 C 
ATOM     27  C   UNL     1       0.468  11.059  20.959  0.00  0.00    +0.000 C 
BRANCH  26  31
ATOM     28  C   UNL     1       2.680   6.951  18.655  0.00  0.00    +0.000 A 
ATOM     29  C   UNL     1       2.389   7.990  17.770  0.00  0.00    +0.000 A 
ATOM     30  C   UNL     1       1.633   9.095  18.179  0.00  0.00    +0.000 A 
ATOM     31  C   UNL     1       1.140   9.188  19.482  0.00  0.00    +0.000 A 
ATOM     32  C   UNL     1       1.466   8.163  20.382  0.00  0.00    +0.000 A 
ATOM     33  C   UNL     1       2.212   7.046  19.968  0.00  0.00    +0.000 A 
BRANCH  28  36
ATOM     34  C   UNL     1       2.850   4.611  17.830  0.00  0.00    +0.000 C 
ATOM     35  O   UNL     1       1.668   4.400  17.590  0.00  0.00    +0.000 OA
ATOM     36  N   UNL     1       3.404   5.794  18.279  0.00  0.00    +0.000 N 
ATOM     37  H   UNL     1       4.411   5.868  18.311  0.00  0.00    +0.000 HD
BRANCH  34  39
ATOM     38  C   UNL     1       3.554   2.277  17.939  0.00  0.00    +0.000 C 
ATOM     39  C   UNL     1       3.863   3.539  17.610  0.00  0.00    +0.000 C 
ENDBRANCH  34  39
ENDBRANCH  28  36
ENDBRANCH  26  31
ENDBRANCH   1  27
TORSDOF 6
ENDMDL
MODEL 9
REMARK VINA RESULT:      -7.6      2.335      3.009
REMARK  Name = 
REMARK  7 active torsions:
REMARK  status: ('A' for Active; 'I' for Inactive)
REMARK    1  A    between atoms: C_2  and  C_3
REMARK    2  A    between atoms: N_5  and  C_6
REMARK    3  A    between atoms: C_9  and  C_10
REMARK    4  A    between atoms: C_11  and  C_12
REMARK    5  A    between atoms: C_18  and  C_19
REMARK    6  A    between atoms: C_26  and  N_27
REMARK    7  A    between atoms: N_30  and  C_31
REMARK                            x       y       z     vdW  Elec       q    Type
REMARK                         _______ _______ _______ _____ _____    ______ ____
ROOT
ATOM      1  C   UNL     1       0.037  12.449  21.329  0.00  0.00    +0.000 A 
ATOM      2  N   UNL     1       0.802  13.523  21.555  0.00  0.00    +0.000 NA
ATOM      3  C   UNL     1       0.276  14.521  22.270  0.00  0.00    +0.000 A 
ATOM      4  N   UNL     1       1.004  15.707  22.502  0.00  0.00    +0.000 N 
ATOM      5  C   UNL     1       2.068  16.102  21.779  0.00  0.00    +0.000 A 
ATOM      6  C   UNL     1       2.155  15.969  20.375  0.00  0.00    +0.000 A 
ATOM      7  C   UNL     1       3.423  16.381  20.064  0.00  0.00    +0.000 A 
ATOM      8  N   UNL     1       3.982  16.801  21.234  0.00  0.00    +0.000 N 
ATOM      9  N   UNL     1       3.153  16.690  22.287  0.00  0.00    +0.000 NA
ATOM     10  C   UNL     1      -1.003  14.441  22.759  0.00  0.00    +0.000 A 
ATOM     11  C   UNL     1      -1.749  13.310  22.469  0.00  0.00    +0.000 A 
ATOM     12  N   UNL     1      -1.239  12.305  21.739  0.00  0.00    +0.000 NA
ATOM     13  H   UNL     1       1.077  15.896  23.495  0.00  0.00    +0.000 HD
ATOM     14  H   UNL     1       4.914  17.165  21.398  0.00  0.00    +0.000 HD
ENDROOT
BRANCH  11  15
ATOM     15  N   UNL     1      -3.072  13.296  22.874  0.00  0.00    +0.000 N 
ATOM     16  C   UNL     1      -3.411  13.392  24.294  0.00  0.00    +0.000 C 
ATOM     17  C   UNL     1      -4.749  12.631  24.509  0.00  0.00    +0.000 C 
ATOM     18  N   UNL     1      -5.847  13.132  23.640  0.00  0.00    +0.000 NA
ATOM     19  C   UNL     1      -7.057  12.335  23.824  0.00  0.00    +0.000 C 
ATOM     20  C   UNL     1      -5.420  13.094  22.222  0.00  0.00    +0.000 C 
ATOM     21  C   UNL     1      -4.100  13.855  21.986  0.00  0.00    +0.000 C 
ENDBRANCH  11  15
BRANCH   7  22
ATOM     22  C   UNL     1       4.043  16.291  18.692  0.00  0.00    +0.000 C 
ATOM     23  C   UNL     1       5.538  15.952  18.617  0.00  0.00    +0.000 C 
ATOM     24  O   UNL     1       5.286  14.898  17.653  0.00  0.00    +0.000 OA
ATOM     25  C   UNL     1       3.887  14.902  18.037  0.00  0.00    +0.000 C 
ENDBRANCH   7  22
BRANCH   1  27
ATOM     26  C   UNL     1       0.289  10.114  20.441  0.00  0.00    +0.000 C 
ATOM     27  C   UNL     1       0.727  11.369  20.623  0.00  0.00    +0.000 C 
BRANCH  26  31
ATOM     28  C   UNL     1       2.589   7.048  18.466  0.00  0.00    +0.000 A 
ATOM     29  C   UNL     1       2.153   8.192  17.795  0.00  0.00    +0.000 A 
ATOM     30  C   UNL     1       1.425   9.185  18.461  0.00  0.00    +0.000 A 
ATOM     31  C   UNL     1       1.106   9.059  19.814  0.00  0.00    +0.000 A 
ATOM     32  C   UNL     1       1.578   7.928  20.497  0.00  0.00    +0.000 A 
ATOM     33  C   UNL     1       2.296   6.924  19.826  0.00  0.00    +0.000 A 
BRANCH  28  36
ATOM     34  C   UNL     1       4.538   6.106  17.244  0.00  0.00    +0.000 C 
ATOM     35  O   UNL     1       5.275   7.084  17.265  0.00  0.00    +0.000 OA
ATOM     36  N   UNL     1       3.291   5.998  17.828  0.00  0.00    +0.000 N 
ATOM     37  H   UNL     1       2.849   5.090  17.844  0.00  0.00    +0.000 HD
BRANCH  34  39
ATOM     38  C   UNL     1       5.571   4.940  15.365  0.00  0.00    +0.000 C 
ATOM     39  C   UNL     1       4.974   4.854  16.561  0.00  0.00    +0.000 C 
ENDBRANCH  34  39
ENDBRANCH  28  36
ENDBRANCH  26  31
ENDBRANCH   1  27
TORSDOF 6
ENDMDL
