MODEL 1
REMARK VINA RESULT:      -6.6      0.000      0.000
REMARK  Name = 
REMARK  4 active torsions:
REMARK  status: ('A' for Active; 'I' for Inactive)
REMARK    1  A    between atoms: N_1  and  C_2
REMARK    2  A    between atoms: C_2  and  C_3
REMARK    3  A    between atoms: C_18  and  C_19
REMARK    4  A    between atoms: C_19  and  N_20
REMARK                            x       y       z     vdW  Elec       q    Type
REMARK                         _______ _______ _______ _____ _____    ______ ____
ROOT
ATOM      1  C   UNL     1       3.856   4.106  18.122  0.00  0.00    +0.000 C 
ATOM      2  C   UNL     1       4.239   5.082  19.290  0.00  0.00    +0.000 C 
ATOM      3  C   UNL     1       3.302   6.282  19.144  0.00  0.00    +0.000 A 
ATOM      4  C   UNL     1       2.422   6.746  20.111  0.00  0.00    +0.000 A 
ATOM      5  C   UNL     1       1.659   7.882  19.832  0.00  0.00    +0.000 A 
ATOM      6  C   UNL     1       1.777   8.538  18.597  0.00  0.00    +0.000 A 
ATOM      7  C   UNL     1       2.662   8.073  17.622  0.00  0.00    +0.000 A 
ATOM      8  C   UNL     1       3.427   6.948  17.899  0.00  0.00    +0.000 A 
ATOM      9  C   UNL     1       4.488   6.337  16.980  0.00  0.00    +0.000 C 
ATOM     10  C   UNL     1       5.787   6.257  17.777  0.00  0.00    +0.000 A 
ATOM     11  C   UNL     1       7.019   6.747  17.364  0.00  0.00    +0.000 A 
ATOM     12  C   UNL     1       8.125   6.552  18.194  0.00  0.00    +0.000 A 
ATOM     13  C   UNL     1       7.994   5.879  19.419  0.00  0.00    +0.000 A 
ATOM     14  C   UNL     1       6.756   5.386  19.836  0.00  0.00    +0.000 A 
ATOM     15  C   UNL     1       5.657   5.573  19.012  0.00  0.00    +0.000 A 
ATOM     16  C   UNL     1       4.049   4.852  16.716  0.00  0.00    +0.000 C 
ENDROOT
BRANCH   1  17
ATOM     17  C   UNL     1       4.554   2.739  18.246  0.00  0.00    +0.000 C 
BRANCH  17  18
ATOM     18  N   UNL     1       4.724   2.345  19.644  0.00  0.00    +0.000 NA
ATOM     19  H   UNL     1       4.310   3.056  20.248  0.00  0.00    +0.000 HD
ATOM     20  H   UNL     1       5.716   2.314  19.881  0.00  0.00    +0.000 HD
ENDBRANCH  17  18
ENDBRANCH   1  17
BRANCH  16  21
ATOM     21  C   UNL     1       4.990   4.141  15.722  0.00  0.00    +0.000 C 
BRANCH  21  22
ATOM     22  N   UNL     1       5.363   5.013  14.609  0.00  0.00    +0.000 NA
ATOM     23  H   UNL     1       6.266   4.722  14.233  0.00  0.00    +0.000 HD
ATOM     24  H   UNL     1       5.490   5.965  14.952  0.00  0.00    +0.000 HD
ENDBRANCH  21  22
ENDBRANCH  16  21
TORSDOF 4
ENDMDL
MODEL 2
REMARK VINA RESULT:      -6.4      1.669      4.046
REMARK  Name = 
REMARK  4 active torsions:
REMARK  status: ('A' for Active; 'I' for Inactive)
REMARK    1  A    between atoms: N_1  and  C_2
REMARK    2  A    between atoms: C_2  and  C_3
REMARK    3  A    between atoms: C_18  and  C_19
REMARK    4  A    between atoms: C_19  and  N_20
REMARK                            x       y       z     vdW  Elec       q    Type
REMARK                         _______ _______ _______ _____ _____    ______ ____
ROOT
ATOM      1  C   UNL     1       5.162   6.152  17.582  0.00  0.00    +0.000 C 
ATOM      2  C   UNL     1       3.662   5.924  17.176  0.00  0.00    +0.000 C 
ATOM      3  C   UNL     1       2.855   6.913  18.018  0.00  0.00    +0.000 A 
ATOM      4  C   UNL     1       2.008   7.896  17.524  0.00  0.00    +0.000 A 
ATOM      5  C   UNL     1       1.313   8.697  18.431  0.00  0.00    +0.000 A 
ATOM      6  C   UNL     1       1.471   8.517  19.814  0.00  0.00    +0.000 A 
ATOM      7  C   UNL     1       2.322   7.529  20.314  0.00  0.00    +0.000 A 
ATOM      8  C   UNL     1       3.010   6.726  19.414  0.00  0.00    +0.000 A 
ATOM      9  C   UNL     1       3.933   5.560  19.778  0.00  0.00    +0.000 C 
ATOM     10  C   UNL     1       3.421   4.327  19.037  0.00  0.00    +0.000 A 
ATOM     11  C   UNL     1       3.140   3.096  19.614  0.00  0.00    +0.000 A 
ATOM     12  C   UNL     1       2.721   2.053  18.786  0.00  0.00    +0.000 A 
ATOM     13  C   UNL     1       2.583   2.245  17.403  0.00  0.00    +0.000 A 
ATOM     14  C   UNL     1       2.865   3.482  16.820  0.00  0.00    +0.000 A 
ATOM     15  C   UNL     1       3.286   4.519  17.639  0.00  0.00    +0.000 A 
ATOM     16  C   UNL     1       5.336   5.888  19.154  0.00  0.00    +0.000 C 
ENDROOT
BRANCH   1  17
ATOM     17  C   UNL     1       6.140   5.389  16.671  0.00  0.00    +0.000 C 
BRANCH  17  18
ATOM     18  N   UNL     1       7.303   6.205  16.325  0.00  0.00    +0.000 NA
ATOM     19  H   UNL     1       7.345   6.321  15.312  0.00  0.00    +0.000 HD
ATOM     20  H   UNL     1       8.161   5.721  16.592  0.00  0.00    +0.000 HD
ENDBRANCH  17  18
ENDBRANCH   1  17
BRANCH  16  21
ATOM     21  C   UNL     1       6.394   4.829  19.526  0.00  0.00    +0.000 C 
BRANCH  21  22
ATOM     22  N   UNL     1       7.600   5.438  20.086  0.00  0.00    +0.000 NA
ATOM     23  H   UNL     1       7.706   5.155  21.060  0.00  0.00    +0.000 HD
ATOM     24  H   UNL     1       7.494   6.453  20.093  0.00  0.00    +0.000 HD
ENDBRANCH  21  22
ENDBRANCH  16  21
TORSDOF 4
ENDMDL
MODEL 3
REMARK VINA RESULT:      -6.4      1.903      4.732
REMARK  Name = 
REMARK  4 active torsions:
REMARK  status: ('A' for Active; 'I' for Inactive)
REMARK    1  A    between atoms: N_1  and  C_2
REMARK    2  A    between atoms: C_2  and  C_3
REMARK    3  A    between atoms: C_18  and  C_19
REMARK    4  A    between atoms: C_19  and  N_20
REMARK                            x       y       z     vdW  Elec       q    Type
REMARK                         _______ _______ _______ _____ _____    ______ ____
ROOT
ATOM      1  C   UNL     1       5.535   3.691  18.161  0.00  0.00    +0.000 C 
ATOM      2  C   UNL     1       4.481   3.979  17.034  0.00  0.00    +0.000 C 
ATOM      3  C   UNL     1       5.292   4.140  15.747  0.00  0.00    +0.000 A 
ATOM      4  C   UNL     1       5.139   3.385  14.592  0.00  0.00    +0.000 A 
ATOM      5  C   UNL     1       5.937   3.683  13.486  0.00  0.00    +0.000 A 
ATOM      6  C   UNL     1       6.879   4.722  13.543  0.00  0.00    +0.000 A 
ATOM      7  C   UNL     1       7.036   5.483  14.703  0.00  0.00    +0.000 A 
ATOM      8  C   UNL     1       6.238   5.193  15.802  0.00  0.00    +0.000 A 
ATOM      9  C   UNL     1       6.228   5.958  17.128  0.00  0.00    +0.000 C 
ATOM     10  C   UNL     1       4.790   6.398  17.389  0.00  0.00    +0.000 A 
ATOM     11  C   UNL     1       4.382   7.691  17.685  0.00  0.00    +0.000 A 
ATOM     12  C   UNL     1       3.029   7.920  17.942  0.00  0.00    +0.000 A 
ATOM     13  C   UNL     1       2.102   6.868  17.898  0.00  0.00    +0.000 A 
ATOM     14  C   UNL     1       2.510   5.566  17.600  0.00  0.00    +0.000 A 
ATOM     15  C   UNL     1       3.853   5.335  17.349  0.00  0.00    +0.000 A 
ATOM     16  C   UNL     1       6.571   4.912  18.250  0.00  0.00    +0.000 C 
ENDROOT
BRANCH   1  17
ATOM     17  C   UNL     1       4.876   3.285  19.491  0.00  0.00    +0.000 C 
BRANCH  17  18
ATOM     18  N   UNL     1       4.989   1.847  19.733  0.00  0.00    +0.000 NA
ATOM     19  H   UNL     1       4.397   1.346  19.070  0.00  0.00    +0.000 HD
ATOM     20  H   UNL     1       4.632   1.620  20.661  0.00  0.00    +0.000 HD
ENDBRANCH  17  18
ENDBRANCH   1  17
BRANCH  16  21
ATOM     21  C   UNL     1       6.685   5.574  19.639  0.00  0.00    +0.000 C 
BRANCH  21  22
ATOM     22  N   UNL     1       8.029   5.436  20.197  0.00  0.00    +0.000 NA
ATOM     23  H   UNL     1       8.382   6.353  20.472  0.00  0.00    +0.000 HD
ATOM     24  H   UNL     1       8.662   5.091  19.476  0.00  0.00    +0.000 HD
ENDBRANCH  21  22
ENDBRANCH  16  21
TORSDOF 4
ENDMDL
MODEL 4
REMARK VINA RESULT:      -6.4      1.939      4.364
REMARK  Name = 
REMARK  4 active torsions:
REMARK  status: ('A' for Active; 'I' for Inactive)
REMARK    1  A    between atoms: N_1  and  C_2
REMARK    2  A    between atoms: C_2  and  C_3
REMARK    3  A    between atoms: C_18  and  C_19
REMARK    4  A    between atoms: C_19  and  N_20
REMARK                            x       y       z     vdW  Elec       q    Type
REMARK                         _______ _______ _______ _____ _____    ______ ____
ROOT
ATOM      1  C   UNL     1       4.081   6.132  17.710  0.00  0.00    +0.000 C 
ATOM      2  C   UNL     1       2.525   6.134  17.506  0.00  0.00    +0.000 C 
ATOM      3  C   UNL     1       2.011   7.346  18.284  0.00  0.00    +0.000 A 
ATOM      4  C   UNL     1       1.281   8.400  17.753  0.00  0.00    +0.000 A 
ATOM      5  C   UNL     1       0.854   9.417  18.608  0.00  0.00    +0.000 A 
ATOM      6  C   UNL     1       1.161   9.377  19.977  0.00  0.00    +0.000 A 
ATOM      7  C   UNL     1       1.895   8.317  20.514  0.00  0.00    +0.000 A 
ATOM      8  C   UNL     1       2.316   7.301  19.667  0.00  0.00    +0.000 A 
ATOM      9  C   UNL     1       3.072   6.038  20.088  0.00  0.00    +0.000 C 
ATOM     10  C   UNL     1       2.270   4.840  19.587  0.00  0.00    +0.000 A 
ATOM     11  C   UNL     1       1.867   3.759  20.359  0.00  0.00    +0.000 A 
ATOM     12  C   UNL     1       1.176   2.718  19.736  0.00  0.00    +0.000 A 
ATOM     13  C   UNL     1       0.891   2.765  18.363  0.00  0.00    +0.000 A 
ATOM     14  C   UNL     1       1.294   3.852  17.585  0.00  0.00    +0.000 A 
ATOM     15  C   UNL     1       1.985   4.885  18.199  0.00  0.00    +0.000 A 
ATOM     16  C   UNL     1       4.416   6.030  19.275  0.00  0.00    +0.000 C 
ENDROOT
BRANCH   1  17
ATOM     17  C   UNL     1       4.791   5.101  16.814  0.00  0.00    +0.000 C 
BRANCH  17  18
ATOM     18  N   UNL     1       6.093   5.587  16.359  0.00  0.00    +0.000 NA
ATOM     19  H   UNL     1       5.956   6.353  15.698  0.00  0.00    +0.000 HD
ATOM     20  H   UNL     1       6.580   4.852  15.845  0.00  0.00    +0.000 HD
ENDBRANCH  17  18
ENDBRANCH   1  17
BRANCH  16  21
ATOM     21  C   UNL     1       5.324   4.848  19.673  0.00  0.00    +0.000 C 
BRANCH  21  22
ATOM     22  N   UNL     1       6.736   5.226  19.680  0.00  0.00    +0.000 NA
ATOM     23  H   UNL     1       7.316   4.387  19.697  0.00  0.00    +0.000 HD
ATOM     24  H   UNL     1       6.946   5.736  20.538  0.00  0.00    +0.000 HD
ENDBRANCH  21  22
ENDBRANCH  16  21
TORSDOF 4
ENDMDL
MODEL 5
REMARK VINA RESULT:      -6.4      6.882      8.966
REMARK  Name = 
REMARK  4 active torsions:
REMARK  status: ('A' for Active; 'I' for Inactive)
REMARK    1  A    between atoms: N_1  and  C_2
REMARK    2  A    between atoms: C_2  and  C_3
REMARK    3  A    between atoms: C_18  and  C_19
REMARK    4  A    between atoms: C_19  and  N_20
REMARK                            x       y       z     vdW  Elec       q    Type
REMARK                         _______ _______ _______ _____ _____    ______ ____
ROOT
ATOM      1  C   UNL     1       0.415  12.224  18.583  0.00  0.00    +0.000 C 
ATOM      2  C   UNL     1      -0.078  10.744  18.763  0.00  0.00    +0.000 C 
ATOM      3  C   UNL     1      -1.504  10.719  18.212  0.00  0.00    +0.000 A 
ATOM      4  C   UNL     1      -1.962   9.904  17.186  0.00  0.00    +0.000 A 
ATOM      5  C   UNL     1      -3.308   9.976  16.823  0.00  0.00    +0.000 A 
ATOM      6  C   UNL     1      -4.180  10.859  17.479  0.00  0.00    +0.000 A 
ATOM      7  C   UNL     1      -3.722  11.680  18.512  0.00  0.00    +0.000 A 
ATOM      8  C   UNL     1      -2.385  11.605  18.880  0.00  0.00    +0.000 A 
ATOM      9  C   UNL     1      -1.726  12.379  20.024  0.00  0.00    +0.000 C 
ATOM     10  C   UNL     1      -1.059  11.356  20.939  0.00  0.00    +0.000 A 
ATOM     11  C   UNL     1      -1.235  11.266  22.313  0.00  0.00    +0.000 A 
ATOM     12  C   UNL     1      -0.513  10.298  23.015  0.00  0.00    +0.000 A 
ATOM     13  C   UNL     1       0.367   9.434  22.346  0.00  0.00    +0.000 A 
ATOM     14  C   UNL     1       0.546   9.522  20.964  0.00  0.00    +0.000 A 
ATOM     15  C   UNL     1      -0.166  10.485  20.266  0.00  0.00    +0.000 A 
ATOM     16  C   UNL     1      -0.559  13.214  19.385  0.00  0.00    +0.000 C 
ENDROOT
BRANCH   1  17
ATOM     17  C   UNL     1       1.916  12.383  18.887  0.00  0.00    +0.000 C 
BRANCH  17  18
ATOM     18  N   UNL     1       2.711  12.437  17.660  0.00  0.00    +0.000 NA
ATOM     19  H   UNL     1       2.408  11.696  17.028  0.00  0.00    +0.000 HD
ATOM     20  H   UNL     1       3.691  12.247  17.871  0.00  0.00    +0.000 HD
ENDBRANCH  17  18
ENDBRANCH   1  17
BRANCH  16  21
ATOM     21  C   UNL     1       0.138  14.119  20.422  0.00  0.00    +0.000 C 
BRANCH  21  22
ATOM     22  N   UNL     1       0.257  15.497  19.947  0.00  0.00    +0.000 NA
ATOM     23  H   UNL     1       0.905  16.010  20.544  0.00  0.00    +0.000 HD
ATOM     24  H   UNL     1      -0.645  15.964  20.037  0.00  0.00    +0.000 HD
ENDBRANCH  21  22
ENDBRANCH  16  21
TORSDOF 4
ENDMDL
MODEL 6
REMARK VINA RESULT:      -6.2      6.826      9.093
REMARK  Name = 
REMARK  4 active torsions:
REMARK  status: ('A' for Active; 'I' for Inactive)
REMARK    1  A    between atoms: N_1  and  C_2
REMARK    2  A    between atoms: C_2  and  C_3
REMARK    3  A    between atoms: C_18  and  C_19
REMARK    4  A    between atoms: C_19  and  N_20
REMARK                            x       y       z     vdW  Elec       q    Type
REMARK                         _______ _______ _______ _____ _____    ______ ____
ROOT
ATOM      1  C   UNL     1      -0.123  13.219  20.113  0.00  0.00    +0.000 C 
ATOM      2  C   UNL     1      -1.326  12.290  20.504  0.00  0.00    +0.000 C 
ATOM      3  C   UNL     1      -0.743  11.240  21.450  0.00  0.00    +0.000 A 
ATOM      4  C   UNL     1      -1.167  10.993  22.749  0.00  0.00    +0.000 A 
ATOM      5  C   UNL     1      -0.551   9.970  23.471  0.00  0.00    +0.000 A 
ATOM      6  C   UNL     1       0.480   9.210  22.899  0.00  0.00    +0.000 A 
ATOM      7  C   UNL     1       0.909   9.455  21.593  0.00  0.00    +0.000 A 
ATOM      8  C   UNL     1       0.293  10.467  20.869  0.00  0.00    +0.000 A 
ATOM      9  C   UNL     1       0.589  10.834  19.412  0.00  0.00    +0.000 C 
ATOM     10  C   UNL     1      -0.734  10.776  18.652  0.00  0.00    +0.000 A 
ATOM     11  C   UNL     1      -0.960  10.072  17.477  0.00  0.00    +0.000 A 
ATOM     12  C   UNL     1      -2.219  10.159  16.881  0.00  0.00    +0.000 A 
ATOM     13  C   UNL     1      -3.235  10.937  17.457  0.00  0.00    +0.000 A 
ATOM     14  C   UNL     1      -3.010  11.646  18.638  0.00  0.00    +0.000 A 
ATOM     15  C   UNL     1      -1.759  11.565  19.231  0.00  0.00    +0.000 A 
ATOM     16  C   UNL     1       1.023  12.344  19.410  0.00  0.00    +0.000 C 
ENDROOT
BRANCH   1  17
ATOM     17  C   UNL     1      -0.573  14.467  19.334  0.00  0.00    +0.000 C 
BRANCH  17  18
ATOM     18  N   UNL     1      -1.684  15.147  19.999  0.00  0.00    +0.000 NA
ATOM     19  H   UNL     1      -1.404  16.100  20.234  0.00  0.00    +0.000 HD
ATOM     20  H   UNL     1      -1.895  14.687  20.885  0.00  0.00    +0.000 HD
ENDBRANCH  17  18
ENDBRANCH   1  17
BRANCH  16  21
ATOM     21  C   UNL     1       1.440  12.822  18.004  0.00  0.00    +0.000 C 
BRANCH  21  22
ATOM     22  N   UNL     1       2.687  12.197  17.566  0.00  0.00    +0.000 NA
ATOM     23  H   UNL     1       2.975  11.493  18.246  0.00  0.00    +0.000 HD
ATOM     24  H   UNL     1       3.429  12.897  17.549  0.00  0.00    +0.000 HD
ENDBRANCH  21  22
ENDBRANCH  16  21
TORSDOF 4
ENDMDL
MODEL 7
REMARK VINA RESULT:      -6.2      6.595      9.085
REMARK  Name = 
REMARK  4 active torsions:
REMARK  status: ('A' for Active; 'I' for Inactive)
REMARK    1  A    between atoms: N_1  and  C_2
REMARK    2  A    between atoms: C_2  and  C_3
REMARK    3  A    between atoms: C_18  and  C_19
REMARK    4  A    between atoms: C_19  and  N_20
REMARK                            x       y       z     vdW  Elec       q    Type
REMARK                         _______ _______ _______ _____ _____    ______ ____
ROOT
ATOM      1  C   UNL     1       0.408  12.608  19.062  0.00  0.00    +0.000 C 
ATOM      2  C   UNL     1      -0.260  11.193  18.935  0.00  0.00    +0.000 C 
ATOM      3  C   UNL     1      -1.757  11.461  18.770  0.00  0.00    +0.000 A 
ATOM      4  C   UNL     1      -2.542  11.047  17.703  0.00  0.00    +0.000 A 
ATOM      5  C   UNL     1      -3.906  11.342  17.721  0.00  0.00    +0.000 A 
ATOM      6  C   UNL     1      -4.471  12.049  18.794  0.00  0.00    +0.000 A 
ATOM      7  C   UNL     1      -3.684  12.467  19.868  0.00  0.00    +0.000 A 
ATOM      8  C   UNL     1      -2.328  12.168  19.857  0.00  0.00    +0.000 A 
ATOM      9  C   UNL     1      -1.330  12.491  20.972  0.00  0.00    +0.000 C 
ATOM     10  C   UNL     1      -0.652  11.182  21.367  0.00  0.00    +0.000 A 
ATOM     11  C   UNL     1      -0.547  10.685  22.660  0.00  0.00    +0.000 A 
ATOM     12  C   UNL     1       0.147   9.490  22.859  0.00  0.00    +0.000 A 
ATOM     13  C   UNL     1       0.721   8.804  21.778  0.00  0.00    +0.000 A 
ATOM     14  C   UNL     1       0.615   9.301  20.477  0.00  0.00    +0.000 A 
ATOM     15  C   UNL     1      -0.068  10.490  20.277  0.00  0.00    +0.000 A 
ATOM     16  C   UNL     1      -0.208  13.380  20.324  0.00  0.00    +0.000 C 
ENDROOT
BRANCH   1  17
ATOM     17  C   UNL     1       1.945  12.538  19.016  0.00  0.00    +0.000 C 
BRANCH  17  18
ATOM     18  N   UNL     1       2.435  12.320  17.655  0.00  0.00    +0.000 NA
ATOM     19  H   UNL     1       3.446  12.179  17.678  0.00  0.00    +0.000 HD
ATOM     20  H   UNL     1       2.278  13.154  17.089  0.00  0.00    +0.000 HD
ENDBRANCH  17  18
ENDBRANCH   1  17
BRANCH  16  21
ATOM     21  C   UNL     1       0.824  13.856  21.368  0.00  0.00    +0.000 C 
BRANCH  21  22
ATOM     22  N   UNL     1       0.181  14.494  22.516  0.00  0.00    +0.000 NA
ATOM     23  H   UNL     1       0.887  14.946  23.097  0.00  0.00    +0.000 HD
ATOM     24  H   UNL     1      -0.255  13.780  23.099  0.00  0.00    +0.000 HD
ENDBRANCH  21  22
ENDBRANCH  16  21
TORSDOF 4
ENDMDL
MODEL 8
REMARK VINA RESULT:      -6.2      2.183      2.687
REMARK  Name = 
REMARK  4 active torsions:
REMARK  status: ('A' for Active; 'I' for Inactive)
REMARK    1  A    between atoms: N_1  and  C_2
REMARK    2  A    between atoms: C_2  and  C_3
REMARK    3  A    between atoms: C_18  and  C_19
REMARK    4  A    between atoms: C_19  and  N_20
REMARK                            x       y       z     vdW  Elec       q    Type
REMARK                         _______ _______ _______ _____ _____    ______ ____
ROOT
ATOM      1  C   UNL     1       2.186   4.404  20.029  0.00  0.00    +0.000 C 
ATOM      2  C   UNL     1       3.198   5.601  20.109  0.00  0.00    +0.000 C 
ATOM      3  C   UNL     1       2.447   6.810  19.549  0.00  0.00    +0.000 A 
ATOM      4  C   UNL     1       2.215   8.002  20.221  0.00  0.00    +0.000 A 
ATOM      5  C   UNL     1       1.541   9.026  19.553  0.00  0.00    +0.000 A 
ATOM      6  C   UNL     1       1.102   8.852  18.231  0.00  0.00    +0.000 A 
ATOM      7  C   UNL     1       1.334   7.653  17.553  0.00  0.00    +0.000 A 
ATOM      8  C   UNL     1       2.010   6.635  18.212  0.00  0.00    +0.000 A 
ATOM      9  C   UNL     1       2.405   5.285  17.609  0.00  0.00    +0.000 C 
ATOM     10  C   UNL     1       3.912   5.126  17.798  0.00  0.00    +0.000 A 
ATOM     11  C   UNL     1       4.823   4.813  16.799  0.00  0.00    +0.000 A 
ATOM     12  C   UNL     1       6.166   4.659  17.147  0.00  0.00    +0.000 A 
ATOM     13  C   UNL     1       6.587   4.820  18.476  0.00  0.00    +0.000 A 
ATOM     14  C   UNL     1       5.672   5.136  19.483  0.00  0.00    +0.000 A 
ATOM     15  C   UNL     1       4.337   5.285  19.141  0.00  0.00    +0.000 A 
ATOM     16  C   UNL     1       1.738   4.182  18.506  0.00  0.00    +0.000 C 
ENDROOT
BRANCH   1  17
ATOM     17  C   UNL     1       2.703   3.149  20.756  0.00  0.00    +0.000 C 
BRANCH  17  18
ATOM     18  N   UNL     1       2.051   2.969  22.052  0.00  0.00    +0.000 NA
ATOM     19  H   UNL     1       2.160   2.000  22.354  0.00  0.00    +0.000 HD
ATOM     20  H   UNL     1       1.046   3.127  21.963  0.00  0.00    +0.000 HD
ENDBRANCH  17  18
ENDBRANCH   1  17
BRANCH  16  21
ATOM     21  C   UNL     1       1.982   2.763  17.952  0.00  0.00    +0.000 C 
BRANCH  21  22
ATOM     22  N   UNL     1       0.876   1.860  18.266  0.00  0.00    +0.000 NA
ATOM     23  H   UNL     1       0.894   1.062  17.630  0.00  0.00    +0.000 HD
ATOM     24  H   UNL     1      -0.009   2.338  18.099  0.00  0.00    +0.000 HD
ENDBRANCH  21  22
ENDBRANCH  16  21
TORSDOF 4
ENDMDL
MODEL 9
REMARK VINA RESULT:      -6.1      2.047      4.109
REMARK  Name = 
REMARK  4 active torsions:
REMARK  status: ('A' for Active; 'I' for Inactive)
REMARK    1  A    between atoms: N_1  and  C_2
REMARK    2  A    between atoms: C_2  and  C_3
REMARK    3  A    between atoms: C_18  and  C_19
REMARK    4  A    between atoms: C_19  and  N_20
REMARK                            x       y       z     vdW  Elec       q    Type
REMARK                         _______ _______ _______ _____ _____    ______ ____
ROOT
ATOM      1  C   UNL     1       6.447   7.228  18.041  0.00  0.00    +0.000 C 
ATOM      2  C   UNL     1       5.226   7.124  17.059  0.00  0.00    +0.000 C 
ATOM      3  C   UNL     1       4.002   6.905  17.949  0.00  0.00    +0.000 A 
ATOM      4  C   UNL     1       2.876   7.716  17.994  0.00  0.00    +0.000 A 
ATOM      5  C   UNL     1       1.825   7.355  18.838  0.00  0.00    +0.000 A 
ATOM      6  C   UNL     1       1.906   6.200  19.630  0.00  0.00    +0.000 A 
ATOM      7  C   UNL     1       3.038   5.382  19.587  0.00  0.00    +0.000 A 
ATOM      8  C   UNL     1       4.083   5.734  18.743  0.00  0.00    +0.000 A 
ATOM      9  C   UNL     1       5.366   4.929  18.521  0.00  0.00    +0.000 C 
ATOM     10  C   UNL     1       5.489   4.675  17.021  0.00  0.00    +0.000 A 
ATOM     11  C   UNL     1       5.689   3.437  16.426  0.00  0.00    +0.000 A 
ATOM     12  C   UNL     1       5.827   3.380  15.038  0.00  0.00    +0.000 A 
ATOM     13  C   UNL     1       5.759   4.547  14.261  0.00  0.00    +0.000 A 
ATOM     14  C   UNL     1       5.557   5.793  14.858  0.00  0.00    +0.000 A 
ATOM     15  C   UNL     1       5.425   5.853  16.236  0.00  0.00    +0.000 A 
ATOM     16  C   UNL     1       6.560   5.878  18.899  0.00  0.00    +0.000 C 
ENDROOT
BRANCH   1  17
ATOM     17  C   UNL     1       7.738   7.668  17.329  0.00  0.00    +0.000 C 
BRANCH  17  18
ATOM     18  N   UNL     1       8.186   8.983  17.787  0.00  0.00    +0.000 NA
ATOM     19  H   UNL     1       7.605   9.283  18.571  0.00  0.00    +0.000 HD
ATOM     20  H   UNL     1       8.049   9.675  17.050  0.00  0.00    +0.000 HD
ENDBRANCH  17  18
ENDBRANCH   1  17
BRANCH  16  21
ATOM     21  C   UNL     1       7.920   5.156  18.807  0.00  0.00    +0.000 C 
BRANCH  21  22
ATOM     22  N   UNL     1       8.635   5.182  20.082  0.00  0.00    +0.000 NA
ATOM     23  H   UNL     1       8.370   4.370  20.641  0.00  0.00    +0.000 HD
ATOM     24  H   UNL     1       8.347   6.002  20.615  0.00  0.00    +0.000 HD
ENDBRANCH  21  22
ENDBRANCH  16  21
TORSDOF 4
ENDMDL
