MODEL 1
REMARK VINA RESULT:      -7.1      0.000      0.000
REMARK  Name = 
REMARK  10 active torsions:
REMARK  status: ('A' for Active; 'I' for Inactive)
REMARK    1  A    between atoms: C_1  and  C_2
REMARK    2  A    between atoms: C_2  and  C_3
REMARK    3  A    between atoms: C_3  and  N_4
REMARK    4  A    between atoms: N_4  and  C_5
REMARK    5  A    between atoms: N_4  and  S_9
REMARK    6  A    between atoms: C_5  and  C_6
REMARK    7  A    between atoms: S_9  and  C_12
REMARK    8  A    between atoms: C_15  and  N_16
REMARK    9  A    between atoms: C_21  and  O_22
REMARK   10  A    between atoms: O_22  and  C_23
REMARK                            x       y       z     vdW  Elec       q    Type
REMARK                         _______ _______ _______ _____ _____    ______ ____
ROOT
ATOM      1  C   UNL     1       5.088   4.153  17.818  0.00  0.00    +0.000 A 
ATOM      2  C   UNL     1       4.775   3.368  16.713  0.00  0.00    +0.000 A 
ATOM      3  C   UNL     1       5.400   3.636  15.496  0.00  0.00    +0.000 A 
ATOM      4  C   UNL     1       6.347   4.678  15.376  0.00  0.00    +0.000 A 
ATOM      5  C   UNL     1       6.657   5.470  16.503  0.00  0.00    +0.000 A 
ATOM      6  C   UNL     1       6.018   5.198  17.721  0.00  0.00    +0.000 A 
ENDROOT
BRANCH   4   7
ATOM      7  N   UNL     1       6.961   4.865  14.103  0.00  0.00    +0.000 N 
ATOM      8  C   UNL     1       6.702   4.311  12.874  0.00  0.00    +0.000 A 
ATOM      9  N   UNL     1       7.542   4.790  11.984  0.00  0.00    +0.000 NA
ATOM     10  N   UNL     1       8.341   5.665  12.661  0.00  0.00    +0.000 NA
ATOM     11  N   UNL     1       8.004   5.729  13.941  0.00  0.00    +0.000 NA
ENDBRANCH   4   7
BRANCH   1  12
ATOM     12  S   UNL     1       4.469   3.712  19.429  0.00  0.00    +0.000 S 
ATOM     13  O   UNL     1       5.385   4.349  20.349  0.00  0.00    +0.000 OA
ATOM     14  O   UNL     1       4.262   2.280  19.459  0.00  0.00    +0.000 OA
BRANCH  12  15
ATOM     15  N   UNL     1       2.899   4.466  19.490  0.00  0.00    +0.000 NA
BRANCH  15  16
ATOM     16  C   UNL     1       2.062   3.871  20.601  0.00  0.00    +0.000 C 
BRANCH  16  18
ATOM     17  C   UNL     1       0.847   2.551  18.775  0.00  0.00    +0.000 C 
ATOM     18  C   UNL     1       0.774   3.173  20.159  0.00  0.00    +0.000 C 
ENDBRANCH  16  18
ENDBRANCH  15  16
BRANCH  15  19
ATOM     19  C   UNL     1       2.973   5.966  19.584  0.00  0.00    +0.000 C 
BRANCH  19  20
ATOM     20  C   UNL     1       2.523   6.645  18.322  0.00  0.00    +0.000 C 
ATOM     21  C   UNL     1       2.197   8.119  18.357  0.00  0.00    +0.000 C 
ATOM     22  C   UNL     1       3.359   7.629  17.541  0.00  0.00    +0.000 C 
ENDBRANCH  19  20
ENDBRANCH  15  19
ENDBRANCH  12  15
ENDBRANCH   1  12
BRANCH   5  23
ATOM     23  O   UNL     1       7.579   6.468  16.358  0.00  0.00    +0.000 OA
ATOM     24  C   UNL     1       7.655   7.487  17.349  0.00  0.00    +0.000 C 
ENDBRANCH   5  23
TORSDOF 8
ENDMDL
MODEL 2
REMARK VINA RESULT:      -7.0      3.664      7.392
REMARK  Name = 
REMARK  10 active torsions:
REMARK  status: ('A' for Active; 'I' for Inactive)
REMARK    1  A    between atoms: C_1  and  C_2
REMARK    2  A    between atoms: C_2  and  C_3
REMARK    3  A    between atoms: C_3  and  N_4
REMARK    4  A    between atoms: N_4  and  C_5
REMARK    5  A    between atoms: N_4  and  S_9
REMARK    6  A    between atoms: C_5  and  C_6
REMARK    7  A    between atoms: S_9  and  C_12
REMARK    8  A    between atoms: C_15  and  N_16
REMARK    9  A    between atoms: C_21  and  O_22
REMARK   10  A    between atoms: O_22  and  C_23
REMARK                            x       y       z     vdW  Elec       q    Type
REMARK                         _______ _______ _______ _____ _____    ______ ____
ROOT
ATOM      1  C   UNL     1       3.108   6.682  18.647  0.00  0.00    +0.000 A 
ATOM      2  C   UNL     1       3.132   7.593  17.596  0.00  0.00    +0.000 A 
ATOM      3  C   UNL     1       2.368   8.756  17.693  0.00  0.00    +0.000 A 
ATOM      4  C   UNL     1       1.586   9.021  18.839  0.00  0.00    +0.000 A 
ATOM      5  C   UNL     1       1.566   8.089  19.899  0.00  0.00    +0.000 A 
ATOM      6  C   UNL     1       2.332   6.920  19.790  0.00  0.00    +0.000 A 
ENDROOT
BRANCH   4   7
ATOM      7  N   UNL     1       0.859  10.247  18.869  0.00  0.00    +0.000 N 
ATOM      8  C   UNL     1       1.209  11.507  19.287  0.00  0.00    +0.000 A 
ATOM      9  N   UNL     1       0.196  12.327  19.126  0.00  0.00    +0.000 NA
ATOM     10  N   UNL     1      -0.810  11.575  18.593  0.00  0.00    +0.000 NA
ATOM     11  N   UNL     1      -0.429  10.316  18.425  0.00  0.00    +0.000 NA
ENDBRANCH   4   7
BRANCH   1  12
ATOM     12  S   UNL     1       4.224   5.294  18.650  0.00  0.00    +0.000 S 
ATOM     13  O   UNL     1       3.378   4.155  18.375  0.00  0.00    +0.000 OA
ATOM     14  O   UNL     1       5.020   5.355  19.857  0.00  0.00    +0.000 OA
BRANCH  12  15
ATOM     15  N   UNL     1       5.290   5.618  17.308  0.00  0.00    +0.000 NA
BRANCH  15  16
ATOM     16  C   UNL     1       6.644   6.078  17.799  0.00  0.00    +0.000 C 
BRANCH  16  18
ATOM     17  C   UNL     1       8.152   8.121  18.122  0.00  0.00    +0.000 C 
ATOM     18  C   UNL     1       7.128   7.420  17.246  0.00  0.00    +0.000 C 
ENDBRANCH  16  18
ENDBRANCH  15  16
BRANCH  15  19
ATOM     19  C   UNL     1       5.402   4.456  16.358  0.00  0.00    +0.000 C 
BRANCH  19  20
ATOM     20  C   UNL     1       5.593   4.894  14.934  0.00  0.00    +0.000 C 
ATOM     21  C   UNL     1       6.958   4.768  14.303  0.00  0.00    +0.000 C 
ATOM     22  C   UNL     1       5.813   3.951  13.776  0.00  0.00    +0.000 C 
ENDBRANCH  19  20
ENDBRANCH  15  19
ENDBRANCH  12  15
ENDBRANCH   1  12
BRANCH   5  23
ATOM     23  O   UNL     1       0.803   8.375  20.996  0.00  0.00    +0.000 OA
ATOM     24  C   UNL     1       1.423   8.968  22.132  0.00  0.00    +0.000 C 
ENDBRANCH   5  23
TORSDOF 8
ENDMDL
MODEL 3
REMARK VINA RESULT:      -7.0      3.736      7.186
REMARK  Name = 
REMARK  10 active torsions:
REMARK  status: ('A' for Active; 'I' for Inactive)
REMARK    1  A    between atoms: C_1  and  C_2
REMARK    2  A    between atoms: C_2  and  C_3
REMARK    3  A    between atoms: C_3  and  N_4
REMARK    4  A    between atoms: N_4  and  C_5
REMARK    5  A    between atoms: N_4  and  S_9
REMARK    6  A    between atoms: C_5  and  C_6
REMARK    7  A    between atoms: S_9  and  C_12
REMARK    8  A    between atoms: C_15  and  N_16
REMARK    9  A    between atoms: C_21  and  O_22
REMARK   10  A    between atoms: O_22  and  C_23
REMARK                            x       y       z     vdW  Elec       q    Type
REMARK                         _______ _______ _______ _____ _____    ______ ____
ROOT
ATOM      1  C   UNL     1       3.160   6.869  18.676  0.00  0.00    +0.000 A 
ATOM      2  C   UNL     1       3.064   7.782  17.631  0.00  0.00    +0.000 A 
ATOM      3  C   UNL     1       2.191   8.862  17.756  0.00  0.00    +0.000 A 
ATOM      4  C   UNL     1       1.420   9.044  18.926  0.00  0.00    +0.000 A 
ATOM      5  C   UNL     1       1.523   8.111  19.980  0.00  0.00    +0.000 A 
ATOM      6  C   UNL     1       2.397   7.024  19.841  0.00  0.00    +0.000 A 
ENDROOT
BRANCH   4   7
ATOM      7  N   UNL     1       0.575  10.191  18.984  0.00  0.00    +0.000 N 
ATOM      8  C   UNL     1      -0.753  10.364  18.682  0.00  0.00    +0.000 A 
ATOM      9  N   UNL     1      -1.098  11.615  18.891  0.00  0.00    +0.000 NA
ATOM     10  N   UNL     1       0.029  12.242  19.336  0.00  0.00    +0.000 NA
ATOM     11  N   UNL     1       1.050  11.398  19.404  0.00  0.00    +0.000 NA
ENDBRANCH   4   7
BRANCH   1  12
ATOM     12  S   UNL     1       4.408   5.599  18.638  0.00  0.00    +0.000 S 
ATOM     13  O   UNL     1       4.134   4.795  19.808  0.00  0.00    +0.000 OA
ATOM     14  O   UNL     1       5.697   6.234  18.458  0.00  0.00    +0.000 OA
BRANCH  12  15
ATOM     15  N   UNL     1       4.056   4.715  17.177  0.00  0.00    +0.000 NA
BRANCH  15  16
ATOM     16  C   UNL     1       5.082   5.017  16.108  0.00  0.00    +0.000 C 
BRANCH  16  18
ATOM     17  C   UNL     1       6.128   3.905  14.053  0.00  0.00    +0.000 C 
ATOM     18  C   UNL     1       5.821   3.805  15.537  0.00  0.00    +0.000 C 
ENDBRANCH  16  18
ENDBRANCH  15  16
BRANCH  15  19
ATOM     19  C   UNL     1       3.907   3.235  17.411  0.00  0.00    +0.000 C 
BRANCH  19  20
ATOM     20  C   UNL     1       2.471   2.796  17.425  0.00  0.00    +0.000 C 
ATOM     21  C   UNL     1       1.880   2.258  18.706  0.00  0.00    +0.000 C 
ATOM     22  C   UNL     1       1.360   3.541  18.123  0.00  0.00    +0.000 C 
ENDBRANCH  19  20
ENDBRANCH  15  19
ENDBRANCH  12  15
ENDBRANCH   1  12
BRANCH   5  23
ATOM     23  O   UNL     1       0.767   8.315  21.100  0.00  0.00    +0.000 OA
ATOM     24  C   UNL     1       1.326   9.047  22.185  0.00  0.00    +0.000 C 
ENDBRANCH   5  23
TORSDOF 8
ENDMDL
MODEL 4
REMARK VINA RESULT:      -6.9      3.307      7.495
REMARK  Name = 
REMARK  10 active torsions:
REMARK  status: ('A' for Active; 'I' for Inactive)
REMARK    1  A    between atoms: C_1  and  C_2
REMARK    2  A    between atoms: C_2  and  C_3
REMARK    3  A    between atoms: C_3  and  N_4
REMARK    4  A    between atoms: N_4  and  C_5
REMARK    5  A    between atoms: N_4  and  S_9
REMARK    6  A    between atoms: C_5  and  C_6
REMARK    7  A    between atoms: S_9  and  C_12
REMARK    8  A    between atoms: C_15  and  N_16
REMARK    9  A    between atoms: C_21  and  O_22
REMARK   10  A    between atoms: O_22  and  C_23
REMARK                            x       y       z     vdW  Elec       q    Type
REMARK                         _______ _______ _______ _____ _____    ______ ____
ROOT
ATOM      1  C   UNL     1       2.825   5.555  19.065  0.00  0.00    +0.000 A 
ATOM      2  C   UNL     1       2.341   5.200  20.320  0.00  0.00    +0.000 A 
ATOM      3  C   UNL     1       1.718   6.171  21.103  0.00  0.00    +0.000 A 
ATOM      4  C   UNL     1       1.565   7.496  20.637  0.00  0.00    +0.000 A 
ATOM      5  C   UNL     1       2.062   7.847  19.362  0.00  0.00    +0.000 A 
ATOM      6  C   UNL     1       2.693   6.865  18.586  0.00  0.00    +0.000 A 
ENDROOT
BRANCH   4   7
ATOM      7  N   UNL     1       0.890   8.419  21.488  0.00  0.00    +0.000 N 
ATOM      8  C   UNL     1      -0.443   8.708  21.646  0.00  0.00    +0.000 A 
ATOM      9  N   UNL     1      -0.590   9.645  22.556  0.00  0.00    +0.000 NA
ATOM     10  N   UNL     1       0.670   9.948  22.984  0.00  0.00    +0.000 NA
ATOM     11  N   UNL     1       1.578   9.215  22.355  0.00  0.00    +0.000 NA
ENDBRANCH   4   7
BRANCH   1  12
ATOM     12  S   UNL     1       3.438   4.301  17.958  0.00  0.00    +0.000 S 
ATOM     13  O   UNL     1       2.304   3.983  17.119  0.00  0.00    +0.000 OA
ATOM     14  O   UNL     1       4.089   3.278  18.747  0.00  0.00    +0.000 OA
BRANCH  12  15
ATOM     15  N   UNL     1       4.677   5.122  17.047  0.00  0.00    +0.000 NA
BRANCH  15  16
ATOM     16  C   UNL     1       5.564   5.935  17.963  0.00  0.00    +0.000 C 
BRANCH  16  18
ATOM     17  C   UNL     1       7.772   5.641  19.225  0.00  0.00    +0.000 C 
ATOM     18  C   UNL     1       7.061   5.624  17.883  0.00  0.00    +0.000 C 
ENDBRANCH  16  18
ENDBRANCH  15  16
BRANCH  15  19
ATOM     19  C   UNL     1       5.474   4.191  16.173  0.00  0.00    +0.000 C 
BRANCH  19  20
ATOM     20  C   UNL     1       5.592   4.688  14.761  0.00  0.00    +0.000 C 
ATOM     21  C   UNL     1       6.964   4.857  14.154  0.00  0.00    +0.000 C 
ATOM     22  C   UNL     1       6.018   3.835  13.592  0.00  0.00    +0.000 C 
ENDBRANCH  19  20
ENDBRANCH  15  19
ENDBRANCH  12  15
ENDBRANCH   1  12
BRANCH   5  23
ATOM     23  O   UNL     1       1.896   9.135  18.937  0.00  0.00    +0.000 OA
ATOM     24  C   UNL     1       0.919   9.411  17.939  0.00  0.00    +0.000 C 
ENDBRANCH   5  23
TORSDOF 8
ENDMDL
MODEL 5
REMARK VINA RESULT:      -6.9      3.101      7.128
REMARK  Name = 
REMARK  10 active torsions:
REMARK  status: ('A' for Active; 'I' for Inactive)
REMARK    1  A    between atoms: C_1  and  C_2
REMARK    2  A    between atoms: C_2  and  C_3
REMARK    3  A    between atoms: C_3  and  N_4
REMARK    4  A    between atoms: N_4  and  C_5
REMARK    5  A    between atoms: N_4  and  S_9
REMARK    6  A    between atoms: C_5  and  C_6
REMARK    7  A    between atoms: S_9  and  C_12
REMARK    8  A    between atoms: C_15  and  N_16
REMARK    9  A    between atoms: C_21  and  O_22
REMARK   10  A    between atoms: O_22  and  C_23
REMARK                            x       y       z     vdW  Elec       q    Type
REMARK                         _______ _______ _______ _____ _____    ______ ____
ROOT
ATOM      1  C   UNL     1       2.700   4.930  19.074  0.00  0.00    +0.000 A 
ATOM      2  C   UNL     1       2.086   4.703  20.301  0.00  0.00    +0.000 A 
ATOM      3  C   UNL     1       1.560   5.786  21.004  0.00  0.00    +0.000 A 
ATOM      4  C   UNL     1       1.632   7.097  20.484  0.00  0.00    +0.000 A 
ATOM      5  C   UNL     1       2.258   7.318  19.238  0.00  0.00    +0.000 A 
ATOM      6  C   UNL     1       2.791   6.224  18.542  0.00  0.00    +0.000 A 
ENDROOT
BRANCH   4   7
ATOM      7  N   UNL     1       1.042   8.143  21.252  0.00  0.00    +0.000 N 
ATOM      8  C   UNL     1      -0.249   8.606  21.326  0.00  0.00    +0.000 A 
ATOM      9  N   UNL     1      -0.316   9.602  22.181  0.00  0.00    +0.000 NA
ATOM     10  N   UNL     1       0.952   9.768  22.658  0.00  0.00    +0.000 NA
ATOM     11  N   UNL     1       1.786   8.894  22.114  0.00  0.00    +0.000 NA
ENDBRANCH   4   7
BRANCH   1  12
ATOM     12  S   UNL     1       3.197   3.555  18.057  0.00  0.00    +0.000 S 
ATOM     13  O   UNL     1       2.367   3.666  16.878  0.00  0.00    +0.000 OA
ATOM     14  O   UNL     1       3.177   2.358  18.870  0.00  0.00    +0.000 OA
BRANCH  12  15
ATOM     15  N   UNL     1       4.864   3.900  17.680  0.00  0.00    +0.000 NA
BRANCH  15  16
ATOM     16  C   UNL     1       4.994   4.436  16.271  0.00  0.00    +0.000 C 
BRANCH  16  18
ATOM     17  C   UNL     1       6.179   4.307  14.006  0.00  0.00    +0.000 C 
ATOM     18  C   UNL     1       5.900   3.631  15.337  0.00  0.00    +0.000 C 
ENDBRANCH  16  18
ENDBRANCH  15  16
BRANCH  15  19
ATOM     19  C   UNL     1       5.516   4.806  18.689  0.00  0.00    +0.000 C 
BRANCH  19  20
ATOM     20  C   UNL     1       6.951   5.099  18.357  0.00  0.00    +0.000 C 
ATOM     21  C   UNL     1       7.359   6.519  18.045  0.00  0.00    +0.000 C 
ATOM     22  C   UNL     1       7.902   5.836  19.268  0.00  0.00    +0.000 C 
ENDBRANCH  19  20
ENDBRANCH  15  19
ENDBRANCH  12  15
ENDBRANCH   1  12
BRANCH   5  23
ATOM     23  O   UNL     1       2.310   8.597  18.758  0.00  0.00    +0.000 OA
ATOM     24  C   UNL     1       1.364   9.003  17.775  0.00  0.00    +0.000 C 
ENDBRANCH   5  23
TORSDOF 8
ENDMDL
MODEL 6
REMARK VINA RESULT:      -6.8      3.871      7.547
REMARK  Name = 
REMARK  10 active torsions:
REMARK  status: ('A' for Active; 'I' for Inactive)
REMARK    1  A    between atoms: C_1  and  C_2
REMARK    2  A    between atoms: C_2  and  C_3
REMARK    3  A    between atoms: C_3  and  N_4
REMARK    4  A    between atoms: N_4  and  C_5
REMARK    5  A    between atoms: N_4  and  S_9
REMARK    6  A    between atoms: C_5  and  C_6
REMARK    7  A    between atoms: S_9  and  C_12
REMARK    8  A    between atoms: C_15  and  N_16
REMARK    9  A    between atoms: C_21  and  O_22
REMARK   10  A    between atoms: O_22  and  C_23
REMARK                            x       y       z     vdW  Elec       q    Type
REMARK                         _______ _______ _______ _____ _____    ______ ____
ROOT
ATOM      1  C   UNL     1       2.928   7.000  18.549  0.00  0.00    +0.000 A 
ATOM      2  C   UNL     1       2.862   7.975  17.560  0.00  0.00    +0.000 A 
ATOM      3  C   UNL     1       2.082   9.110  17.781  0.00  0.00    +0.000 A 
ATOM      4  C   UNL     1       1.375   9.284  18.992  0.00  0.00    +0.000 A 
ATOM      5  C   UNL     1       1.447   8.287  19.989  0.00  0.00    +0.000 A 
ATOM      6  C   UNL     1       2.227   7.147  19.754  0.00  0.00    +0.000 A 
ENDROOT
BRANCH   4   7
ATOM      7  N   UNL     1       0.626  10.487  19.149  0.00  0.00    +0.000 N 
ATOM      8  C   UNL     1      -0.690  10.783  18.894  0.00  0.00    +0.000 A 
ATOM      9  N   UNL     1      -0.929  12.040  19.195  0.00  0.00    +0.000 NA
ATOM     10  N   UNL     1       0.253  12.544  19.652  0.00  0.00    +0.000 NA
ATOM     11  N   UNL     1       1.205  11.621  19.637  0.00  0.00    +0.000 NA
ENDBRANCH   4   7
BRANCH   1  12
ATOM     12  S   UNL     1       4.070   5.643  18.388  0.00  0.00    +0.000 S 
ATOM     13  O   UNL     1       3.386   4.700  17.531  0.00  0.00    +0.000 OA
ATOM     14  O   UNL     1       4.510   5.260  19.713  0.00  0.00    +0.000 OA
BRANCH  12  15
ATOM     15  N   UNL     1       5.439   6.349  17.571  0.00  0.00    +0.000 NA
BRANCH  15  16
ATOM     16  C   UNL     1       6.735   5.862  18.180  0.00  0.00    +0.000 C 
BRANCH  16  18
ATOM     17  C   UNL     1       7.549   8.216  17.590  0.00  0.00    +0.000 C 
ATOM     18  C   UNL     1       7.840   6.913  18.312  0.00  0.00    +0.000 C 
ENDBRANCH  16  18
ENDBRANCH  15  16
BRANCH  15  19
ATOM     19  C   UNL     1       5.403   6.137  16.081  0.00  0.00    +0.000 C 
BRANCH  19  20
ATOM     20  C   UNL     1       6.408   5.120  15.620  0.00  0.00    +0.000 C 
ATOM     21  C   UNL     1       5.939   3.726  15.279  0.00  0.00    +0.000 C 
ATOM     22  C   UNL     1       6.510   4.607  14.205  0.00  0.00    +0.000 C 
ENDBRANCH  19  20
ENDBRANCH  15  19
ENDBRANCH  12  15
ENDBRANCH   1  12
BRANCH   5  23
ATOM     23  O   UNL     1       0.755   8.485  21.151  0.00  0.00    +0.000 OA
ATOM     24  C   UNL     1       1.414   9.105  22.250  0.00  0.00    +0.000 C 
ENDBRANCH   5  23
TORSDOF 8
ENDMDL
MODEL 7
REMARK VINA RESULT:      -6.8      3.675      7.515
REMARK  Name = 
REMARK  10 active torsions:
REMARK  status: ('A' for Active; 'I' for Inactive)
REMARK    1  A    between atoms: C_1  and  C_2
REMARK    2  A    between atoms: C_2  and  C_3
REMARK    3  A    between atoms: C_3  and  N_4
REMARK    4  A    between atoms: N_4  and  C_5
REMARK    5  A    between atoms: N_4  and  S_9
REMARK    6  A    between atoms: C_5  and  C_6
REMARK    7  A    between atoms: S_9  and  C_12
REMARK    8  A    between atoms: C_15  and  N_16
REMARK    9  A    between atoms: C_21  and  O_22
REMARK   10  A    between atoms: O_22  and  C_23
REMARK                            x       y       z     vdW  Elec       q    Type
REMARK                         _______ _______ _______ _____ _____    ______ ____
ROOT
ATOM      1  C   UNL     1       2.833   6.452  19.074  0.00  0.00    +0.000 A 
ATOM      2  C   UNL     1       2.369   6.452  20.386  0.00  0.00    +0.000 A 
ATOM      3  C   UNL     1       1.650   7.554  20.848  0.00  0.00    +0.000 A 
ATOM      4  C   UNL     1       1.380   8.654  20.004  0.00  0.00    +0.000 A 
ATOM      5  C   UNL     1       1.857   8.646  18.675  0.00  0.00    +0.000 A 
ATOM      6  C   UNL     1       2.584   7.537  18.222  0.00  0.00    +0.000 A 
ENDROOT
BRANCH   4   7
ATOM      7  N   UNL     1       0.613   9.726  20.547  0.00  0.00    +0.000 N 
ATOM      8  C   UNL     1      -0.613  10.239  20.201  0.00  0.00    +0.000 A 
ATOM      9  N   UNL     1      -0.916  11.241  20.994  0.00  0.00    +0.000 NA
ATOM     10  N   UNL     1       0.132  11.362  21.859  0.00  0.00    +0.000 NA
ATOM     11  N   UNL     1       1.065  10.453  21.609  0.00  0.00    +0.000 NA
ENDBRANCH   4   7
BRANCH   1  12
ATOM     12  S   UNL     1       3.571   4.983  18.390  0.00  0.00    +0.000 S 
ATOM     13  O   UNL     1       2.612   4.527  17.408  0.00  0.00    +0.000 OA
ATOM     14  O   UNL     1       3.979   4.128  19.483  0.00  0.00    +0.000 OA
BRANCH  12  15
ATOM     15  N   UNL     1       5.021   5.569  17.619  0.00  0.00    +0.000 NA
BRANCH  15  16
ATOM     16  C   UNL     1       6.246   4.913  18.215  0.00  0.00    +0.000 C 
BRANCH  16  18
ATOM     17  C   UNL     1       7.654   7.033  17.934  0.00  0.00    +0.000 C 
ATOM     18  C   UNL     1       7.274   5.866  18.829  0.00  0.00    +0.000 C 
ENDBRANCH  16  18
ENDBRANCH  15  16
BRANCH  15  19
ATOM     19  C   UNL     1       4.983   5.431  16.120  0.00  0.00    +0.000 C 
BRANCH  19  20
ATOM     20  C   UNL     1       6.007   4.462  15.605  0.00  0.00    +0.000 C 
ATOM     21  C   UNL     1       5.917   3.988  14.175  0.00  0.00    +0.000 C 
ATOM     22  C   UNL     1       7.090   4.814  14.616  0.00  0.00    +0.000 C 
ENDBRANCH  19  20
ENDBRANCH  15  19
ENDBRANCH  12  15
ENDBRANCH   1  12
BRANCH   5  23
ATOM     23  O   UNL     1       1.577   9.722  17.882  0.00  0.00    +0.000 OA
ATOM     24  C   UNL     1       2.375  10.894  18.003  0.00  0.00    +0.000 C 
ENDBRANCH   5  23
TORSDOF 8
ENDMDL
MODEL 8
REMARK VINA RESULT:      -6.8      3.124      7.305
REMARK  Name = 
REMARK  10 active torsions:
REMARK  status: ('A' for Active; 'I' for Inactive)
REMARK    1  A    between atoms: C_1  and  C_2
REMARK    2  A    between atoms: C_2  and  C_3
REMARK    3  A    between atoms: C_3  and  N_4
REMARK    4  A    between atoms: N_4  and  C_5
REMARK    5  A    between atoms: N_4  and  S_9
REMARK    6  A    between atoms: C_5  and  C_6
REMARK    7  A    between atoms: S_9  and  C_12
REMARK    8  A    between atoms: C_15  and  N_16
REMARK    9  A    between atoms: C_21  and  O_22
REMARK   10  A    between atoms: O_22  and  C_23
REMARK                            x       y       z     vdW  Elec       q    Type
REMARK                         _______ _______ _______ _____ _____    ______ ____
ROOT
ATOM      1  C   UNL     1       2.728   5.093  19.036  0.00  0.00    +0.000 A 
ATOM      2  C   UNL     1       2.323   4.812  20.336  0.00  0.00    +0.000 A 
ATOM      3  C   UNL     1       1.769   5.833  21.107  0.00  0.00    +0.000 A 
ATOM      4  C   UNL     1       1.605   7.135  20.584  0.00  0.00    +0.000 A 
ATOM      5  C   UNL     1       2.020   7.411  19.263  0.00  0.00    +0.000 A 
ATOM      6  C   UNL     1       2.583   6.380  18.498  0.00  0.00    +0.000 A 
ENDROOT
BRANCH   4   7
ATOM      7  N   UNL     1       1.002   8.112  21.428  0.00  0.00    +0.000 N 
ATOM      8  C   UNL     1       1.545   9.072  22.246  0.00  0.00    +0.000 A 
ATOM      9  N   UNL     1       0.586   9.745  22.840  0.00  0.00    +0.000 NA
ATOM     10  N   UNL     1      -0.583   9.206  22.387  0.00  0.00    +0.000 NA
ATOM     11  N   UNL     1      -0.353   8.220  21.529  0.00  0.00    +0.000 NA
ENDBRANCH   4   7
BRANCH   1  12
ATOM     12  S   UNL     1       3.246   3.774  17.957  0.00  0.00    +0.000 S 
ATOM     13  O   UNL     1       2.213   3.713  16.947  0.00  0.00    +0.000 OA
ATOM     14  O   UNL     1       3.559   2.619  18.771  0.00  0.00    +0.000 OA
BRANCH  12  15
ATOM     15  N   UNL     1       4.745   4.355  17.282  0.00  0.00    +0.000 NA
BRANCH  15  16
ATOM     16  C   UNL     1       5.818   4.429  18.345  0.00  0.00    +0.000 C 
BRANCH  16  18
ATOM     17  C   UNL     1       6.244   6.801  17.481  0.00  0.00    +0.000 C 
ATOM     18  C   UNL     1       6.361   5.829  18.642  0.00  0.00    +0.000 C 
ENDBRANCH  16  18
ENDBRANCH  15  16
BRANCH  15  19
ATOM     19  C   UNL     1       5.193   3.561  16.084  0.00  0.00    +0.000 C 
BRANCH  19  20
ATOM     20  C   UNL     1       5.473   4.428  14.890  0.00  0.00    +0.000 C 
ATOM     21  C   UNL     1       6.904   4.682  14.486  0.00  0.00    +0.000 C 
ATOM     22  C   UNL     1       5.993   3.916  13.570  0.00  0.00    +0.000 C 
ENDBRANCH  19  20
ENDBRANCH  15  19
ENDBRANCH  12  15
ENDBRANCH   1  12
BRANCH   5  23
ATOM     23  O   UNL     1       1.845   8.678  18.783  0.00  0.00    +0.000 OA
ATOM     24  C   UNL     1       2.382   9.013  17.507  0.00  0.00    +0.000 C 
ENDBRANCH   5  23
TORSDOF 8
ENDMDL
MODEL 9
REMARK VINA RESULT:      -6.8      4.078      7.604
REMARK  Name = 
REMARK  10 active torsions:
REMARK  status: ('A' for Active; 'I' for Inactive)
REMARK    1  A    between atoms: C_1  and  C_2
REMARK    2  A    between atoms: C_2  and  C_3
REMARK    3  A    between atoms: C_3  and  N_4
REMARK    4  A    between atoms: N_4  and  C_5
REMARK    5  A    between atoms: N_4  and  S_9
REMARK    6  A    between atoms: C_5  and  C_6
REMARK    7  A    between atoms: S_9  and  C_12
REMARK    8  A    between atoms: C_15  and  N_16
REMARK    9  A    between atoms: C_21  and  O_22
REMARK   10  A    between atoms: O_22  and  C_23
REMARK                            x       y       z     vdW  Elec       q    Type
REMARK                         _______ _______ _______ _____ _____    ______ ____
ROOT
ATOM      1  C   UNL     1       2.597   7.395  18.758  0.00  0.00    +0.000 A 
ATOM      2  C   UNL     1       2.320   8.207  17.664  0.00  0.00    +0.000 A 
ATOM      3  C   UNL     1       1.489   9.314  17.838  0.00  0.00    +0.000 A 
ATOM      4  C   UNL     1       0.942   9.623  19.103  0.00  0.00    +0.000 A 
ATOM      5  C   UNL     1       1.228   8.791  20.207  0.00  0.00    +0.000 A 
ATOM      6  C   UNL     1       2.057   7.676  20.020  0.00  0.00    +0.000 A 
ENDROOT
BRANCH   4   7
ATOM      7  N   UNL     1       0.128  10.789  19.200  0.00  0.00    +0.000 N 
ATOM      8  C   UNL     1       0.441  12.103  19.450  0.00  0.00    +0.000 A 
ATOM      9  N   UNL     1      -0.654  12.829  19.448  0.00  0.00    +0.000 NA
ATOM     10  N   UNL     1      -1.675  11.962  19.187  0.00  0.00    +0.000 NA
ATOM     11  N   UNL     1      -1.224  10.725  19.030  0.00  0.00    +0.000 NA
ENDBRANCH   4   7
BRANCH   1  12
ATOM     12  S   UNL     1       3.812   6.099  18.621  0.00  0.00    +0.000 S 
ATOM     13  O   UNL     1       3.831   5.488  19.932  0.00  0.00    +0.000 OA
ATOM     14  O   UNL     1       5.014   6.663  18.046  0.00  0.00    +0.000 OA
BRANCH  12  15
ATOM     15  N   UNL     1       3.129   5.015  17.438  0.00  0.00    +0.000 NA
BRANCH  15  16
ATOM     16  C   UNL     1       4.079   3.875  17.146  0.00  0.00    +0.000 C 
BRANCH  16  18
ATOM     17  C   UNL     1       6.400   4.155  16.104  0.00  0.00    +0.000 C 
ATOM     18  C   UNL     1       4.907   4.014  15.866  0.00  0.00    +0.000 C 
ENDBRANCH  16  18
ENDBRANCH  15  16
BRANCH  15  19
ATOM     19  C   UNL     1       1.759   4.522  17.819  0.00  0.00    +0.000 C 
BRANCH  19  20
ATOM     20  C   UNL     1       1.808   3.278  18.659  0.00  0.00    +0.000 C 
ATOM     21  C   UNL     1       1.026   3.231  19.949  0.00  0.00    +0.000 C 
ATOM     22  C   UNL     1       0.659   2.313  18.819  0.00  0.00    +0.000 C 
ENDBRANCH  19  20
ENDBRANCH  15  19
ENDBRANCH  12  15
ENDBRANCH   1  12
BRANCH   5  23
ATOM     23  O   UNL     1       0.687   9.116  21.419  0.00  0.00    +0.000 OA
ATOM     24  C   UNL     1      -0.485   8.437  21.856  0.00  0.00    +0.000 C 
ENDBRANCH   5  23
TORSDOF 8
ENDMDL
