MODEL 1
REMARK VINA RESULT:      -7.4      0.000      0.000
REMARK  Name = 
REMARK  5 active torsions:
REMARK  status: ('A' for Active; 'I' for Inactive)
REMARK    1  A    between atoms: C_2  and  C_3
REMARK    2  A    between atoms: C_3  and  C_4
REMARK    3  A    between atoms: C_7  and  N_8
REMARK    4  A    between atoms: N_13  and  C_14
REMARK    5  A    between atoms: C_14  and  C_15
REMARK                            x       y       z     vdW  Elec       q    Type
REMARK                         _______ _______ _______ _____ _____    ______ ____
ROOT
ATOM      1  O   UNL     1       1.052   3.863  20.522  0.00  0.00    +0.000 OA
ATOM      2  C   UNL     1       2.202   4.197  20.250  0.00  0.00    +0.000 C 
ATOM      3  N   UNL     1       2.658   5.496  20.366  0.00  0.00    +0.000 N 
ATOM      4  H   UNL     1       3.641   5.683  20.229  0.00  0.00    +0.000 HD
ENDROOT
BRANCH   2   5
ATOM      5  C   UNL     1       3.247   3.204  19.770  0.00  0.00    +0.000 C 
BRANCH   5   6
ATOM      6  C   UNL     1       4.227   3.814  18.794  0.00  0.00    +0.000 A 
ATOM      7  C   UNL     1       3.975   3.774  17.414  0.00  0.00    +0.000 A 
ATOM      8  C   UNL     1       4.903   4.291  16.506  0.00  0.00    +0.000 A 
ATOM      9  C   UNL     1       6.084   4.870  16.982  0.00  0.00    +0.000 A 
ATOM     10  C   UNL     1       6.337   4.943  18.358  0.00  0.00    +0.000 A 
ATOM     11  C   UNL     1       5.406   4.419  19.258  0.00  0.00    +0.000 A 
BRANCH   9  12
ATOM     12  N   UNL     1       7.071   5.401  16.034  0.00  0.00    +0.000 N 
ATOM     13  O   UNL     1       7.544   6.525  16.260  0.00  0.00    +0.000 OA
ATOM     14  O   UNL     1       7.374   4.695  15.060  0.00  0.00    +0.000 OA
ENDBRANCH   9  12
ENDBRANCH   5   6
ENDBRANCH   2   5
BRANCH   3  15
ATOM     15  C   UNL     1       1.833   6.580  20.846  0.00  0.00    +0.000 C 
BRANCH  15  16
ATOM     16  C   UNL     1       1.750   7.729  19.870  0.00  0.00    +0.000 A 
ATOM     17  C   UNL     1       2.385   7.604  18.620  0.00  0.00    +0.000 A 
ATOM     18  C   UNL     1       2.386   8.658  17.706  0.00  0.00    +0.000 A 
ATOM     19  C   UNL     1       1.741   9.851  18.016  0.00  0.00    +0.000 A 
ATOM     20  C   UNL     1       1.081   9.983  19.237  0.00  0.00    +0.000 A 
ATOM     21  C   UNL     1       1.080   8.928  20.157  0.00  0.00    +0.000 A 
ATOM     22 CL   UNL     1       0.239   9.172  21.647  0.00  0.00    +0.000 Cl
ENDBRANCH  15  16
ENDBRANCH   3  15
TORSDOF 5
ENDMDL
MODEL 2
REMARK VINA RESULT:      -7.3      5.368      6.980
REMARK  Name = 
REMARK  5 active torsions:
REMARK  status: ('A' for Active; 'I' for Inactive)
REMARK    1  A    between atoms: C_2  and  C_3
REMARK    2  A    between atoms: C_3  and  C_4
REMARK    3  A    between atoms: C_7  and  N_8
REMARK    4  A    between atoms: N_13  and  C_14
REMARK    5  A    between atoms: C_14  and  C_15
REMARK                            x       y       z     vdW  Elec       q    Type
REMARK                         _______ _______ _______ _____ _____    ______ ____
ROOT
ATOM      1  O   UNL     1       7.196   7.965  17.015  0.00  0.00    +0.000 OA
ATOM      2  C   UNL     1       7.891   7.744  18.002  0.00  0.00    +0.000 C 
ATOM      3  N   UNL     1       8.564   8.736  18.690  0.00  0.00    +0.000 N 
ATOM      4  H   UNL     1       9.030   8.502  19.554  0.00  0.00    +0.000 HD
ENDROOT
BRANCH   2   5
ATOM      5  C   UNL     1       8.069   6.349  18.578  0.00  0.00    +0.000 C 
BRANCH   5   6
ATOM      6  C   UNL     1       6.884   5.451  18.310  0.00  0.00    +0.000 A 
ATOM      7  C   UNL     1       6.746   4.806  17.070  0.00  0.00    +0.000 A 
ATOM      8  C   UNL     1       5.626   4.016  16.801  0.00  0.00    +0.000 A 
ATOM      9  C   UNL     1       4.644   3.852  17.785  0.00  0.00    +0.000 A 
ATOM     10  C   UNL     1       4.782   4.465  19.036  0.00  0.00    +0.000 A 
ATOM     11  C   UNL     1       5.903   5.257  19.295  0.00  0.00    +0.000 A 
BRANCH   9  12
ATOM     12  N   UNL     1       3.457   3.036  17.503  0.00  0.00    +0.000 N 
ATOM     13  O   UNL     1       3.431   1.879  17.948  0.00  0.00    +0.000 OA
ATOM     14  O   UNL     1       2.549   3.550  16.833  0.00  0.00    +0.000 OA
ENDBRANCH   9  12
ENDBRANCH   5   6
ENDBRANCH   2   5
BRANCH   3  15
ATOM     15  C   UNL     1       8.490  10.134  18.329  0.00  0.00    +0.000 C 
BRANCH  15  16
ATOM     16  C   UNL     1       9.724  10.907  18.726  0.00  0.00    +0.000 A 
ATOM     17  C   UNL     1      10.664  11.241  17.733  0.00  0.00    +0.000 A 
ATOM     18  C   UNL     1      11.848  11.905  18.058  0.00  0.00    +0.000 A 
ATOM     19  C   UNL     1      12.108  12.261  19.377  0.00  0.00    +0.000 A 
ATOM     20  C   UNL     1      11.175  11.965  20.370  0.00  0.00    +0.000 A 
ATOM     21  C   UNL     1       9.988  11.298  20.048  0.00  0.00    +0.000 A 
ATOM     22 CL   UNL     1       8.885  10.968  21.337  0.00  0.00    +0.000 Cl
ENDBRANCH  15  16
ENDBRANCH   3  15
TORSDOF 5
ENDMDL
MODEL 3
REMARK VINA RESULT:      -7.2      0.492      1.160
REMARK  Name = 
REMARK  5 active torsions:
REMARK  status: ('A' for Active; 'I' for Inactive)
REMARK    1  A    between atoms: C_2  and  C_3
REMARK    2  A    between atoms: C_3  and  C_4
REMARK    3  A    between atoms: C_7  and  N_8
REMARK    4  A    between atoms: N_13  and  C_14
REMARK    5  A    between atoms: C_14  and  C_15
REMARK                            x       y       z     vdW  Elec       q    Type
REMARK                         _______ _______ _______ _____ _____    ______ ____
ROOT
ATOM      1  O   UNL     1       0.701   4.210  20.160  0.00  0.00    +0.000 OA
ATOM      2  C   UNL     1       1.900   4.449  20.270  0.00  0.00    +0.000 C 
ATOM      3  N   UNL     1       2.393   5.688  20.636  0.00  0.00    +0.000 N 
ATOM      4  H   UNL     1       3.382   5.788  20.812  0.00  0.00    +0.000 HD
ENDROOT
BRANCH   2   5
ATOM      5  C   UNL     1       2.967   3.395  20.028  0.00  0.00    +0.000 C 
BRANCH   5   6
ATOM      6  C   UNL     1       3.916   3.770  18.913  0.00  0.00    +0.000 A 
ATOM      7  C   UNL     1       5.228   4.179  19.202  0.00  0.00    +0.000 A 
ATOM      8  C   UNL     1       6.091   4.575  18.178  0.00  0.00    +0.000 A 
ATOM      9  C   UNL     1       5.648   4.544  16.851  0.00  0.00    +0.000 A 
ATOM     10  C   UNL     1       4.352   4.111  16.544  0.00  0.00    +0.000 A 
ATOM     11  C   UNL     1       3.494   3.721  17.575  0.00  0.00    +0.000 A 
BRANCH   9  12
ATOM     12  N   UNL     1       6.544   4.974  15.771  0.00  0.00    +0.000 N 
ATOM     13  O   UNL     1       7.406   5.825  16.039  0.00  0.00    +0.000 OA
ATOM     14  O   UNL     1       6.387   4.463  14.652  0.00  0.00    +0.000 OA
ENDBRANCH   9  12
ENDBRANCH   5   6
ENDBRANCH   2   5
BRANCH   3  15
ATOM     15  C   UNL     1       1.542   6.811  20.952  0.00  0.00    +0.000 C 
BRANCH  15  16
ATOM     16  C   UNL     1       1.595   7.898  19.906  0.00  0.00    +0.000 A 
ATOM     17  C   UNL     1       2.321   7.665  18.723  0.00  0.00    +0.000 A 
ATOM     18  C   UNL     1       2.449   8.658  17.750  0.00  0.00    +0.000 A 
ATOM     19  C   UNL     1       1.842   9.896  17.934  0.00  0.00    +0.000 A 
ATOM     20  C   UNL     1       1.094  10.135  19.086  0.00  0.00    +0.000 A 
ATOM     21  C   UNL     1       0.966   9.142  20.064  0.00  0.00    +0.000 A 
ATOM     22 CL   UNL     1       0.023   9.519  21.462  0.00  0.00    +0.000 Cl
ENDBRANCH  15  16
ENDBRANCH   3  15
TORSDOF 5
ENDMDL
MODEL 4
REMARK VINA RESULT:      -7.2      3.880      4.866
REMARK  Name = 
REMARK  5 active torsions:
REMARK  status: ('A' for Active; 'I' for Inactive)
REMARK    1  A    between atoms: C_2  and  C_3
REMARK    2  A    between atoms: C_3  and  C_4
REMARK    3  A    between atoms: C_7  and  N_8
REMARK    4  A    between atoms: N_13  and  C_14
REMARK    5  A    between atoms: C_14  and  C_15
REMARK                            x       y       z     vdW  Elec       q    Type
REMARK                         _______ _______ _______ _____ _____    ______ ____
ROOT
ATOM      1  O   UNL     1       4.446   5.533  19.649  0.00  0.00    +0.000 OA
ATOM      2  C   UNL     1       5.349   4.921  19.086  0.00  0.00    +0.000 C 
ATOM      3  N   UNL     1       5.572   3.569  19.267  0.00  0.00    +0.000 N 
ATOM      4  H   UNL     1       6.262   3.107  18.694  0.00  0.00    +0.000 HD
ENDROOT
BRANCH   2   5
ATOM      5  C   UNL     1       6.308   5.592  18.117  0.00  0.00    +0.000 C 
BRANCH   5   6
ATOM      6  C   UNL     1       6.189   5.053  16.710  0.00  0.00    +0.000 A 
ATOM      7  C   UNL     1       7.281   5.115  15.830  0.00  0.00    +0.000 A 
ATOM      8  C   UNL     1       7.160   4.665  14.513  0.00  0.00    +0.000 A 
ATOM      9  C   UNL     1       5.942   4.130  14.077  0.00  0.00    +0.000 A 
ATOM     10  C   UNL     1       4.852   4.035  14.951  0.00  0.00    +0.000 A 
ATOM     11  C   UNL     1       4.982   4.493  16.265  0.00  0.00    +0.000 A 
BRANCH   9  12
ATOM     12  N   UNL     1       5.802   3.669  12.690  0.00  0.00    +0.000 N 
ATOM     13  O   UNL     1       6.838   3.483  12.035  0.00  0.00    +0.000 OA
ATOM     14  O   UNL     1       4.655   3.495  12.252  0.00  0.00    +0.000 OA
ENDBRANCH   9  12
ENDBRANCH   5   6
ENDBRANCH   2   5
BRANCH   3  15
ATOM     15  C   UNL     1       4.744   2.741  20.114  0.00  0.00    +0.000 C 
BRANCH  15  16
ATOM     16  C   UNL     1       3.339   2.583  19.584  0.00  0.00    +0.000 A 
ATOM     17  C   UNL     1       3.159   2.092  18.277  0.00  0.00    +0.000 A 
ATOM     18  C   UNL     1       1.884   1.981  17.721  0.00  0.00    +0.000 A 
ATOM     19  C   UNL     1       0.764   2.343  18.464  0.00  0.00    +0.000 A 
ATOM     20  C   UNL     1       0.922   2.803  19.771  0.00  0.00    +0.000 A 
ATOM     21  C   UNL     1       2.200   2.917  20.331  0.00  0.00    +0.000 A 
ATOM     22 CL   UNL     1       2.307   3.496  21.956  0.00  0.00    +0.000 Cl
ENDBRANCH  15  16
ENDBRANCH   3  15
TORSDOF 5
ENDMDL
MODEL 5
REMARK VINA RESULT:      -7.2      1.170      1.588
REMARK  Name = 
REMARK  5 active torsions:
REMARK  status: ('A' for Active; 'I' for Inactive)
REMARK    1  A    between atoms: C_2  and  C_3
REMARK    2  A    between atoms: C_3  and  C_4
REMARK    3  A    between atoms: C_7  and  N_8
REMARK    4  A    between atoms: N_13  and  C_14
REMARK    5  A    between atoms: C_14  and  C_15
REMARK                            x       y       z     vdW  Elec       q    Type
REMARK                         _______ _______ _______ _____ _____    ______ ____
ROOT
ATOM      1  O   UNL     1       2.478   3.976  18.900  0.00  0.00    +0.000 OA
ATOM      2  C   UNL     1       3.451   4.535  19.397  0.00  0.00    +0.000 C 
ATOM      3  N   UNL     1       3.357   5.687  20.154  0.00  0.00    +0.000 N 
ATOM      4  H   UNL     1       4.181   6.034  20.621  0.00  0.00    +0.000 HD
ENDROOT
BRANCH   2   5
ATOM      5  C   UNL     1       4.866   4.001  19.239  0.00  0.00    +0.000 C 
BRANCH   5   6
ATOM      6  C   UNL     1       5.435   4.255  17.862  0.00  0.00    +0.000 A 
ATOM      7  C   UNL     1       4.710   3.896  16.715  0.00  0.00    +0.000 A 
ATOM      8  C   UNL     1       5.254   4.081  15.442  0.00  0.00    +0.000 A 
ATOM      9  C   UNL     1       6.527   4.649  15.312  0.00  0.00    +0.000 A 
ATOM     10  C   UNL     1       7.251   5.038  16.446  0.00  0.00    +0.000 A 
ATOM     11  C   UNL     1       6.700   4.844  17.715  0.00  0.00    +0.000 A 
BRANCH   9  12
ATOM     12  N   UNL     1       7.113   4.832  13.979  0.00  0.00    +0.000 N 
ATOM     13  O   UNL     1       6.655   4.153  13.048  0.00  0.00    +0.000 OA
ATOM     14  O   UNL     1       8.034   5.654  13.861  0.00  0.00    +0.000 OA
ENDBRANCH   9  12
ENDBRANCH   5   6
ENDBRANCH   2   5
BRANCH   3  15
ATOM     15  C   UNL     1       2.098   6.328  20.457  0.00  0.00    +0.000 C 
BRANCH  15  16
ATOM     16  C   UNL     1       1.886   7.601  19.675  0.00  0.00    +0.000 A 
ATOM     17  C   UNL     1       2.355   7.668  18.349  0.00  0.00    +0.000 A 
ATOM     18  C   UNL     1       2.235   8.841  17.602  0.00  0.00    +0.000 A 
ATOM     19  C   UNL     1       1.632   9.964  18.160  0.00  0.00    +0.000 A 
ATOM     20  C   UNL     1       1.135   9.908  19.461  0.00  0.00    +0.000 A 
ATOM     21  C   UNL     1       1.255   8.733  20.213  0.00  0.00    +0.000 A 
ATOM     22 CL   UNL     1       0.614   8.746  21.818  0.00  0.00    +0.000 Cl
ENDBRANCH  15  16
ENDBRANCH   3  15
TORSDOF 5
ENDMDL
MODEL 6
REMARK VINA RESULT:      -7.1      3.917      4.809
REMARK  Name = 
REMARK  5 active torsions:
REMARK  status: ('A' for Active; 'I' for Inactive)
REMARK    1  A    between atoms: C_2  and  C_3
REMARK    2  A    between atoms: C_3  and  C_4
REMARK    3  A    between atoms: C_7  and  N_8
REMARK    4  A    between atoms: N_13  and  C_14
REMARK    5  A    between atoms: C_14  and  C_15
REMARK                            x       y       z     vdW  Elec       q    Type
REMARK                         _______ _______ _______ _____ _____    ______ ____
ROOT
ATOM      1  O   UNL     1       4.603   5.503  19.854  0.00  0.00    +0.000 OA
ATOM      2  C   UNL     1       5.429   4.910  19.166  0.00  0.00    +0.000 C 
ATOM      3  N   UNL     1       5.588   3.537  19.193  0.00  0.00    +0.000 N 
ATOM      4  H   UNL     1       6.209   3.104  18.525  0.00  0.00    +0.000 HD
ENDROOT
BRANCH   2   5
ATOM      5  C   UNL     1       6.353   5.631  18.199  0.00  0.00    +0.000 C 
BRANCH   5   6
ATOM      6  C   UNL     1       6.190   5.158  16.772  0.00  0.00    +0.000 A 
ATOM      7  C   UNL     1       4.929   4.768  16.292  0.00  0.00    +0.000 A 
ATOM      8  C   UNL     1       4.784   4.283  14.990  0.00  0.00    +0.000 A 
ATOM      9  C   UNL     1       5.903   4.205  14.154  0.00  0.00    +0.000 A 
ATOM     10  C   UNL     1       7.162   4.617  14.609  0.00  0.00    +0.000 A 
ATOM     11  C   UNL     1       7.298   5.097  15.914  0.00  0.00    +0.000 A 
BRANCH   9  12
ATOM     12  N   UNL     1       5.761   3.682  12.790  0.00  0.00    +0.000 N 
ATOM     13  O   UNL     1       4.618   3.420  12.387  0.00  0.00    +0.000 OA
ATOM     14  O   UNL     1       6.793   3.529  12.119  0.00  0.00    +0.000 OA
ENDBRANCH   9  12
ENDBRANCH   5   6
ENDBRANCH   2   5
BRANCH   3  15
ATOM     15  C   UNL     1       4.777   2.667  20.013  0.00  0.00    +0.000 C 
BRANCH  15  16
ATOM     16  C   UNL     1       3.354   2.558  19.521  0.00  0.00    +0.000 A 
ATOM     17  C   UNL     1       3.124   2.149  18.194  0.00  0.00    +0.000 A 
ATOM     18  C   UNL     1       1.830   2.088  17.674  0.00  0.00    +0.000 A 
ATOM     19  C   UNL     1       0.741   2.419  18.474  0.00  0.00    +0.000 A 
ATOM     20  C   UNL     1       0.947   2.798  19.800  0.00  0.00    +0.000 A 
ATOM     21  C   UNL     1       2.243   2.862  20.323  0.00  0.00    +0.000 A 
ATOM     22 CL   UNL     1       2.412   3.341  21.975  0.00  0.00    +0.000 Cl
ENDBRANCH  15  16
ENDBRANCH   3  15
TORSDOF 5
ENDMDL
MODEL 7
REMARK VINA RESULT:      -7.0      3.343      5.010
REMARK  Name = 
REMARK  5 active torsions:
REMARK  status: ('A' for Active; 'I' for Inactive)
REMARK    1  A    between atoms: C_2  and  C_3
REMARK    2  A    between atoms: C_3  and  C_4
REMARK    3  A    between atoms: C_7  and  N_8
REMARK    4  A    between atoms: N_13  and  C_14
REMARK    5  A    between atoms: C_14  and  C_15
REMARK                            x       y       z     vdW  Elec       q    Type
REMARK                         _______ _______ _______ _____ _____    ______ ____
ROOT
ATOM      1  O   UNL     1       4.619   6.973  17.172  0.00  0.00    +0.000 OA
ATOM      2  C   UNL     1       5.522   6.202  17.482  0.00  0.00    +0.000 C 
ATOM      3  N   UNL     1       5.483   5.409  18.613  0.00  0.00    +0.000 N 
ATOM      4  H   UNL     1       6.207   4.720  18.753  0.00  0.00    +0.000 HD
ENDROOT
BRANCH   2   5
ATOM      5  C   UNL     1       6.774   6.031  16.638  0.00  0.00    +0.000 C 
BRANCH   5   6
ATOM      6  C   UNL     1       6.542   5.176  15.414  0.00  0.00    +0.000 A 
ATOM      7  C   UNL     1       7.406   5.263  14.311  0.00  0.00    +0.000 A 
ATOM      8  C   UNL     1       7.166   4.512  13.158  0.00  0.00    +0.000 A 
ATOM      9  C   UNL     1       6.063   3.652  13.113  0.00  0.00    +0.000 A 
ATOM     10  C   UNL     1       5.208   3.533  14.216  0.00  0.00    +0.000 A 
ATOM     11  C   UNL     1       5.454   4.291  15.363  0.00  0.00    +0.000 A 
BRANCH   9  12
ATOM     12  N   UNL     1       5.794   2.872  11.899  0.00  0.00    +0.000 N 
ATOM     13  O   UNL     1       6.729   2.218  11.413  0.00  0.00    +0.000 OA
ATOM     14  O   UNL     1       4.648   2.913  11.427  0.00  0.00    +0.000 OA
ENDBRANCH   9  12
ENDBRANCH   5   6
ENDBRANCH   2   5
BRANCH   3  15
ATOM     15  C   UNL     1       4.361   5.391  19.523  0.00  0.00    +0.000 C 
BRANCH  15  16
ATOM     16  C   UNL     1       3.365   4.302  19.204  0.00  0.00    +0.000 A 
ATOM     17  C   UNL     1       3.774   3.225  18.395  0.00  0.00    +0.000 A 
ATOM     18  C   UNL     1       2.877   2.223  18.024  0.00  0.00    +0.000 A 
ATOM     19  C   UNL     1       1.558   2.269  18.466  0.00  0.00    +0.000 A 
ATOM     20  C   UNL     1       1.142   3.313  19.292  0.00  0.00    +0.000 A 
ATOM     21  C   UNL     1       2.040   4.320  19.664  0.00  0.00    +0.000 A 
ATOM     22 CL   UNL     1       1.444   5.577  20.690  0.00  0.00    +0.000 Cl
ENDBRANCH  15  16
ENDBRANCH   3  15
TORSDOF 5
ENDMDL
MODEL 8
REMARK VINA RESULT:      -7.0      3.396      5.312
REMARK  Name = 
REMARK  5 active torsions:
REMARK  status: ('A' for Active; 'I' for Inactive)
REMARK    1  A    between atoms: C_2  and  C_3
REMARK    2  A    between atoms: C_3  and  C_4
REMARK    3  A    between atoms: C_7  and  N_8
REMARK    4  A    between atoms: N_13  and  C_14
REMARK    5  A    between atoms: C_14  and  C_15
REMARK                            x       y       z     vdW  Elec       q    Type
REMARK                         _______ _______ _______ _____ _____    ______ ____
ROOT
ATOM      1  O   UNL     1       7.515   4.329  18.259  0.00  0.00    +0.000 OA
ATOM      2  C   UNL     1       6.885   5.147  17.595  0.00  0.00    +0.000 C 
ATOM      3  N   UNL     1       5.671   5.670  17.996  0.00  0.00    +0.000 N 
ATOM      4  H   UNL     1       5.258   6.417  17.457  0.00  0.00    +0.000 HD
ENDROOT
BRANCH   2   5
ATOM      5  C   UNL     1       7.390   5.679  16.264  0.00  0.00    +0.000 C 
BRANCH   5   6
ATOM      6  C   UNL     1       6.837   4.916  15.082  0.00  0.00    +0.000 A 
ATOM      7  C   UNL     1       7.486   4.965  13.838  0.00  0.00    +0.000 A 
ATOM      8  C   UNL     1       6.951   4.302  12.731  0.00  0.00    +0.000 A 
ATOM      9  C   UNL     1       5.767   3.569  12.872  0.00  0.00    +0.000 A 
ATOM     10  C   UNL     1       5.124   3.488  14.113  0.00  0.00    +0.000 A 
ATOM     11  C   UNL     1       5.665   4.157  15.213  0.00  0.00    +0.000 A 
BRANCH   9  12
ATOM     12  N   UNL     1       5.190   2.883  11.709  0.00  0.00    +0.000 N 
ATOM     13  O   UNL     1       5.729   1.832  11.331  0.00  0.00    +0.000 OA
ATOM     14  O   UNL     1       4.198   3.397  11.170  0.00  0.00    +0.000 OA
ENDBRANCH   9  12
ENDBRANCH   5   6
ENDBRANCH   2   5
BRANCH   3  15
ATOM     15  C   UNL     1       5.041   5.326  19.250  0.00  0.00    +0.000 C 
BRANCH  15  16
ATOM     16  C   UNL     1       3.876   4.381  19.080  0.00  0.00    +0.000 A 
ATOM     17  C   UNL     1       4.076   3.008  19.319  0.00  0.00    +0.000 A 
ATOM     18  C   UNL     1       3.048   2.086  19.120  0.00  0.00    +0.000 A 
ATOM     19  C   UNL     1       1.796   2.519  18.694  0.00  0.00    +0.000 A 
ATOM     20  C   UNL     1       1.570   3.878  18.481  0.00  0.00    +0.000 A 
ATOM     21  C   UNL     1       2.601   4.805  18.677  0.00  0.00    +0.000 A 
ATOM     22 CL   UNL     1       2.239   6.470  18.390  0.00  0.00    +0.000 Cl
ENDBRANCH  15  16
ENDBRANCH   3  15
TORSDOF 5
ENDMDL
MODEL 9
REMARK VINA RESULT:      -6.9      3.847      5.536
REMARK  Name = 
REMARK  5 active torsions:
REMARK  status: ('A' for Active; 'I' for Inactive)
REMARK    1  A    between atoms: C_2  and  C_3
REMARK    2  A    between atoms: C_3  and  C_4
REMARK    3  A    between atoms: C_7  and  N_8
REMARK    4  A    between atoms: N_13  and  C_14
REMARK    5  A    between atoms: C_14  and  C_15
REMARK                            x       y       z     vdW  Elec       q    Type
REMARK                         _______ _______ _______ _____ _____    ______ ____
ROOT
ATOM      1  O   UNL     1       7.779   4.537  18.200  0.00  0.00    +0.000 OA
ATOM      2  C   UNL     1       6.921   5.085  17.514  0.00  0.00    +0.000 C 
ATOM      3  N   UNL     1       5.589   5.146  17.878  0.00  0.00    +0.000 N 
ATOM      4  H   UNL     1       4.956   5.702  17.322  0.00  0.00    +0.000 HD
ENDROOT
BRANCH   2   5
ATOM      5  C   UNL     1       7.244   5.768  16.196  0.00  0.00    +0.000 C 
BRANCH   5   6
ATOM      6  C   UNL     1       6.727   5.003  14.999  0.00  0.00    +0.000 A 
ATOM      7  C   UNL     1       5.486   4.348  15.056  0.00  0.00    +0.000 A 
ATOM      8  C   UNL     1       5.027   3.598  13.970  0.00  0.00    +0.000 A 
ATOM      9  C   UNL     1       5.806   3.517  12.810  0.00  0.00    +0.000 A 
ATOM     10  C   UNL     1       7.033   4.187  12.728  0.00  0.00    +0.000 A 
ATOM     11  C   UNL     1       7.485   4.931  13.821  0.00  0.00    +0.000 A 
BRANCH   9  12
ATOM     12  N   UNL     1       5.338   2.718  11.672  0.00  0.00    +0.000 N 
ATOM     13  O   UNL     1       4.213   2.966  11.214  0.00  0.00    +0.000 OA
ATOM     14  O   UNL     1       6.094   1.837  11.234  0.00  0.00    +0.000 OA
ENDBRANCH   9  12
ENDBRANCH   5   6
ENDBRANCH   2   5
BRANCH   3  15
ATOM     15  C   UNL     1       5.085   4.595  19.115  0.00  0.00    +0.000 C 
BRANCH  15  16
ATOM     16  C   UNL     1       3.712   3.985  18.967  0.00  0.00    +0.000 A 
ATOM     17  C   UNL     1       2.795   4.586  18.084  0.00  0.00    +0.000 A 
ATOM     18  C   UNL     1       1.495   4.095  17.954  0.00  0.00    +0.000 A 
ATOM     19  C   UNL     1       1.091   2.987  18.692  0.00  0.00    +0.000 A 
ATOM     20  C   UNL     1       1.995   2.361  19.549  0.00  0.00    +0.000 A 
ATOM     21  C   UNL     1       3.298   2.852  19.683  0.00  0.00    +0.000 A 
ATOM     22 CL   UNL     1       4.355   2.019  20.767  0.00  0.00    +0.000 Cl
ENDBRANCH  15  16
ENDBRANCH   3  15
TORSDOF 5
ENDMDL
