MODEL 1
REMARK VINA RESULT:      -4.4      0.000      0.000
REMARK  Name = 
REMARK  1 active torsions:
REMARK  status: ('A' for Active; 'I' for Inactive)
REMARK    1  A    between atoms: C_1  and  C_2
REMARK                            x       y       z     vdW  Elec       q    Type
REMARK                         _______ _______ _______ _____ _____    ______ ____
ROOT
ATOM      1  C   UNL     1       0.816   2.475  18.812  0.00  0.00    +0.000 C 
ATOM      2  C   UNL     1       1.891   3.394  18.312  0.00  0.00    +0.000 A 
ATOM      3  C   UNL     1       1.872   4.760  18.621  0.00  0.00    +0.000 A 
ATOM      4  C   UNL     1       2.864   5.611  18.127  0.00  0.00    +0.000 A 
ATOM      5  C   UNL     1       3.879   5.097  17.323  0.00  0.00    +0.000 A 
ATOM      6 BR   UNL     1       5.208   6.250  16.634  0.00  0.00    +0.000 Br
ATOM      7  C   UNL     1       3.916   3.738  17.016  0.00  0.00    +0.000 A 
ATOM      8  C   UNL     1       2.923   2.889  17.511  0.00  0.00    +0.000 A 
ENDROOT
TORSDOF 0
ENDMDL
MODEL 2
REMARK VINA RESULT:      -4.4      0.079      1.710
REMARK  Name = 
REMARK  1 active torsions:
REMARK  status: ('A' for Active; 'I' for Inactive)
REMARK    1  A    between atoms: C_1  and  C_2
REMARK                            x       y       z     vdW  Elec       q    Type
REMARK                         _______ _______ _______ _____ _____    ______ ____
ROOT
ATOM      1  C   UNL     1       0.827   2.442  18.823  0.00  0.00    +0.000 C 
ATOM      2  C   UNL     1       1.866   3.383  18.289  0.00  0.00    +0.000 A 
ATOM      3  C   UNL     1       2.914   2.917  17.486  0.00  0.00    +0.000 A 
ATOM      4  C   UNL     1       3.891   3.800  17.017  0.00  0.00    +0.000 A 
ATOM      5  C   UNL     1       3.822   5.151  17.350  0.00  0.00    +0.000 A 
ATOM      6 BR   UNL     1       5.155   6.340  16.737  0.00  0.00    +0.000 Br
ATOM      7  C   UNL     1       2.778   5.629  18.140  0.00  0.00    +0.000 A 
ATOM      8  C   UNL     1       1.802   4.746  18.608  0.00  0.00    +0.000 A 
ENDROOT
TORSDOF 0
ENDMDL
MODEL 3
REMARK VINA RESULT:      -4.4      1.876      2.759
REMARK  Name = 
REMARK  1 active torsions:
REMARK  status: ('A' for Active; 'I' for Inactive)
REMARK    1  A    between atoms: C_1  and  C_2
REMARK                            x       y       z     vdW  Elec       q    Type
REMARK                         _______ _______ _______ _____ _____    ______ ____
ROOT
ATOM      1  C   UNL     1       1.190   2.832  20.931  0.00  0.00    +0.000 C 
ATOM      2  C   UNL     1       1.589   4.041  20.137  0.00  0.00    +0.000 A 
ATOM      3  C   UNL     1       1.731   3.973  18.745  0.00  0.00    +0.000 A 
ATOM      4  C   UNL     1       2.129   5.099  18.020  0.00  0.00    +0.000 A 
ATOM      5  C   UNL     1       2.387   6.296  18.685  0.00  0.00    +0.000 A 
ATOM      6 BR   UNL     1       2.949   7.812  17.709  0.00  0.00    +0.000 Br
ATOM      7  C   UNL     1       2.240   6.379  20.069  0.00  0.00    +0.000 A 
ATOM      8  C   UNL     1       1.841   5.253  20.792  0.00  0.00    +0.000 A 
ENDROOT
TORSDOF 0
ENDMDL
MODEL 4
REMARK VINA RESULT:      -4.4      1.926      2.323
REMARK  Name = 
REMARK  1 active torsions:
REMARK  status: ('A' for Active; 'I' for Inactive)
REMARK    1  A    between atoms: C_1  and  C_2
REMARK                            x       y       z     vdW  Elec       q    Type
REMARK                         _______ _______ _______ _____ _____    ______ ____
ROOT
ATOM      1  C   UNL     1       1.243   2.781  20.660  0.00  0.00    +0.000 C 
ATOM      2  C   UNL     1       1.641   4.055  19.976  0.00  0.00    +0.000 A 
ATOM      3  C   UNL     1       1.873   5.225  20.710  0.00  0.00    +0.000 A 
ATOM      4  C   UNL     1       2.218   6.412  20.059  0.00  0.00    +0.000 A 
ATOM      5  C   UNL     1       2.330   6.433  18.670  0.00  0.00    +0.000 A 
ATOM      6 BR   UNL     1       2.772   8.043  17.786  0.00  0.00    +0.000 Br
ATOM      7  C   UNL     1       2.112   5.273  17.928  0.00  0.00    +0.000 A 
ATOM      8  C   UNL     1       1.768   4.088  18.581  0.00  0.00    +0.000 A 
ENDROOT
TORSDOF 0
ENDMDL
MODEL 5
REMARK VINA RESULT:      -4.3      2.859      4.357
REMARK  Name = 
REMARK  1 active torsions:
REMARK  status: ('A' for Active; 'I' for Inactive)
REMARK    1  A    between atoms: C_1  and  C_2
REMARK                            x       y       z     vdW  Elec       q    Type
REMARK                         _______ _______ _______ _____ _____    ______ ____
ROOT
ATOM      1  C   UNL     1       2.800   8.039  17.818  0.00  0.00    +0.000 C 
ATOM      2  C   UNL     1       2.474   6.788  18.578  0.00  0.00    +0.000 A 
ATOM      3  C   UNL     1       2.427   5.545  17.933  0.00  0.00    +0.000 A 
ATOM      4  C   UNL     1       2.096   4.390  18.646  0.00  0.00    +0.000 A 
ATOM      5  C   UNL     1       1.809   4.475  20.007  0.00  0.00    +0.000 A 
ATOM      6 BR   UNL     1       1.337   2.918  20.967  0.00  0.00    +0.000 Br
ATOM      7  C   UNL     1       1.861   5.704  20.663  0.00  0.00    +0.000 A 
ATOM      8  C   UNL     1       2.193   6.857  19.949  0.00  0.00    +0.000 A 
ENDROOT
TORSDOF 0
ENDMDL
MODEL 6
REMARK VINA RESULT:      -4.3      1.750      2.165
REMARK  Name = 
REMARK  1 active torsions:
REMARK  status: ('A' for Active; 'I' for Inactive)
REMARK    1  A    between atoms: C_1  and  C_2
REMARK                            x       y       z     vdW  Elec       q    Type
REMARK                         _______ _______ _______ _____ _____    ______ ____
ROOT
ATOM      1  C   UNL     1       1.217   2.914  21.097  0.00  0.00    +0.000 C 
ATOM      2  C   UNL     1       2.122   3.200  19.935  0.00  0.00    +0.000 A 
ATOM      3  C   UNL     1       3.499   2.962  20.020  0.00  0.00    +0.000 A 
ATOM      4  C   UNL     1       4.336   3.257  18.940  0.00  0.00    +0.000 A 
ATOM      5  C   UNL     1       3.797   3.792  17.773  0.00  0.00    +0.000 A 
ATOM      6 BR   UNL     1       4.930   4.215  16.322  0.00  0.00    +0.000 Br
ATOM      7  C   UNL     1       2.426   4.025  17.672  0.00  0.00    +0.000 A 
ATOM      8  C   UNL     1       1.592   3.729  18.751  0.00  0.00    +0.000 A 
ENDROOT
TORSDOF 0
ENDMDL
MODEL 7
REMARK VINA RESULT:      -4.3      2.299      3.571
REMARK  Name = 
REMARK  1 active torsions:
REMARK  status: ('A' for Active; 'I' for Inactive)
REMARK    1  A    between atoms: C_1  and  C_2
REMARK                            x       y       z     vdW  Elec       q    Type
REMARK                         _______ _______ _______ _____ _____    ______ ____
ROOT
ATOM      1  C   UNL     1       5.279   6.436  16.576  0.00  0.00    +0.000 C 
ATOM      2  C   UNL     1       4.229   5.505  17.107  0.00  0.00    +0.000 A 
ATOM      3  C   UNL     1       3.161   5.987  17.874  0.00  0.00    +0.000 A 
ATOM      4  C   UNL     1       2.204   5.107  18.386  0.00  0.00    +0.000 A 
ATOM      5  C   UNL     1       2.313   3.741  18.133  0.00  0.00    +0.000 A 
ATOM      6 BR   UNL     1       1.034   2.548  18.845  0.00  0.00    +0.000 Br
ATOM      7  C   UNL     1       3.367   3.250  17.364  0.00  0.00    +0.000 A 
ATOM      8  C   UNL     1       4.322   4.131  16.852  0.00  0.00    +0.000 A 
ENDROOT
TORSDOF 0
ENDMDL
MODEL 8
REMARK VINA RESULT:      -4.3      2.302      3.960
REMARK  Name = 
REMARK  1 active torsions:
REMARK  status: ('A' for Active; 'I' for Inactive)
REMARK    1  A    between atoms: C_1  and  C_2
REMARK                            x       y       z     vdW  Elec       q    Type
REMARK                         _______ _______ _______ _____ _____    ______ ____
ROOT
ATOM      1  C   UNL     1       5.161   6.663  16.699  0.00  0.00    +0.000 C 
ATOM      2  C   UNL     1       4.189   5.643  17.215  0.00  0.00    +0.000 A 
ATOM      3  C   UNL     1       4.330   4.288  16.893  0.00  0.00    +0.000 A 
ATOM      4  C   UNL     1       3.404   3.350  17.358  0.00  0.00    +0.000 A 
ATOM      5  C   UNL     1       2.333   3.767  18.146  0.00  0.00    +0.000 A 
ATOM      6 BR   UNL     1       1.066   2.505  18.754  0.00  0.00    +0.000 Br
ATOM      7  C   UNL     1       2.187   5.112  18.482  0.00  0.00    +0.000 A 
ATOM      8  C   UNL     1       3.114   6.047  18.017  0.00  0.00    +0.000 A 
ENDROOT
TORSDOF 0
ENDMDL
MODEL 9
REMARK VINA RESULT:      -4.3      1.764      1.906
REMARK  Name = 
REMARK  1 active torsions:
REMARK  status: ('A' for Active; 'I' for Inactive)
REMARK    1  A    between atoms: C_1  and  C_2
REMARK                            x       y       z     vdW  Elec       q    Type
REMARK                         _______ _______ _______ _____ _____    ______ ____
ROOT
ATOM      1  C   UNL     1       1.257   2.876  21.125  0.00  0.00    +0.000 C 
ATOM      2  C   UNL     1       2.137   3.234  19.964  0.00  0.00    +0.000 A 
ATOM      3  C   UNL     1       1.599   3.800  18.801  0.00  0.00    +0.000 A 
ATOM      4  C   UNL     1       2.424   4.105  17.715  0.00  0.00    +0.000 A 
ATOM      5  C   UNL     1       3.791   3.843  17.789  0.00  0.00    +0.000 A 
ATOM      6 BR   UNL     1       4.903   4.231  16.313  0.00  0.00    +0.000 Br
ATOM      7  C   UNL     1       4.340   3.288  18.944  0.00  0.00    +0.000 A 
ATOM      8  C   UNL     1       3.514   2.986  20.028  0.00  0.00    +0.000 A 
ENDROOT
TORSDOF 0
ENDMDL
