MODEL 1
REMARK VINA RESULT:      -8.6      0.000      0.000
REMARK  Name = 
REMARK  7 active torsions:
REMARK  status: ('A' for Active; 'I' for Inactive)
REMARK    1  A    between atoms: C_1  and  N_2
REMARK    2  A    between atoms: N_2  and  C_29
REMARK    3  A    between atoms: C_3  and  C_5
REMARK    4  A    between atoms: N_8  and  C_9
REMARK    5  A    between atoms: C_10  and  C_11
REMARK    6  A    between atoms: N_13  and  C_14
REMARK    7  A    between atoms: C_19  and  C_20
REMARK                            x       y       z     vdW  Elec       q    Type
REMARK                         _______ _______ _______ _____ _____    ______ ____
ROOT
ATOM      1  C   UNL     1       2.312   5.090  18.486  0.00  0.00    +0.000 C 
ATOM      2  O   UNL     1       1.499   5.175  17.571  0.00  0.00    +0.000 OA
ATOM      3  N   UNL     1       2.625   6.142  19.337  0.00  0.00    +0.000 N 
ATOM      4  H   UNL     1       3.280   5.930  20.077  0.00  0.00    +0.000 HD
ENDROOT
BRANCH   3   5
ATOM      5  C   UNL     1       2.126   7.431  19.352  0.00  0.00    +0.000 A 
ATOM      6  C   UNL     1       2.170   8.301  18.179  0.00  0.00    +0.000 A 
ATOM      7  C   UNL     1       1.728   9.570  18.207  0.00  0.00    +0.000 A 
ATOM      8  C   UNL     1       1.196  10.101  19.407  0.00  0.00    +0.000 A 
ATOM      9  N   UNL     1       0.737  11.289  19.710  0.00  0.00    +0.000 NA
ATOM     10  C   UNL     1       0.378  11.168  21.031  0.00  0.00    +0.000 A 
ATOM     11  N   UNL     1       0.589   9.949  21.554  0.00  0.00    +0.000 NA
ATOM     12  N   UNL     1       1.125   9.259  20.513  0.00  0.00    +0.000 N 
ATOM     13  C   UNL     1       1.581   7.936  20.479  0.00  0.00    +0.000 A 
BRANCH  10  14
ATOM     14  C   UNL     1      -0.171  12.301  21.763  0.00  0.00    +0.000 A 
ATOM     15  C   UNL     1      -1.183  12.125  22.714  0.00  0.00    +0.000 A 
ATOM     16  C   UNL     1      -1.697  13.224  23.401  0.00  0.00    +0.000 A 
ATOM     17  C   UNL     1      -1.181  14.475  23.113  0.00  0.00    +0.000 A 
ATOM     18  N   UNL     1      -0.205  14.694  22.201  0.00  0.00    +0.000 NA
ATOM     19  C   UNL     1       0.274  13.601  21.550  0.00  0.00    +0.000 A 
ENDBRANCH  10  14
ENDBRANCH   3   5
BRANCH   1  25
ATOM     20  C   UNL     1       4.439   3.601  18.789  0.00  0.00    +0.000 A 
ATOM     21  C   UNL     1       4.511   2.207  19.005  0.00  0.00    +0.000 A 
ATOM     22  N   UNL     1       3.326   1.609  18.969  0.00  0.00    +0.000 NA
ATOM     23  N   UNL     1       2.462   2.628  18.825  0.00  0.00    +0.000 N 
ATOM     24  C   UNL     1       1.047   2.323  18.836  0.00  0.00    +0.000 C 
ATOM     25  C   UNL     1       3.069   3.862  18.679  0.00  0.00    +0.000 A 
BRANCH  20  28
ATOM     26  C   UNL     1       7.373   5.660  17.546  0.00  0.00    +0.000 C 
ATOM     27  N   UNL     1       6.262   4.716  17.569  0.00  0.00    +0.000 N 
ATOM     28  C   UNL     1       5.520   4.584  18.751  0.00  0.00    +0.000 C 
ATOM     29  O   UNL     1       5.703   5.327  19.711  0.00  0.00    +0.000 OA
BRANCH  27  30
ATOM     30  C   UNL     1       6.000   4.006  16.342  0.00  0.00    +0.000 C 
ATOM     31  C   UNL     1       5.208   4.643  15.223  0.00  0.00    +0.000 C 
ATOM     32  C   UNL     1       6.660   4.351  15.032  0.00  0.00    +0.000 C 
ENDBRANCH  27  30
ENDBRANCH  20  28
ENDBRANCH   1  25
TORSDOF 5
ENDMDL
MODEL 2
REMARK VINA RESULT:      -8.3      1.104      1.337
REMARK  Name = 
REMARK  7 active torsions:
REMARK  status: ('A' for Active; 'I' for Inactive)
REMARK    1  A    between atoms: C_1  and  N_2
REMARK    2  A    between atoms: N_2  and  C_29
REMARK    3  A    between atoms: C_3  and  C_5
REMARK    4  A    between atoms: N_8  and  C_9
REMARK    5  A    between atoms: C_10  and  C_11
REMARK    6  A    between atoms: N_13  and  C_14
REMARK    7  A    between atoms: C_19  and  C_20
REMARK                            x       y       z     vdW  Elec       q    Type
REMARK                         _______ _______ _______ _____ _____    ______ ____
ROOT
ATOM      1  C   UNL     1       2.692   5.771  18.995  0.00  0.00    +0.000 C 
ATOM      2  O   UNL     1       2.691   6.198  17.846  0.00  0.00    +0.000 OA
ATOM      3  N   UNL     1       2.214   6.490  20.084  0.00  0.00    +0.000 N 
ATOM      4  H   UNL     1       2.233   6.007  20.972  0.00  0.00    +0.000 HD
ENDROOT
BRANCH   3   5
ATOM      5  C   UNL     1       1.664   7.757  20.119  0.00  0.00    +0.000 A 
ATOM      6  C   UNL     1       1.810   8.705  19.018  0.00  0.00    +0.000 A 
ATOM      7  C   UNL     1       1.315   9.954  19.072  0.00  0.00    +0.000 A 
ATOM      8  C   UNL     1       0.625  10.384  20.230  0.00  0.00    +0.000 A 
ATOM      9  N   UNL     1       0.084  11.533  20.551  0.00  0.00    +0.000 NA
ATOM     10  C   UNL     1      -0.422  11.311  21.809  0.00  0.00    +0.000 A 
ATOM     11  N   UNL     1      -0.224  10.067  22.276  0.00  0.00    +0.000 NA
ATOM     12  N   UNL     1       0.458   9.468  21.265  0.00  0.00    +0.000 N 
ATOM     13  C   UNL     1       0.970   8.166  21.203  0.00  0.00    +0.000 A 
BRANCH  10  14
ATOM     14  C   UNL     1      -1.100  12.373  22.539  0.00  0.00    +0.000 A 
ATOM     15  C   UNL     1      -0.534  13.649  22.650  0.00  0.00    +0.000 A 
ATOM     16  C   UNL     1      -1.198  14.651  23.356  0.00  0.00    +0.000 A 
ATOM     17  C   UNL     1      -2.416  14.344  23.937  0.00  0.00    +0.000 A 
ATOM     18  N   UNL     1      -3.001  13.126  23.858  0.00  0.00    +0.000 NA
ATOM     19  C   UNL     1      -2.327  12.173  23.162  0.00  0.00    +0.000 A 
ENDBRANCH  10  14
ENDBRANCH   3   5
BRANCH   1  25
ATOM     20  C   UNL     1       4.605   4.010  19.268  0.00  0.00    +0.000 A 
ATOM     21  C   UNL     1       4.509   2.670  19.704  0.00  0.00    +0.000 A 
ATOM     22  N   UNL     1       3.258   2.278  19.922  0.00  0.00    +0.000 NA
ATOM     23  N   UNL     1       2.538   3.394  19.721  0.00  0.00    +0.000 N 
ATOM     24  C   UNL     1       1.112   3.333  19.964  0.00  0.00    +0.000 C 
ATOM     25  C   UNL     1       3.286   4.476  19.293  0.00  0.00    +0.000 A 
BRANCH  20  28
ATOM     26  C   UNL     1       7.474   5.485  17.272  0.00  0.00    +0.000 C 
ATOM     27  N   UNL     1       6.257   4.754  17.603  0.00  0.00    +0.000 N 
ATOM     28  C   UNL     1       5.796   4.784  18.927  0.00  0.00    +0.000 C 
ATOM     29  O   UNL     1       6.319   5.505  19.773  0.00  0.00    +0.000 OA
BRANCH  27  30
ATOM     30  C   UNL     1       5.603   4.073  16.514  0.00  0.00    +0.000 C 
ATOM     31  C   UNL     1       4.988   4.842  15.366  0.00  0.00    +0.000 C 
ATOM     32  C   UNL     1       6.187   3.985  15.127  0.00  0.00    +0.000 C 
ENDBRANCH  27  30
ENDBRANCH  20  28
ENDBRANCH   1  25
TORSDOF 5
ENDMDL
MODEL 3
REMARK VINA RESULT:      -8.2      1.367      1.788
REMARK  Name = 
REMARK  7 active torsions:
REMARK  status: ('A' for Active; 'I' for Inactive)
REMARK    1  A    between atoms: C_1  and  N_2
REMARK    2  A    between atoms: N_2  and  C_29
REMARK    3  A    between atoms: C_3  and  C_5
REMARK    4  A    between atoms: N_8  and  C_9
REMARK    5  A    between atoms: C_10  and  C_11
REMARK    6  A    between atoms: N_13  and  C_14
REMARK    7  A    between atoms: C_19  and  C_20
REMARK                            x       y       z     vdW  Elec       q    Type
REMARK                         _______ _______ _______ _____ _____    ______ ____
ROOT
ATOM      1  C   UNL     1       2.244   5.070  19.436  0.00  0.00    +0.000 C 
ATOM      2  O   UNL     1       1.105   4.864  19.031  0.00  0.00    +0.000 OA
ATOM      3  N   UNL     1       2.714   6.324  19.807  0.00  0.00    +0.000 N 
ATOM      4  H   UNL     1       3.659   6.352  20.163  0.00  0.00    +0.000 HD
ENDROOT
BRANCH   3   5
ATOM      5  C   UNL     1       2.053   7.538  19.809  0.00  0.00    +0.000 A 
ATOM      6  C   UNL     1       1.976   8.390  18.625  0.00  0.00    +0.000 A 
ATOM      7  C   UNL     1       1.374   9.592  18.640  0.00  0.00    +0.000 A 
ATOM      8  C   UNL     1       0.787  10.066  19.838  0.00  0.00    +0.000 A 
ATOM      9  N   UNL     1       0.180  11.189  20.131  0.00  0.00    +0.000 NA
ATOM     10  C   UNL     1      -0.151  11.041  21.456  0.00  0.00    +0.000 A 
ATOM     11  N   UNL     1       0.219   9.867  21.993  0.00  0.00    +0.000 NA
ATOM     12  N   UNL     1       0.832   9.237  20.956  0.00  0.00    +0.000 N 
ATOM     13  C   UNL     1       1.455   7.984  20.935  0.00  0.00    +0.000 A 
BRANCH  10  14
ATOM     14  C   UNL     1      -0.836  12.104  22.178  0.00  0.00    +0.000 A 
ATOM     15  C   UNL     1      -2.024  11.854  22.875  0.00  0.00    +0.000 A 
ATOM     16  C   UNL     1      -2.666  12.887  23.557  0.00  0.00    +0.000 A 
ATOM     17  C   UNL     1      -2.098  14.148  23.519  0.00  0.00    +0.000 A 
ATOM     18  N   UNL     1      -0.953  14.437  22.857  0.00  0.00    +0.000 NA
ATOM     19  C   UNL     1      -0.353  13.407  22.203  0.00  0.00    +0.000 A 
ENDBRANCH  10  14
ENDBRANCH   3   5
BRANCH   1  25
ATOM     20  C   UNL     1       4.239   3.600  18.604  0.00  0.00    +0.000 A 
ATOM     21  C   UNL     1       4.836   2.489  19.240  0.00  0.00    +0.000 A 
ATOM     22  N   UNL     1       4.226   2.140  20.367  0.00  0.00    +0.000 NA
ATOM     23  N   UNL     1       3.283   3.085  20.521  0.00  0.00    +0.000 N 
ATOM     24  C   UNL     1       2.476   3.047  21.723  0.00  0.00    +0.000 C 
ATOM     25  C   UNL     1       3.214   3.986  19.474  0.00  0.00    +0.000 A 
BRANCH  20  28
ATOM     26  C   UNL     1       5.988   5.922  16.167  0.00  0.00    +0.000 C 
ATOM     27  N   UNL     1       5.640   5.225  17.398  0.00  0.00    +0.000 N 
ATOM     28  C   UNL     1       4.621   4.262  17.358  0.00  0.00    +0.000 C 
ATOM     29  O   UNL     1       4.111   3.910  16.299  0.00  0.00    +0.000 OA
BRANCH  27  30
ATOM     30  C   UNL     1       6.407   5.570  18.569  0.00  0.00    +0.000 C 
ATOM     31  C   UNL     1       7.793   5.007  18.791  0.00  0.00    +0.000 C 
ATOM     32  C   UNL     1       7.619   6.466  18.526  0.00  0.00    +0.000 C 
ENDBRANCH  27  30
ENDBRANCH  20  28
ENDBRANCH   1  25
TORSDOF 5
ENDMDL
MODEL 4
REMARK VINA RESULT:      -8.2      1.528      3.498
REMARK  Name = 
REMARK  7 active torsions:
REMARK  status: ('A' for Active; 'I' for Inactive)
REMARK    1  A    between atoms: C_1  and  N_2
REMARK    2  A    between atoms: N_2  and  C_29
REMARK    3  A    between atoms: C_3  and  C_5
REMARK    4  A    between atoms: N_8  and  C_9
REMARK    5  A    between atoms: C_10  and  C_11
REMARK    6  A    between atoms: N_13  and  C_14
REMARK    7  A    between atoms: C_19  and  C_20
REMARK                            x       y       z     vdW  Elec       q    Type
REMARK                         _______ _______ _______ _____ _____    ______ ____
ROOT
ATOM      1  C   UNL     1       3.703   6.591  17.981  0.00  0.00    +0.000 C 
ATOM      2  O   UNL     1       3.946   7.343  17.043  0.00  0.00    +0.000 OA
ATOM      3  N   UNL     1       2.787   6.884  18.984  0.00  0.00    +0.000 N 
ATOM      4  H   UNL     1       2.648   6.162  19.677  0.00  0.00    +0.000 HD
ENDROOT
BRANCH   3   5
ATOM      5  C   UNL     1       1.994   8.005  19.141  0.00  0.00    +0.000 A 
ATOM      6  C   UNL     1       1.574   8.832  18.013  0.00  0.00    +0.000 A 
ATOM      7  C   UNL     1       0.842   9.949  18.172  0.00  0.00    +0.000 A 
ATOM      8  C   UNL     1       0.455  10.354  19.472  0.00  0.00    +0.000 A 
ATOM      9  N   UNL     1      -0.215  11.393  19.902  0.00  0.00    +0.000 NA
ATOM     10  C   UNL     1      -0.250  11.215  21.264  0.00  0.00    +0.000 A 
ATOM     11  N   UNL     1       0.365  10.100  21.693  0.00  0.00    +0.000 NA
ATOM     12  N   UNL     1       0.829   9.545  20.543  0.00  0.00    +0.000 N 
ATOM     13  C   UNL     1       1.586   8.380  20.373  0.00  0.00    +0.000 A 
BRANCH  10  14
ATOM     14  C   UNL     1      -0.902  12.188  22.129  0.00  0.00    +0.000 A 
ATOM     15  C   UNL     1      -2.088  11.875  22.802  0.00  0.00    +0.000 A 
ATOM     16  C   UNL     1      -2.698  12.823  23.623  0.00  0.00    +0.000 A 
ATOM     17  C   UNL     1      -2.100  14.064  23.745  0.00  0.00    +0.000 A 
ATOM     18  N   UNL     1      -0.954  14.413  23.112  0.00  0.00    +0.000 NA
ATOM     19  C   UNL     1      -0.387  13.465  22.321  0.00  0.00    +0.000 A 
ENDBRANCH  10  14
ENDBRANCH   3   5
BRANCH   1  25
ATOM     20  C   UNL     1       4.055   4.005  18.128  0.00  0.00    +0.000 A 
ATOM     21  C   UNL     1       5.265   3.292  18.286  0.00  0.00    +0.000 A 
ATOM     22  N   UNL     1       6.321   4.080  18.447  0.00  0.00    +0.000 NA
ATOM     23  N   UNL     1       5.817   5.317  18.299  0.00  0.00    +0.000 N 
ATOM     24  C   UNL     1       6.740   6.433  18.334  0.00  0.00    +0.000 C 
ATOM     25  C   UNL     1       4.445   5.349  18.133  0.00  0.00    +0.000 A 
BRANCH  20  28
ATOM     26  C   UNL     1       0.682   2.425  18.847  0.00  0.00    +0.000 C 
ATOM     27  N   UNL     1       2.013   2.985  19.047  0.00  0.00    +0.000 N 
ATOM     28  C   UNL     1       2.702   3.490  17.934  0.00  0.00    +0.000 C 
ATOM     29  O   UNL     1       2.164   3.585  16.835  0.00  0.00    +0.000 OA
BRANCH  27  30
ATOM     30  C   UNL     1       2.505   2.997  20.401  0.00  0.00    +0.000 C 
ATOM     31  C   UNL     1       2.219   4.157  21.328  0.00  0.00    +0.000 C 
ATOM     32  C   UNL     1       1.615   2.820  21.604  0.00  0.00    +0.000 C 
ENDBRANCH  27  30
ENDBRANCH  20  28
ENDBRANCH   1  25
TORSDOF 5
ENDMDL
MODEL 5
REMARK VINA RESULT:      -7.9      2.691      4.522
REMARK  Name = 
REMARK  7 active torsions:
REMARK  status: ('A' for Active; 'I' for Inactive)
REMARK    1  A    between atoms: C_1  and  N_2
REMARK    2  A    between atoms: N_2  and  C_29
REMARK    3  A    between atoms: C_3  and  C_5
REMARK    4  A    between atoms: N_8  and  C_9
REMARK    5  A    between atoms: C_10  and  C_11
REMARK    6  A    between atoms: N_13  and  C_14
REMARK    7  A    between atoms: C_19  and  C_20
REMARK                            x       y       z     vdW  Elec       q    Type
REMARK                         _______ _______ _______ _____ _____    ______ ____
ROOT
ATOM      1  C   UNL     1       2.911   7.082  18.500  0.00  0.00    +0.000 C 
ATOM      2  O   UNL     1       2.614   7.025  19.688  0.00  0.00    +0.000 OA
ATOM      3  N   UNL     1       2.579   8.150  17.674  0.00  0.00    +0.000 N 
ATOM      4  H   UNL     1       2.919   8.093  16.724  0.00  0.00    +0.000 HD
ENDROOT
BRANCH   3   5
ATOM      5  C   UNL     1       1.893   9.309  17.980  0.00  0.00    +0.000 A 
ATOM      6  C   UNL     1       0.454   9.324  18.233  0.00  0.00    +0.000 A 
ATOM      7  C   UNL     1      -0.221  10.459  18.485  0.00  0.00    +0.000 A 
ATOM      8  C   UNL     1       0.470  11.695  18.510  0.00  0.00    +0.000 A 
ATOM      9  N   UNL     1       0.059  12.924  18.693  0.00  0.00    +0.000 NA
ATOM     10  C   UNL     1       1.210  13.668  18.594  0.00  0.00    +0.000 A 
ATOM     11  N   UNL     1       2.319  12.945  18.366  0.00  0.00    +0.000 NA
ATOM     12  N   UNL     1       1.847  11.673  18.301  0.00  0.00    +0.000 N 
ATOM     13  C   UNL     1       2.547  10.489  18.046  0.00  0.00    +0.000 A 
BRANCH  10  14
ATOM     14  C   UNL     1       1.175  15.118  18.722  0.00  0.00    +0.000 A 
ATOM     15  C   UNL     1      -0.020  15.790  19.004  0.00  0.00    +0.000 A 
ATOM     16  C   UNL     1      -0.031  17.179  19.119  0.00  0.00    +0.000 A 
ATOM     17  C   UNL     1       1.161  17.860  18.947  0.00  0.00    +0.000 A 
ATOM     18  N   UNL     1       2.340  17.254  18.672  0.00  0.00    +0.000 NA
ATOM     19  C   UNL     1       2.315  15.899  18.566  0.00  0.00    +0.000 A 
ENDBRANCH  10  14
ENDBRANCH   3   5
BRANCH   1  25
ATOM     20  C   UNL     1       3.173   4.652  17.573  0.00  0.00    +0.000 A 
ATOM     21  C   UNL     1       4.279   4.082  16.904  0.00  0.00    +0.000 A 
ATOM     22  N   UNL     1       5.321   4.902  16.823  0.00  0.00    +0.000 NA
ATOM     23  N   UNL     1       4.865   6.047  17.355  0.00  0.00    +0.000 N 
ATOM     24  C   UNL     1       5.744   7.198  17.344  0.00  0.00    +0.000 C 
ATOM     25  C   UNL     1       3.580   5.960  17.859  0.00  0.00    +0.000 A 
BRANCH  20  28
ATOM     26  C   UNL     1       0.391   2.790  19.357  0.00  0.00    +0.000 C 
ATOM     27  N   UNL     1       1.677   3.421  19.091  0.00  0.00    +0.000 N 
ATOM     28  C   UNL     1       1.867   4.063  17.858  0.00  0.00    +0.000 C 
ATOM     29  O   UNL     1       0.944   4.210  17.062  0.00  0.00    +0.000 OA
BRANCH  27  30
ATOM     30  C   UNL     1       2.653   3.356  20.149  0.00  0.00    +0.000 C 
ATOM     31  C   UNL     1       2.531   4.223  21.383  0.00  0.00    +0.000 C 
ATOM     32  C   UNL     1       2.369   2.743  21.496  0.00  0.00    +0.000 C 
ENDBRANCH  27  30
ENDBRANCH  20  28
ENDBRANCH   1  25
TORSDOF 5
ENDMDL
MODEL 6
REMARK VINA RESULT:      -7.9      2.908      4.501
REMARK  Name = 
REMARK  7 active torsions:
REMARK  status: ('A' for Active; 'I' for Inactive)
REMARK    1  A    between atoms: C_1  and  N_2
REMARK    2  A    between atoms: N_2  and  C_29
REMARK    3  A    between atoms: C_3  and  C_5
REMARK    4  A    between atoms: N_8  and  C_9
REMARK    5  A    between atoms: C_10  and  C_11
REMARK    6  A    between atoms: N_13  and  C_14
REMARK    7  A    between atoms: C_19  and  C_20
REMARK                            x       y       z     vdW  Elec       q    Type
REMARK                         _______ _______ _______ _____ _____    ______ ____
ROOT
ATOM      1  C   UNL     1       2.861   7.080  18.524  0.00  0.00    +0.000 C 
ATOM      2  O   UNL     1       2.669   7.088  19.736  0.00  0.00    +0.000 OA
ATOM      3  N   UNL     1       2.347   8.038  17.658  0.00  0.00    +0.000 N 
ATOM      4  H   UNL     1       2.613   7.940  16.688  0.00  0.00    +0.000 HD
ENDROOT
BRANCH   3   5
ATOM      5  C   UNL     1       1.564   9.140  17.941  0.00  0.00    +0.000 A 
ATOM      6  C   UNL     1       2.136  10.447  18.255  0.00  0.00    +0.000 A 
ATOM      7  C   UNL     1       1.375  11.508  18.577  0.00  0.00    +0.000 A 
ATOM      8  C   UNL     1      -0.034  11.373  18.617  0.00  0.00    +0.000 A 
ATOM      9  N   UNL     1      -0.986  12.217  18.926  0.00  0.00    +0.000 NA
ATOM     10  C   UNL     1      -2.134  11.478  18.778  0.00  0.00    +0.000 A 
ATOM     11  N   UNL     1      -1.931  10.210  18.381  0.00  0.00    +0.000 NA
ATOM     12  N   UNL     1      -0.578  10.135  18.285  0.00  0.00    +0.000 N 
ATOM     13  C   UNL     1       0.218   9.034  17.945  0.00  0.00    +0.000 A 
BRANCH  10  14
ATOM     14  C   UNL     1      -3.440  12.062  19.052  0.00  0.00    +0.000 A 
ATOM     15  C   UNL     1      -4.515  11.872  18.176  0.00  0.00    +0.000 A 
ATOM     16  C   UNL     1      -5.755  12.443  18.456  0.00  0.00    +0.000 A 
ATOM     17  C   UNL     1      -5.884  13.194  19.611  0.00  0.00    +0.000 A 
ATOM     18  N   UNL     1      -4.873  13.406  20.486  0.00  0.00    +0.000 NA
ATOM     19  C   UNL     1      -3.678  12.835  20.183  0.00  0.00    +0.000 A 
ENDBRANCH  10  14
ENDBRANCH   3   5
BRANCH   1  25
ATOM     20  C   UNL     1       3.253   4.662  17.612  0.00  0.00    +0.000 A 
ATOM     21  C   UNL     1       4.402   4.138  16.980  0.00  0.00    +0.000 A 
ATOM     22  N   UNL     1       5.412   4.999  16.930  0.00  0.00    +0.000 NA
ATOM     23  N   UNL     1       4.891   6.125  17.446  0.00  0.00    +0.000 N 
ATOM     24  C   UNL     1       5.723   7.311  17.460  0.00  0.00    +0.000 C 
ATOM     25  C   UNL     1       3.596   5.986  17.908  0.00  0.00    +0.000 A 
BRANCH  20  28
ATOM     26  C   UNL     1       0.493   2.687  19.308  0.00  0.00    +0.000 C 
ATOM     27  N   UNL     1       1.760   3.371  19.083  0.00  0.00    +0.000 N 
ATOM     28  C   UNL     1       1.963   4.020  17.856  0.00  0.00    +0.000 C 
ATOM     29  O   UNL     1       1.061   4.130  17.031  0.00  0.00    +0.000 OA
BRANCH  27  30
ATOM     30  C   UNL     1       2.704   3.345  20.172  0.00  0.00    +0.000 C 
ATOM     31  C   UNL     1       2.513   4.214  21.395  0.00  0.00    +0.000 C 
ATOM     32  C   UNL     1       2.399   2.731  21.513  0.00  0.00    +0.000 C 
ENDBRANCH  27  30
ENDBRANCH  20  28
ENDBRANCH   1  25
TORSDOF 5
ENDMDL
MODEL 7
REMARK VINA RESULT:      -7.8      1.579      2.206
REMARK  Name = 
REMARK  7 active torsions:
REMARK  status: ('A' for Active; 'I' for Inactive)
REMARK    1  A    between atoms: C_1  and  N_2
REMARK    2  A    between atoms: N_2  and  C_29
REMARK    3  A    between atoms: C_3  and  C_5
REMARK    4  A    between atoms: N_8  and  C_9
REMARK    5  A    between atoms: C_10  and  C_11
REMARK    6  A    between atoms: N_13  and  C_14
REMARK    7  A    between atoms: C_19  and  C_20
REMARK                            x       y       z     vdW  Elec       q    Type
REMARK                         _______ _______ _______ _____ _____    ______ ____
ROOT
ATOM      1  C   UNL     1       2.547   5.050  19.872  0.00  0.00    +0.000 C 
ATOM      2  O   UNL     1       2.352   4.875  21.070  0.00  0.00    +0.000 OA
ATOM      3  N   UNL     1       2.329   6.259  19.224  0.00  0.00    +0.000 N 
ATOM      4  H   UNL     1       2.569   6.282  18.243  0.00  0.00    +0.000 HD
ENDROOT
BRANCH   3   5
ATOM      5  C   UNL     1       1.880   7.458  19.743  0.00  0.00    +0.000 A 
ATOM      6  C   UNL     1       1.374   7.580  21.108  0.00  0.00    +0.000 A 
ATOM      7  C   UNL     1       0.893   8.737  21.598  0.00  0.00    +0.000 A 
ATOM      8  C   UNL     1       0.868   9.889  20.776  0.00  0.00    +0.000 A 
ATOM      9  N   UNL     1       0.432  11.105  20.987  0.00  0.00    +0.000 NA
ATOM     10  C   UNL     1       0.686  11.750  19.800  0.00  0.00    +0.000 A 
ATOM     11  N   UNL     1       1.270  10.981  18.865  0.00  0.00    +0.000 NA
ATOM     12  N   UNL     1       1.382   9.778  19.486  0.00  0.00    +0.000 N 
ATOM     13  C   UNL     1       1.887   8.574  18.982  0.00  0.00    +0.000 A 
BRANCH  10  14
ATOM     14  C   UNL     1       0.322  13.147  19.616  0.00  0.00    +0.000 A 
ATOM     15  C   UNL     1       1.144  14.019  18.892  0.00  0.00    +0.000 A 
ATOM     16  C   UNL     1       0.778  15.354  18.731  0.00  0.00    +0.000 A 
ATOM     17  C   UNL     1      -0.407  15.782  19.303  0.00  0.00    +0.000 A 
ATOM     18  N   UNL     1      -1.232  14.977  20.013  0.00  0.00    +0.000 NA
ATOM     19  C   UNL     1      -0.845  13.681  20.151  0.00  0.00    +0.000 A 
ENDBRANCH  10  14
ENDBRANCH   3   5
BRANCH   1  25
ATOM     20  C   UNL     1       4.191   3.560  18.488  0.00  0.00    +0.000 A 
ATOM     21  C   UNL     1       3.916   2.359  17.797  0.00  0.00    +0.000 A 
ATOM     22  N   UNL     1       2.632   2.022  17.822  0.00  0.00    +0.000 NA
ATOM     23  N   UNL     1       2.076   2.954  18.613  0.00  0.00    +0.000 N 
ATOM     24  C   UNL     1       0.667   2.827  18.923  0.00  0.00    +0.000 C 
ATOM     25  C   UNL     1       2.956   3.936  19.029  0.00  0.00    +0.000 A 
BRANCH  20  28
ATOM     26  C   UNL     1       7.539   5.171  17.726  0.00  0.00    +0.000 C 
ATOM     27  N   UNL     1       6.242   4.534  17.540  0.00  0.00    +0.000 N 
ATOM     28  C   UNL     1       5.469   4.244  18.673  0.00  0.00    +0.000 C 
ATOM     29  O   UNL     1       5.801   4.625  19.792  0.00  0.00    +0.000 OA
BRANCH  27  30
ATOM     30  C   UNL     1       5.845   4.277  16.178  0.00  0.00    +0.000 C 
ATOM     31  C   UNL     1       5.451   5.405  15.251  0.00  0.00    +0.000 C 
ATOM     32  C   UNL     1       6.700   4.631  14.989  0.00  0.00    +0.000 C 
ENDBRANCH  27  30
ENDBRANCH  20  28
ENDBRANCH   1  25
TORSDOF 5
ENDMDL
MODEL 8
REMARK VINA RESULT:      -7.8      1.310      1.796
REMARK  Name = 
REMARK  7 active torsions:
REMARK  status: ('A' for Active; 'I' for Inactive)
REMARK    1  A    between atoms: C_1  and  N_2
REMARK    2  A    between atoms: N_2  and  C_29
REMARK    3  A    between atoms: C_3  and  C_5
REMARK    4  A    between atoms: N_8  and  C_9
REMARK    5  A    between atoms: C_10  and  C_11
REMARK    6  A    between atoms: N_13  and  C_14
REMARK    7  A    between atoms: C_19  and  C_20
REMARK                            x       y       z     vdW  Elec       q    Type
REMARK                         _______ _______ _______ _____ _____    ______ ____
ROOT
ATOM      1  C   UNL     1       2.392   5.234  18.794  0.00  0.00    +0.000 C 
ATOM      2  O   UNL     1       1.471   5.126  17.992  0.00  0.00    +0.000 OA
ATOM      3  N   UNL     1       2.734   6.427  19.417  0.00  0.00    +0.000 N 
ATOM      4  H   UNL     1       3.488   6.372  20.088  0.00  0.00    +0.000 HD
ENDROOT
BRANCH   3   5
ATOM      5  C   UNL     1       2.155   7.675  19.291  0.00  0.00    +0.000 A 
ATOM      6  C   UNL     1       2.256   8.466  18.066  0.00  0.00    +0.000 A 
ATOM      7  C   UNL     1       1.732   9.700  17.960  0.00  0.00    +0.000 A 
ATOM      8  C   UNL     1       1.054  10.270  19.064  0.00  0.00    +0.000 A 
ATOM      9  N   UNL     1       0.492  11.440  19.236  0.00  0.00    +0.000 NA
ATOM     10  C   UNL     1       0.015  11.383  20.523  0.00  0.00    +0.000 A 
ATOM     11  N   UNL     1       0.253  10.219  21.152  0.00  0.00    +0.000 NA
ATOM     12  N   UNL     1       0.930   9.501  20.218  0.00  0.00    +0.000 N 
ATOM     13  C   UNL     1       1.471   8.215  20.323  0.00  0.00    +0.000 A 
BRANCH  10  14
ATOM     14  C   UNL     1      -0.674  12.521  21.116  0.00  0.00    +0.000 A 
ATOM     15  C   UNL     1      -0.785  12.654  22.505  0.00  0.00    +0.000 A 
ATOM     16  C   UNL     1      -1.452  13.750  23.052  0.00  0.00    +0.000 A 
ATOM     17  C   UNL     1      -1.992  14.685  22.187  0.00  0.00    +0.000 A 
ATOM     18  N   UNL     1      -1.911  14.597  20.839  0.00  0.00    +0.000 NA
ATOM     19  C   UNL     1      -1.254  13.517  20.339  0.00  0.00    +0.000 A 
ENDBRANCH  10  14
ENDBRANCH   3   5
BRANCH   1  25
ATOM     20  C   UNL     1       4.307   3.503  18.378  0.00  0.00    +0.000 A 
ATOM     21  C   UNL     1       4.739   2.453  19.219  0.00  0.00    +0.000 A 
ATOM     22  N   UNL     1       4.001   2.323  20.316  0.00  0.00    +0.000 NA
ATOM     23  N   UNL     1       3.141   3.352  20.242  0.00  0.00    +0.000 N 
ATOM     24  C   UNL     1       2.230   3.555  21.349  0.00  0.00    +0.000 C 
ATOM     25  C   UNL     1       3.249   4.093  19.079  0.00  0.00    +0.000 A 
BRANCH  20  28
ATOM     26  C   UNL     1       6.652   5.035  15.820  0.00  0.00    +0.000 C 
ATOM     27  N   UNL     1       6.123   4.550  17.088  0.00  0.00    +0.000 N 
ATOM     28  C   UNL     1       4.858   3.944  17.098  0.00  0.00    +0.000 C 
ATOM     29  O   UNL     1       4.253   3.703  16.058  0.00  0.00    +0.000 OA
BRANCH  27  30
ATOM     30  C   UNL     1       6.972   4.713  18.241  0.00  0.00    +0.000 C 
ATOM     31  C   UNL     1       7.702   6.013  18.498  0.00  0.00    +0.000 C 
ATOM     32  C   UNL     1       6.608   5.581  19.418  0.00  0.00    +0.000 C 
ENDBRANCH  27  30
ENDBRANCH  20  28
ENDBRANCH   1  25
TORSDOF 5
ENDMDL
MODEL 9
REMARK VINA RESULT:      -7.8      2.713      3.540
REMARK  Name = 
REMARK  7 active torsions:
REMARK  status: ('A' for Active; 'I' for Inactive)
REMARK    1  A    between atoms: C_1  and  N_2
REMARK    2  A    between atoms: N_2  and  C_29
REMARK    3  A    between atoms: C_3  and  C_5
REMARK    4  A    between atoms: N_8  and  C_9
REMARK    5  A    between atoms: C_10  and  C_11
REMARK    6  A    between atoms: N_13  and  C_14
REMARK    7  A    between atoms: C_19  and  C_20
REMARK                            x       y       z     vdW  Elec       q    Type
REMARK                         _______ _______ _______ _____ _____    ______ ____
ROOT
ATOM      1  C   UNL     1       2.671   6.954  18.536  0.00  0.00    +0.000 C 
ATOM      2  O   UNL     1       2.558   6.951  19.757  0.00  0.00    +0.000 OA
ATOM      3  N   UNL     1       2.265   8.009  17.728  0.00  0.00    +0.000 N 
ATOM      4  H   UNL     1       2.452   7.903  16.740  0.00  0.00    +0.000 HD
ENDROOT
BRANCH   3   5
ATOM      5  C   UNL     1       1.687   9.211  18.088  0.00  0.00    +0.000 A 
ATOM      6  C   UNL     1       0.298   9.311  18.530  0.00  0.00    +0.000 A 
ATOM      7  C   UNL     1      -0.278  10.487  18.835  0.00  0.00    +0.000 A 
ATOM      8  C   UNL     1       0.473  11.683  18.730  0.00  0.00    +0.000 A 
ATOM      9  N   UNL     1       0.154  12.937  18.930  0.00  0.00    +0.000 NA
ATOM     10  C   UNL     1       1.318  13.614  18.656  0.00  0.00    +0.000 A 
ATOM     11  N   UNL     1       2.347  12.826  18.304  0.00  0.00    +0.000 NA
ATOM     12  N   UNL     1       1.806  11.581  18.341  0.00  0.00    +0.000 N 
ATOM     13  C   UNL     1       2.404  10.354  18.030  0.00  0.00    +0.000 A 
BRANCH  10  14
ATOM     14  C   UNL     1       1.376  15.066  18.744  0.00  0.00    +0.000 A 
ATOM     15  C   UNL     1       0.246  15.814  19.096  0.00  0.00    +0.000 A 
ATOM     16  C   UNL     1       0.322  17.204  19.171  0.00  0.00    +0.000 A 
ATOM     17  C   UNL     1       1.534  17.809  18.889  0.00  0.00    +0.000 A 
ATOM     18  N   UNL     1       2.652  17.128  18.543  0.00  0.00    +0.000 NA
ATOM     19  C   UNL     1       2.542  15.774  18.479  0.00  0.00    +0.000 A 
ENDBRANCH  10  14
ENDBRANCH   3   5
BRANCH   1  25
ATOM     20  C   UNL     1       4.301   5.569  17.033  0.00  0.00    +0.000 A 
ATOM     21  C   UNL     1       4.248   4.193  16.716  0.00  0.00    +0.000 A 
ATOM     22  N   UNL     1       3.175   3.584  17.208  0.00  0.00    +0.000 NA
ATOM     23  N   UNL     1       2.572   4.541  17.931  0.00  0.00    +0.000 N 
ATOM     24  C   UNL     1       1.390   4.177  18.685  0.00  0.00    +0.000 C 
ATOM     25  C   UNL     1       3.183   5.779  17.847  0.00  0.00    +0.000 A 
BRANCH  20  28
ATOM     26  C   UNL     1       7.441   7.696  17.144  0.00  0.00    +0.000 C 
ATOM     27  N   UNL     1       6.454   6.676  17.477  0.00  0.00    +0.000 N 
ATOM     28  C   UNL     1       5.313   6.559  16.669  0.00  0.00    +0.000 C 
ATOM     29  O   UNL     1       5.191   7.203  15.632  0.00  0.00    +0.000 OA
BRANCH  27  30
ATOM     30  C   UNL     1       6.756   5.839  18.611  0.00  0.00    +0.000 C 
ATOM     31  C   UNL     1       7.715   4.676  18.493  0.00  0.00    +0.000 C 
ATOM     32  C   UNL     1       8.084   5.862  19.322  0.00  0.00    +0.000 C 
ENDBRANCH  27  30
ENDBRANCH  20  28
ENDBRANCH   1  25
TORSDOF 5
ENDMDL
