MODEL 1
REMARK VINA RESULT:      -7.2      0.000      0.000
REMARK  Name = 
REMARK  5 active torsions:
REMARK  status: ('A' for Active; 'I' for Inactive)
REMARK    1  A    between atoms: C_3  and  C_4
REMARK    2  A    between atoms: N_9  and  C_10
REMARK    3  A    between atoms: C_10  and  C_11
REMARK    4  A    between atoms: C_11  and  C_12
REMARK    5  A    between atoms: C_12  and  N_13
REMARK                            x       y       z     vdW  Elec       q    Type
REMARK                         _______ _______ _______ _____ _____    ______ ____
ROOT
ATOM      1  C   UNL     1       5.057   4.637  16.843  0.00  0.00    +0.000 A 
ATOM      2  C   UNL     1       5.678   4.275  15.663  0.00  0.00    +0.000 A 
ATOM      3  C   UNL     1       6.820   4.964  15.342  0.00  0.00    +0.000 A 
ATOM      4  N   UNL     1       7.332   5.939  16.108  0.00  0.00    +0.000 NA
ATOM      5  C   UNL     1       6.693   6.216  17.250  0.00  0.00    +0.000 A 
ATOM      6  N   UNL     1       7.227   7.151  18.114  0.00  0.00    +0.000 N 
ATOM      7  N   UNL     1       5.562   5.610  17.641  0.00  0.00    +0.000 NA
ATOM      8  H   UNL     1       6.612   7.282  18.904  0.00  0.00    +0.000 HD
ENDROOT
BRANCH   1  11
ATOM      9  C   UNL     1       1.520   4.139  18.086  0.00  0.00    +0.000 A 
ATOM     10  C   UNL     1       2.662   4.774  17.620  0.00  0.00    +0.000 A 
ATOM     11  C   UNL     1       3.788   4.010  17.272  0.00  0.00    +0.000 A 
ATOM     12  C   UNL     1       3.668   2.617  17.388  0.00  0.00    +0.000 A 
ATOM     13  C   UNL     1       2.484   2.071  17.864  0.00  0.00    +0.000 A 
ATOM     14  N   UNL     1       1.410   2.804  18.224  0.00  0.00    +0.000 NA
ENDBRANCH   1  11
BRANCH   6  15
ATOM     15  C   UNL     1       7.910   8.302  17.549  0.00  0.00    +0.000 C 
BRANCH  15  16
ATOM     16  C   UNL     1       8.729   9.077  18.584  0.00  0.00    +0.000 C 
BRANCH  16  17
ATOM     17  C   UNL     1       8.943  10.535  18.186  0.00  0.00    +0.000 C 
BRANCH  17  18
ATOM     18  N   UNL     1       9.590  11.308  19.228  0.00  0.00    +0.000 N 
ATOM     19  C   UNL     1       9.407  11.166  20.575  0.00  0.00    +0.000 A 
ATOM     20  C   UNL     1      10.179  12.154  21.141  0.00  0.00    +0.000 A 
ATOM     21  N   UNL     1      10.822  12.884  20.174  0.00  0.00    +0.000 NA
ATOM     22  C   UNL     1      10.445  12.352  19.033  0.00  0.00    +0.000 A 
ENDBRANCH  17  18
ENDBRANCH  16  17
ENDBRANCH  15  16
ENDBRANCH   6  15
TORSDOF 5
ENDMDL
MODEL 2
REMARK VINA RESULT:      -7.2      1.100      1.597
REMARK  Name = 
REMARK  5 active torsions:
REMARK  status: ('A' for Active; 'I' for Inactive)
REMARK    1  A    between atoms: C_3  and  C_4
REMARK    2  A    between atoms: N_9  and  C_10
REMARK    3  A    between atoms: C_10  and  C_11
REMARK    4  A    between atoms: C_11  and  C_12
REMARK    5  A    between atoms: C_12  and  N_13
REMARK                            x       y       z     vdW  Elec       q    Type
REMARK                         _______ _______ _______ _____ _____    ______ ____
ROOT
ATOM      1  C   UNL     1       5.432   4.487  17.400  0.00  0.00    +0.000 A 
ATOM      2  C   UNL     1       5.765   4.259  16.079  0.00  0.00    +0.000 A 
ATOM      3  C   UNL     1       6.731   5.075  15.547  0.00  0.00    +0.000 A 
ATOM      4  N   UNL     1       7.339   6.047  16.243  0.00  0.00    +0.000 NA
ATOM      5  C   UNL     1       6.986   6.191  17.525  0.00  0.00    +0.000 A 
ATOM      6  N   UNL     1       7.643   7.120  18.307  0.00  0.00    +0.000 N 
ATOM      7  N   UNL     1       6.041   5.454  18.129  0.00  0.00    +0.000 NA
ATOM      8  H   UNL     1       7.236   7.142  19.231  0.00  0.00    +0.000 HD
ENDROOT
BRANCH   1  11
ATOM      9  C   UNL     1       2.628   2.038  18.067  0.00  0.00    +0.000 A 
ATOM     10  C   UNL     1       3.668   2.684  17.417  0.00  0.00    +0.000 A 
ATOM     11  C   UNL     1       4.365   3.713  18.072  0.00  0.00    +0.000 A 
ATOM     12  C   UNL     1       3.975   4.003  19.388  0.00  0.00    +0.000 A 
ATOM     13  C   UNL     1       2.920   3.303  19.957  0.00  0.00    +0.000 A 
ATOM     14  N   UNL     1       2.233   2.332  19.321  0.00  0.00    +0.000 NA
ENDBRANCH   1  11
BRANCH   6  15
ATOM     15  C   UNL     1       8.068   8.365  17.690  0.00  0.00    +0.000 C 
BRANCH  15  16
ATOM     16  C   UNL     1       8.693   9.342  18.688  0.00  0.00    +0.000 C 
BRANCH  16  17
ATOM     17  C   UNL     1       8.979  10.707  18.067  0.00  0.00    +0.000 C 
BRANCH  17  18
ATOM     18  N   UNL     1      10.206  11.299  18.564  0.00  0.00    +0.000 N 
ATOM     19  C   UNL     1      11.249  11.759  17.809  0.00  0.00    +0.000 A 
ATOM     20  C   UNL     1      12.194  12.163  18.724  0.00  0.00    +0.000 A 
ATOM     21  N   UNL     1      11.748  11.961  20.005  0.00  0.00    +0.000 NA
ATOM     22  C   UNL     1      10.550  11.438  19.876  0.00  0.00    +0.000 A 
ENDBRANCH  17  18
ENDBRANCH  16  17
ENDBRANCH  15  16
ENDBRANCH   6  15
TORSDOF 5
ENDMDL
MODEL 3
REMARK VINA RESULT:      -7.1      0.823      1.397
REMARK  Name = 
REMARK  5 active torsions:
REMARK  status: ('A' for Active; 'I' for Inactive)
REMARK    1  A    between atoms: C_3  and  C_4
REMARK    2  A    between atoms: N_9  and  C_10
REMARK    3  A    between atoms: C_10  and  C_11
REMARK    4  A    between atoms: C_11  and  C_12
REMARK    5  A    between atoms: C_12  and  N_13
REMARK                            x       y       z     vdW  Elec       q    Type
REMARK                         _______ _______ _______ _____ _____    ______ ____
ROOT
ATOM      1  C   UNL     1       5.130   4.504  16.944  0.00  0.00    +0.000 A 
ATOM      2  C   UNL     1       5.723   4.019  15.794  0.00  0.00    +0.000 A 
ATOM      3  C   UNL     1       6.875   4.648  15.394  0.00  0.00    +0.000 A 
ATOM      4  N   UNL     1       7.421   5.678  16.058  0.00  0.00    +0.000 NA
ATOM      5  C   UNL     1       6.807   6.074  17.179  0.00  0.00    +0.000 A 
ATOM      6  N   UNL     1       7.377   7.072  17.945  0.00  0.00    +0.000 N 
ATOM      7  N   UNL     1       5.669   5.534  17.641  0.00  0.00    +0.000 NA
ATOM      8  H   UNL     1       6.777   7.290  18.728  0.00  0.00    +0.000 HD
ENDROOT
BRANCH   1  11
ATOM      9  C   UNL     1       2.482   2.108  18.189  0.00  0.00    +0.000 A 
ATOM     10  C   UNL     1       3.718   2.594  17.792  0.00  0.00    +0.000 A 
ATOM     11  C   UNL     1       3.854   3.949  17.447  0.00  0.00    +0.000 A 
ATOM     12  C   UNL     1       2.709   4.749  17.566  0.00  0.00    +0.000 A 
ATOM     13  C   UNL     1       1.513   4.174  17.972  0.00  0.00    +0.000 A 
ATOM     14  N   UNL     1       1.374   2.868  18.278  0.00  0.00    +0.000 NA
ENDBRANCH   1  11
BRANCH   6  15
ATOM     15  C   UNL     1       8.076   8.150  17.265  0.00  0.00    +0.000 C 
BRANCH  15  16
ATOM     16  C   UNL     1       7.940   9.494  17.984  0.00  0.00    +0.000 C 
BRANCH  16  17
ATOM     17  C   UNL     1       9.096   9.761  18.945  0.00  0.00    +0.000 C 
BRANCH  17  18
ATOM     18  N   UNL     1       9.646  11.094  18.798  0.00  0.00    +0.000 N 
ATOM     19  C   UNL     1      10.558  11.690  19.624  0.00  0.00    +0.000 A 
ATOM     20  C   UNL     1      10.718  12.958  19.113  0.00  0.00    +0.000 A 
ATOM     21  N   UNL     1       9.930  13.140  18.006  0.00  0.00    +0.000 NA
ATOM     22  C   UNL     1       9.295  12.001  17.842  0.00  0.00    +0.000 A 
ENDBRANCH  17  18
ENDBRANCH  16  17
ENDBRANCH  15  16
ENDBRANCH   6  15
TORSDOF 5
ENDMDL
MODEL 4
REMARK VINA RESULT:      -7.1      1.029      1.056
REMARK  Name = 
REMARK  5 active torsions:
REMARK  status: ('A' for Active; 'I' for Inactive)
REMARK    1  A    between atoms: C_3  and  C_4
REMARK    2  A    between atoms: N_9  and  C_10
REMARK    3  A    between atoms: C_10  and  C_11
REMARK    4  A    between atoms: C_11  and  C_12
REMARK    5  A    between atoms: C_12  and  N_13
REMARK                            x       y       z     vdW  Elec       q    Type
REMARK                         _______ _______ _______ _____ _____    ______ ____
ROOT
ATOM      1  C   UNL     1       4.924   4.631  17.194  0.00  0.00    +0.000 A 
ATOM      2  C   UNL     1       5.115   4.531  15.829  0.00  0.00    +0.000 A 
ATOM      3  C   UNL     1       6.092   5.329  15.292  0.00  0.00    +0.000 A 
ATOM      4  N   UNL     1       6.839   6.171  16.023  0.00  0.00    +0.000 NA
ATOM      5  C   UNL     1       6.619   6.193  17.342  0.00  0.00    +0.000 A 
ATOM      6  N   UNL     1       7.419   6.977  18.149  0.00  0.00    +0.000 N 
ATOM      7  N   UNL     1       5.674   5.463  17.956  0.00  0.00    +0.000 NA
ATOM      8  H   UNL     1       7.102   6.924  19.106  0.00  0.00    +0.000 HD
ENDROOT
BRANCH   1  11
ATOM      9  C   UNL     1       1.549   3.262  18.216  0.00  0.00    +0.000 A 
ATOM     10  C   UNL     1       2.515   3.943  17.490  0.00  0.00    +0.000 A 
ATOM     11  C   UNL     1       3.862   3.865  17.883  0.00  0.00    +0.000 A 
ATOM     12  C   UNL     1       4.152   3.055  18.990  0.00  0.00    +0.000 A 
ATOM     13  C   UNL     1       3.118   2.411  19.655  0.00  0.00    +0.000 A 
ATOM     14  N   UNL     1       1.821   2.505  19.296  0.00  0.00    +0.000 NA
ENDBRANCH   1  11
BRANCH   6  15
ATOM     15  C   UNL     1       7.888   8.250  17.627  0.00  0.00    +0.000 C 
BRANCH  15  16
ATOM     16  C   UNL     1       8.781   9.006  18.613  0.00  0.00    +0.000 C 
BRANCH  16  17
ATOM     17  C   UNL     1       8.795  10.510  18.354  0.00  0.00    +0.000 C 
BRANCH  17  18
ATOM     18  N   UNL     1      10.031  11.137  18.780  0.00  0.00    +0.000 N 
ATOM     19  C   UNL     1      10.373  11.468  20.061  0.00  0.00    +0.000 A 
ATOM     20  C   UNL     1      11.596  12.089  19.949  0.00  0.00    +0.000 A 
ATOM     21  N   UNL     1      11.999  12.138  18.639  0.00  0.00    +0.000 NA
ATOM     22  C   UNL     1      11.035  11.560  17.959  0.00  0.00    +0.000 A 
ENDBRANCH  17  18
ENDBRANCH  16  17
ENDBRANCH  15  16
ENDBRANCH   6  15
TORSDOF 5
ENDMDL
MODEL 5
REMARK VINA RESULT:      -7.0      0.640      1.142
REMARK  Name = 
REMARK  5 active torsions:
REMARK  status: ('A' for Active; 'I' for Inactive)
REMARK    1  A    between atoms: C_3  and  C_4
REMARK    2  A    between atoms: N_9  and  C_10
REMARK    3  A    between atoms: C_10  and  C_11
REMARK    4  A    between atoms: C_11  and  C_12
REMARK    5  A    between atoms: C_12  and  N_13
REMARK                            x       y       z     vdW  Elec       q    Type
REMARK                         _______ _______ _______ _____ _____    ______ ____
ROOT
ATOM      1  C   UNL     1       4.791   4.686  17.130  0.00  0.00    +0.000 A 
ATOM      2  C   UNL     1       5.018   4.569  15.772  0.00  0.00    +0.000 A 
ATOM      3  C   UNL     1       6.051   5.314  15.263  0.00  0.00    +0.000 A 
ATOM      4  N   UNL     1       6.817   6.120  16.013  0.00  0.00    +0.000 NA
ATOM      5  C   UNL     1       6.558   6.161  17.324  0.00  0.00    +0.000 A 
ATOM      6  N   UNL     1       7.373   6.908  18.152  0.00  0.00    +0.000 N 
ATOM      7  N   UNL     1       5.560   5.482  17.912  0.00  0.00    +0.000 NA
ATOM      8  H   UNL     1       7.024   6.875  19.099  0.00  0.00    +0.000 HD
ENDROOT
BRANCH   1  11
ATOM      9  C   UNL     1       2.776   2.128  19.054  0.00  0.00    +0.000 A 
ATOM     10  C   UNL     1       3.868   2.791  18.516  0.00  0.00    +0.000 A 
ATOM     11  C   UNL     1       3.672   3.978  17.790  0.00  0.00    +0.000 A 
ATOM     12  C   UNL     1       2.354   4.445  17.686  0.00  0.00    +0.000 A 
ATOM     13  C   UNL     1       1.323   3.712  18.257  0.00  0.00    +0.000 A 
ATOM     14  N   UNL     1       1.506   2.559  18.932  0.00  0.00    +0.000 NA
ENDBRANCH   1  11
BRANCH   6  15
ATOM     15  C   UNL     1       7.921   8.152  17.640  0.00  0.00    +0.000 C 
BRANCH  15  16
ATOM     16  C   UNL     1       8.703   8.938  18.695  0.00  0.00    +0.000 C 
BRANCH  16  17
ATOM     17  C   UNL     1       8.906  10.399  18.303  0.00  0.00    +0.000 C 
BRANCH  17  18
ATOM     18  N   UNL     1       9.737  11.119  19.249  0.00  0.00    +0.000 N 
ATOM     19  C   UNL     1       9.347  11.601  20.467  0.00  0.00    +0.000 A 
ATOM     20  C   UNL     1      10.455  12.255  20.957  0.00  0.00    +0.000 A 
ATOM     21  N   UNL     1      11.497  12.179  20.069  0.00  0.00    +0.000 NA
ATOM     22  C   UNL     1      11.034  11.491  19.050  0.00  0.00    +0.000 A 
ENDBRANCH  17  18
ENDBRANCH  16  17
ENDBRANCH  15  16
ENDBRANCH   6  15
TORSDOF 5
ENDMDL
MODEL 6
REMARK VINA RESULT:      -7.0      5.349      8.783
REMARK  Name = 
REMARK  5 active torsions:
REMARK  status: ('A' for Active; 'I' for Inactive)
REMARK    1  A    between atoms: C_3  and  C_4
REMARK    2  A    between atoms: N_9  and  C_10
REMARK    3  A    between atoms: C_10  and  C_11
REMARK    4  A    between atoms: C_11  and  C_12
REMARK    5  A    between atoms: C_12  and  N_13
REMARK                            x       y       z     vdW  Elec       q    Type
REMARK                         _______ _______ _______ _____ _____    ______ ____
ROOT
ATOM      1  C   UNL     1       1.265   8.952  19.964  0.00  0.00    +0.000 A 
ATOM      2  C   UNL     1       1.308   9.390  18.655  0.00  0.00    +0.000 A 
ATOM      3  C   UNL     1       2.049   8.631  17.785  0.00  0.00    +0.000 A 
ATOM      4  N   UNL     1       2.705   7.520  18.152  0.00  0.00    +0.000 NA
ATOM      5  C   UNL     1       2.594   7.140  19.430  0.00  0.00    +0.000 A 
ATOM      6  N   UNL     1       3.179   5.958  19.837  0.00  0.00    +0.000 N 
ATOM      7  N   UNL     1       1.907   7.825  20.358  0.00  0.00    +0.000 NA
ATOM      8  H   UNL     1       3.047   5.833  20.830  0.00  0.00    +0.000 HD
ENDROOT
BRANCH   1  11
ATOM      9  C   UNL     1      -0.368  11.762  21.899  0.00  0.00    +0.000 A 
ATOM     10  C   UNL     1       0.240  11.076  20.859  0.00  0.00    +0.000 A 
ATOM     11  C   UNL     1       0.547   9.714  21.011  0.00  0.00    +0.000 A 
ATOM     12  C   UNL     1       0.177   9.113  22.222  0.00  0.00    +0.000 A 
ATOM     13  C   UNL     1      -0.429   9.881  23.208  0.00  0.00    +0.000 A 
ATOM     14  N   UNL     1      -0.701  11.195  23.074  0.00  0.00    +0.000 NA
ENDBRANCH   1  11
BRANCH   6  15
ATOM     15  C   UNL     1       4.444   5.571  19.235  0.00  0.00    +0.000 C 
BRANCH  15  16
ATOM     16  C   UNL     1       4.360   4.246  18.474  0.00  0.00    +0.000 C 
BRANCH  16  17
ATOM     17  C   UNL     1       4.303   3.039  19.407  0.00  0.00    +0.000 C 
BRANCH  17  18
ATOM     18  N   UNL     1       2.988   2.843  19.984  0.00  0.00    +0.000 N 
ATOM     19  C   UNL     1       1.805   2.774  19.302  0.00  0.00    +0.000 A 
ATOM     20  C   UNL     1       0.844   2.646  20.279  0.00  0.00    +0.000 A 
ATOM     21  N   UNL     1       1.415   2.635  21.526  0.00  0.00    +0.000 NA
ATOM     22  C   UNL     1       2.706   2.757  21.316  0.00  0.00    +0.000 A 
ENDBRANCH  17  18
ENDBRANCH  16  17
ENDBRANCH  15  16
ENDBRANCH   6  15
TORSDOF 5
ENDMDL
MODEL 7
REMARK VINA RESULT:      -7.0      5.083      7.863
REMARK  Name = 
REMARK  5 active torsions:
REMARK  status: ('A' for Active; 'I' for Inactive)
REMARK    1  A    between atoms: C_3  and  C_4
REMARK    2  A    between atoms: N_9  and  C_10
REMARK    3  A    between atoms: C_10  and  C_11
REMARK    4  A    between atoms: C_11  and  C_12
REMARK    5  A    between atoms: C_12  and  N_13
REMARK                            x       y       z     vdW  Elec       q    Type
REMARK                         _______ _______ _______ _____ _____    ______ ____
ROOT
ATOM      1  C   UNL     1       1.110   9.100  20.039  0.00  0.00    +0.000 A 
ATOM      2  C   UNL     1       1.200   9.606  18.757  0.00  0.00    +0.000 A 
ATOM      3  C   UNL     1       1.930   8.865  17.862  0.00  0.00    +0.000 A 
ATOM      4  N   UNL     1       2.533   7.710  18.181  0.00  0.00    +0.000 NA
ATOM      5  C   UNL     1       2.378   7.267  19.434  0.00  0.00    +0.000 A 
ATOM      6  N   UNL     1       2.906   6.041  19.788  0.00  0.00    +0.000 N 
ATOM      7  N   UNL     1       1.698   7.929  20.383  0.00  0.00    +0.000 NA
ATOM      8  H   UNL     1       2.747   5.868  20.770  0.00  0.00    +0.000 HD
ENDROOT
BRANCH   1  11
ATOM      9  C   UNL     1      -0.472  11.864  22.080  0.00  0.00    +0.000 A 
ATOM     10  C   UNL     1       0.131  11.209  21.017  0.00  0.00    +0.000 A 
ATOM     11  C   UNL     1       0.400   9.833  21.110  0.00  0.00    +0.000 A 
ATOM     12  C   UNL     1      -0.002   9.189  22.289  0.00  0.00    +0.000 A 
ATOM     13  C   UNL     1      -0.599   9.928  23.301  0.00  0.00    +0.000 A 
ATOM     14  N   UNL     1      -0.835  11.254  23.225  0.00  0.00    +0.000 NA
ENDBRANCH   1  11
BRANCH   6  15
ATOM     15  C   UNL     1       4.167   5.636  19.191  0.00  0.00    +0.000 C 
BRANCH  15  16
ATOM     16  C   UNL     1       3.985   4.811  17.915  0.00  0.00    +0.000 C 
BRANCH  16  17
ATOM     17  C   UNL     1       5.194   3.929  17.612  0.00  0.00    +0.000 C 
BRANCH  17  18
ATOM     18  N   UNL     1       5.934   4.378  16.450  0.00  0.00    +0.000 N 
ATOM     19  C   UNL     1       5.651   4.084  15.145  0.00  0.00    +0.000 A 
ATOM     20  C   UNL     1       6.662   4.679  14.424  0.00  0.00    +0.000 A 
ATOM     21  N   UNL     1       7.541   5.321  15.257  0.00  0.00    +0.000 NA
ATOM     22  C   UNL     1       7.078   5.121  16.470  0.00  0.00    +0.000 A 
ENDBRANCH  17  18
ENDBRANCH  16  17
ENDBRANCH  15  16
ENDBRANCH   6  15
TORSDOF 5
ENDMDL
MODEL 8
REMARK VINA RESULT:      -6.9      1.479      1.813
REMARK  Name = 
REMARK  5 active torsions:
REMARK  status: ('A' for Active; 'I' for Inactive)
REMARK    1  A    between atoms: C_3  and  C_4
REMARK    2  A    between atoms: N_9  and  C_10
REMARK    3  A    between atoms: C_10  and  C_11
REMARK    4  A    between atoms: C_11  and  C_12
REMARK    5  A    between atoms: C_12  and  N_13
REMARK                            x       y       z     vdW  Elec       q    Type
REMARK                         _______ _______ _______ _____ _____    ______ ____
ROOT
ATOM      1  C   UNL     1       5.584   4.533  17.291  0.00  0.00    +0.000 A 
ATOM      2  C   UNL     1       5.917   4.304  15.970  0.00  0.00    +0.000 A 
ATOM      3  C   UNL     1       6.858   5.143  15.427  0.00  0.00    +0.000 A 
ATOM      4  N   UNL     1       7.441   6.138  16.113  0.00  0.00    +0.000 NA
ATOM      5  C   UNL     1       7.090   6.281  17.396  0.00  0.00    +0.000 A 
ATOM      6  N   UNL     1       7.724   7.234  18.168  0.00  0.00    +0.000 N 
ATOM      7  N   UNL     1       6.169   5.522  18.010  0.00  0.00    +0.000 NA
ATOM      8  H   UNL     1       7.322   7.251  19.094  0.00  0.00    +0.000 HD
ENDROOT
BRANCH   1  11
ATOM      9  C   UNL     1       2.384   2.657  18.029  0.00  0.00    +0.000 A 
ATOM     10  C   UNL     1       3.361   3.342  17.323  0.00  0.00    +0.000 A 
ATOM     11  C   UNL     1       4.543   3.735  17.974  0.00  0.00    +0.000 A 
ATOM     12  C   UNL     1       4.674   3.367  19.321  0.00  0.00    +0.000 A 
ATOM     13  C   UNL     1       3.642   2.682  19.946  0.00  0.00    +0.000 A 
ATOM     14  N   UNL     1       2.496   2.326  19.330  0.00  0.00    +0.000 NA
ENDBRANCH   1  11
BRANCH   6  15
ATOM     15  C   UNL     1       8.112   8.486  17.539  0.00  0.00    +0.000 C 
BRANCH  15  16
ATOM     16  C   UNL     1       8.521   9.559  18.550  0.00  0.00    +0.000 C 
BRANCH  16  17
ATOM     17  C   UNL     1       9.463  10.599  17.948  0.00  0.00    +0.000 C 
BRANCH  17  18
ATOM     18  N   UNL     1       8.946  11.949  18.062  0.00  0.00    +0.000 N 
ATOM     19  C   UNL     1       9.359  12.904  18.949  0.00  0.00    +0.000 A 
ATOM     20  C   UNL     1       8.537  13.982  18.713  0.00  0.00    +0.000 A 
ATOM     21  N   UNL     1       7.644  13.703  17.710  0.00  0.00    +0.000 NA
ATOM     22  C   UNL     1       7.914  12.472  17.339  0.00  0.00    +0.000 A 
ENDBRANCH  17  18
ENDBRANCH  16  17
ENDBRANCH  15  16
ENDBRANCH   6  15
TORSDOF 5
ENDMDL
MODEL 9
REMARK VINA RESULT:      -6.9      4.936      7.766
REMARK  Name = 
REMARK  5 active torsions:
REMARK  status: ('A' for Active; 'I' for Inactive)
REMARK    1  A    between atoms: C_3  and  C_4
REMARK    2  A    between atoms: N_9  and  C_10
REMARK    3  A    between atoms: C_10  and  C_11
REMARK    4  A    between atoms: C_11  and  C_12
REMARK    5  A    between atoms: C_12  and  N_13
REMARK                            x       y       z     vdW  Elec       q    Type
REMARK                         _______ _______ _______ _____ _____    ______ ____
ROOT
ATOM      1  C   UNL     1       1.313   8.903  20.048  0.00  0.00    +0.000 A 
ATOM      2  C   UNL     1       1.359   9.335  18.736  0.00  0.00    +0.000 A 
ATOM      3  C   UNL     1       2.055   8.542  17.860  0.00  0.00    +0.000 A 
ATOM      4  N   UNL     1       2.667   7.405  18.223  0.00  0.00    +0.000 NA
ATOM      5  C   UNL     1       2.556   7.034  19.503  0.00  0.00    +0.000 A 
ATOM      6  N   UNL     1       3.094   5.829  19.908  0.00  0.00    +0.000 N 
ATOM      7  N   UNL     1       1.911   7.751  20.437  0.00  0.00    +0.000 NA
ATOM      8  H   UNL     1       2.969   5.713  20.903  0.00  0.00    +0.000 HD
ENDROOT
BRANCH   1  11
ATOM      9  C   UNL     1      -0.480   9.895  23.227  0.00  0.00    +0.000 A 
ATOM     10  C   UNL     1       0.208   9.121  22.305  0.00  0.00    +0.000 A 
ATOM     11  C   UNL     1       0.642   9.699  21.100  0.00  0.00    +0.000 A 
ATOM     12  C   UNL     1       0.375  11.064  20.920  0.00  0.00    +0.000 A 
ATOM     13  C   UNL     1      -0.322  11.758  21.900  0.00  0.00    +0.000 A 
ATOM     14  N   UNL     1      -0.762  11.199  23.046  0.00  0.00    +0.000 NA
ENDBRANCH   1  11
BRANCH   6  15
ATOM     15  C   UNL     1       4.333   5.385  19.291  0.00  0.00    +0.000 C 
BRANCH  15  16
ATOM     16  C   UNL     1       4.164   4.109  18.464  0.00  0.00    +0.000 C 
BRANCH  16  17
ATOM     17  C   UNL     1       3.995   4.397  16.975  0.00  0.00    +0.000 C 
BRANCH  17  18
ATOM     18  N   UNL     1       5.253   4.696  16.319  0.00  0.00    +0.000 N 
ATOM     19  C   UNL     1       5.931   3.881  15.455  0.00  0.00    +0.000 A 
ATOM     20  C   UNL     1       7.084   4.570  15.155  0.00  0.00    +0.000 A 
ATOM     21  N   UNL     1       7.117   5.773  15.812  0.00  0.00    +0.000 NA
ATOM     22  C   UNL     1       6.003   5.819  16.506  0.00  0.00    +0.000 A 
ENDBRANCH  17  18
ENDBRANCH  16  17
ENDBRANCH  15  16
ENDBRANCH   6  15
TORSDOF 5
ENDMDL
