MODEL 1
REMARK VINA RESULT:      -9.4      0.000      0.000
REMARK  Name = 
REMARK  5 active torsions:
REMARK  status: ('A' for Active; 'I' for Inactive)
REMARK    1  A    between atoms: C_2  and  C_3
REMARK    2  A    between atoms: N_11  and  C_12
REMARK    3  A    between atoms: C_12  and  C_13
REMARK    4  A    between atoms: C_15  and  C_16
REMARK    5  A    between atoms: C_16  and  O_18
REMARK                            x       y       z     vdW  Elec       q    Type
REMARK                         _______ _______ _______ _____ _____    ______ ____
ROOT
ATOM      1  C   UNL     1       3.397   6.409  18.278  0.00  0.00    +0.000 A 
ATOM      2  C   UNL     1       2.642   5.171  18.671  0.00  0.00    +0.000 A 
ATOM      3  C   UNL     1       3.320   4.021  18.866  0.00  0.00    +0.000 A 
ATOM      4  C   UNL     1       3.120   3.622  17.456  0.00  0.00    +0.000 A 
ATOM      5  O   UNL     1       2.220   2.926  17.017  0.00  0.00    +0.000 OA
ATOM      6  N   UNL     1       3.978   4.417  16.717  0.00  0.00    +0.000 N 
ATOM      7  C   UNL     1       5.099   3.724  16.237  0.00  0.00    +0.000 A 
ATOM      8  C   UNL     1       6.185   4.313  15.743  0.00  0.00    +0.000 A 
ATOM      9  C   UNL     1       6.036   5.710  15.455  0.00  0.00    +0.000 A 
ATOM     10  C   UNL     1       5.101   6.461  16.114  0.00  0.00    +0.000 A 
ATOM     11  C   UNL     1       4.116   5.848  17.117  0.00  0.00    +0.000 A 
ENDROOT
BRANCH   3  12
ATOM     12  C   UNL     1       4.731   4.099  19.424  0.00  0.00    +0.000 C 
ATOM     13  O   UNL     1       5.294   5.124  19.792  0.00  0.00    +0.000 OA
BRANCH  12  14
ATOM     14  O   UNL     1       5.383   2.916  19.450  0.00  0.00    +0.000 OA
ATOM     15  H   UNL     1       6.099   2.811  18.800  0.00  0.00    +0.000 HD
ENDBRANCH  12  14
ENDBRANCH   3  12
BRANCH   1  16
ATOM     16  C   UNL     1       2.459   7.012  19.719  0.00  0.00    +0.000 C 
BRANCH  16  25
ATOM     17  C   UNL     1      -1.917  12.100  21.862  0.00  0.00    +0.000 A 
ATOM     18  C   UNL     1      -1.428  11.434  22.985  0.00  0.00    +0.000 A 
ATOM     19  C   UNL     1      -0.492  10.357  22.846  0.00  0.00    +0.000 A 
ATOM     20  C   UNL     1      -0.014   9.903  21.579  0.00  0.00    +0.000 A 
ATOM     21  C   UNL     1      -0.433  10.666  20.481  0.00  0.00    +0.000 A 
ATOM     22  C   UNL     1      -1.402  11.719  20.616  0.00  0.00    +0.000 A 
ATOM     23  C   UNL     1       0.170  10.354  19.134  0.00  0.00    +0.000 C 
ATOM     24  C   UNL     1       1.487   9.489  19.181  0.00  0.00    +0.000 C 
ATOM     25  N   UNL     1       1.272   8.197  19.882  0.00  0.00    +0.000 NA
ATOM     26  C   UNL     1       1.020   8.693  21.361  0.00  0.00    +0.000 C 
BRANCH  17  28
ATOM     27  N   UNL     1      -3.690  14.002  22.078  0.00  0.00    +0.000 NA
ATOM     28  C   UNL     1      -2.902  13.151  21.987  0.00  0.00    +0.000 C 
ENDBRANCH  17  28
ENDBRANCH  16  25
ENDBRANCH   1  16
TORSDOF 5
ENDMDL
MODEL 2
REMARK VINA RESULT:      -9.0      2.183      3.605
REMARK  Name = 
REMARK  5 active torsions:
REMARK  status: ('A' for Active; 'I' for Inactive)
REMARK    1  A    between atoms: C_2  and  C_3
REMARK    2  A    between atoms: N_11  and  C_12
REMARK    3  A    between atoms: C_12  and  C_13
REMARK    4  A    between atoms: C_15  and  C_16
REMARK    5  A    between atoms: C_16  and  O_18
REMARK                            x       y       z     vdW  Elec       q    Type
REMARK                         _______ _______ _______ _____ _____    ______ ____
ROOT
ATOM      1  C   UNL     1       4.660   4.560  17.500  0.00  0.00    +0.000 A 
ATOM      2  C   UNL     1       5.819   4.827  18.418  0.00  0.00    +0.000 A 
ATOM      3  C   UNL     1       6.754   5.727  18.050  0.00  0.00    +0.000 A 
ATOM      4  C   UNL     1       7.576   4.671  17.422  0.00  0.00    +0.000 A 
ATOM      5  O   UNL     1       8.488   4.051  17.942  0.00  0.00    +0.000 OA
ATOM      6  N   UNL     1       6.923   4.339  16.247  0.00  0.00    +0.000 N 
ATOM      7  C   UNL     1       7.565   4.830  15.100  0.00  0.00    +0.000 A 
ATOM      8  C   UNL     1       7.003   4.879  13.895  0.00  0.00    +0.000 A 
ATOM      9  C   UNL     1       5.788   4.129  13.764  0.00  0.00    +0.000 A 
ATOM     10  C   UNL     1       5.013   3.860  14.860  0.00  0.00    +0.000 A 
ATOM     11  C   UNL     1       5.434   4.262  16.279  0.00  0.00    +0.000 A 
ENDROOT
BRANCH   3  12
ATOM     12  C   UNL     1       6.320   6.924  17.221  0.00  0.00    +0.000 C 
ATOM     13  O   UNL     1       5.185   7.126  16.804  0.00  0.00    +0.000 OA
BRANCH  12  14
ATOM     14  O   UNL     1       7.322   7.777  16.911  0.00  0.00    +0.000 OA
ATOM     15  H   UNL     1       8.215   7.495  17.171  0.00  0.00    +0.000 HD
ENDBRANCH  12  14
ENDBRANCH   3  12
BRANCH   1  16
ATOM     16  C   UNL     1       3.795   4.932  19.060  0.00  0.00    +0.000 C 
BRANCH  16  25
ATOM     17  C   UNL     1       0.093  10.865  19.904  0.00  0.00    +0.000 A 
ATOM     18  C   UNL     1       0.453  10.756  18.562  0.00  0.00    +0.000 A 
ATOM     19  C   UNL     1       1.201   9.624  18.097  0.00  0.00    +0.000 A 
ATOM     20  C   UNL     1       1.619   8.563  18.957  0.00  0.00    +0.000 A 
ATOM     21  C   UNL     1       1.141   8.646  20.271  0.00  0.00    +0.000 A 
ATOM     22  C   UNL     1       0.427   9.799  20.747  0.00  0.00    +0.000 A 
ATOM     23  C   UNL     1       1.395   7.475  21.188  0.00  0.00    +0.000 C 
ATOM     24  C   UNL     1       1.806   6.138  20.460  0.00  0.00    +0.000 C 
ATOM     25  N   UNL     1       3.020   6.319  19.622  0.00  0.00    +0.000 NA
ATOM     26  C   UNL     1       2.470   7.282  18.496  0.00  0.00    +0.000 C 
BRANCH  17  28
ATOM     27  N   UNL     1      -1.184  12.967  20.779  0.00  0.00    +0.000 NA
ATOM     28  C   UNL     1      -0.614  12.028  20.395  0.00  0.00    +0.000 C 
ENDBRANCH  17  28
ENDBRANCH  16  25
ENDBRANCH   1  16
TORSDOF 5
ENDMDL
MODEL 3
REMARK VINA RESULT:      -8.9      1.961      2.961
REMARK  Name = 
REMARK  5 active torsions:
REMARK  status: ('A' for Active; 'I' for Inactive)
REMARK    1  A    between atoms: C_2  and  C_3
REMARK    2  A    between atoms: N_11  and  C_12
REMARK    3  A    between atoms: C_12  and  C_13
REMARK    4  A    between atoms: C_15  and  C_16
REMARK    5  A    between atoms: C_16  and  O_18
REMARK                            x       y       z     vdW  Elec       q    Type
REMARK                         _______ _______ _______ _____ _____    ______ ____
ROOT
ATOM      1  C   UNL     1       4.402   5.110  17.410  0.00  0.00    +0.000 A 
ATOM      2  C   UNL     1       5.459   5.359  18.447  0.00  0.00    +0.000 A 
ATOM      3  C   UNL     1       6.538   6.100  18.122  0.00  0.00    +0.000 A 
ATOM      4  C   UNL     1       7.295   4.892  17.728  0.00  0.00    +0.000 A 
ATOM      5  O   UNL     1       8.050   4.244  18.432  0.00  0.00    +0.000 OA
ATOM      6  N   UNL     1       6.759   4.494  16.515  0.00  0.00    +0.000 N 
ATOM      7  C   UNL     1       7.597   4.771  15.424  0.00  0.00    +0.000 A 
ATOM      8  C   UNL     1       7.202   4.735  14.154  0.00  0.00    +0.000 A 
ATOM      9  C   UNL     1       5.930   4.111  13.933  0.00  0.00    +0.000 A 
ATOM     10  C   UNL     1       4.995   4.064  14.933  0.00  0.00    +0.000 A 
ATOM     11  C   UNL     1       5.280   4.585  16.347  0.00  0.00    +0.000 A 
ENDROOT
BRANCH   3  12
ATOM     12  C   UNL     1       6.365   7.229  17.119  0.00  0.00    +0.000 C 
ATOM     13  O   UNL     1       5.379   7.405  16.411  0.00  0.00    +0.000 OA
BRANCH  12  14
ATOM     14  O   UNL     1       7.436   8.045  17.011  0.00  0.00    +0.000 OA
ATOM     15  H   UNL     1       8.226   7.777  17.511  0.00  0.00    +0.000 HD
ENDBRANCH  12  14
ENDBRANCH   3  12
BRANCH   1  16
ATOM     16  C   UNL     1       3.399   5.760  18.786  0.00  0.00    +0.000 C 
BRANCH  16  25
ATOM     17  C   UNL     1      -0.763  11.131  20.643  0.00  0.00    +0.000 A 
ATOM     18  C   UNL     1      -0.359  10.464  21.799  0.00  0.00    +0.000 A 
ATOM     19  C   UNL     1       0.518   9.333  21.720  0.00  0.00    +0.000 A 
ATOM     20  C   UNL     1       1.021   8.825  20.484  0.00  0.00    +0.000 A 
ATOM     21  C   UNL     1       0.692   9.587  19.355  0.00  0.00    +0.000 A 
ATOM     22  C   UNL     1      -0.220  10.696  19.429  0.00  0.00    +0.000 A 
ATOM     23  C   UNL     1       1.332   9.212  18.041  0.00  0.00    +0.000 C 
ATOM     24  C   UNL     1       2.594   8.276  18.160  0.00  0.00    +0.000 C 
ATOM     25  N   UNL     1       2.276   7.013  18.876  0.00  0.00    +0.000 NA
ATOM     26  C   UNL     1       1.992   7.554  20.333  0.00  0.00    +0.000 C 
BRANCH  17  28
ATOM     27  N   UNL     1      -2.431  13.136  20.749  0.00  0.00    +0.000 NA
ATOM     28  C   UNL     1      -1.691  12.239  20.706  0.00  0.00    +0.000 C 
ENDBRANCH  17  28
ENDBRANCH  16  25
ENDBRANCH   1  16
TORSDOF 5
ENDMDL
MODEL 4
REMARK VINA RESULT:      -8.8      0.864      1.697
REMARK  Name = 
REMARK  5 active torsions:
REMARK  status: ('A' for Active; 'I' for Inactive)
REMARK    1  A    between atoms: C_2  and  C_3
REMARK    2  A    between atoms: N_11  and  C_12
REMARK    3  A    between atoms: C_12  and  C_13
REMARK    4  A    between atoms: C_15  and  C_16
REMARK    5  A    between atoms: C_16  and  O_18
REMARK                            x       y       z     vdW  Elec       q    Type
REMARK                         _______ _______ _______ _____ _____    ______ ____
ROOT
ATOM      1  C   UNL     1       3.295   6.397  18.397  0.00  0.00    +0.000 A 
ATOM      2  C   UNL     1       2.558   5.133  18.738  0.00  0.00    +0.000 A 
ATOM      3  C   UNL     1       3.254   3.988  18.893  0.00  0.00    +0.000 A 
ATOM      4  C   UNL     1       3.069   3.640  17.468  0.00  0.00    +0.000 A 
ATOM      5  O   UNL     1       2.184   2.947  16.997  0.00  0.00    +0.000 OA
ATOM      6  N   UNL     1       3.918   4.478  16.765  0.00  0.00    +0.000 N 
ATOM      7  C   UNL     1       5.053   3.822  16.266  0.00  0.00    +0.000 A 
ATOM      8  C   UNL     1       6.131   4.448  15.801  0.00  0.00    +0.000 A 
ATOM      9  C   UNL     1       5.960   5.852  15.566  0.00  0.00    +0.000 A 
ATOM     10  C   UNL     1       5.008   6.562  16.248  0.00  0.00    +0.000 A 
ATOM     11  C   UNL     1       4.028   5.894  17.220  0.00  0.00    +0.000 A 
ENDROOT
BRANCH   3  12
ATOM     12  C   UNL     1       4.661   4.068  19.462  0.00  0.00    +0.000 C 
ATOM     13  O   UNL     1       5.216   5.093  19.844  0.00  0.00    +0.000 OA
BRANCH  12  14
ATOM     14  O   UNL     1       5.320   2.888  19.482  0.00  0.00    +0.000 OA
ATOM     15  H   UNL     1       5.430   2.449  18.621  0.00  0.00    +0.000 HD
ENDBRANCH  12  14
ENDBRANCH   3  12
BRANCH   1  16
ATOM     16  C   UNL     1       2.338   6.929  19.855  0.00  0.00    +0.000 C 
BRANCH  16  25
ATOM     17  C   UNL     1      -1.151  13.034  20.270  0.00  0.00    +0.000 A 
ATOM     18  C   UNL     1      -1.016  12.692  18.925  0.00  0.00    +0.000 A 
ATOM     19  C   UNL     1      -0.359  11.476  18.543  0.00  0.00    +0.000 A 
ATOM     20  C   UNL     1       0.190  10.560  19.491  0.00  0.00    +0.000 A 
ATOM     21  C   UNL     1      -0.066  10.874  20.832  0.00  0.00    +0.000 A 
ATOM     22  C   UNL     1      -0.688  12.112  21.216  0.00  0.00    +0.000 A 
ATOM     23  C   UNL     1       0.330   9.864  21.880  0.00  0.00    +0.000 C 
ATOM     24  C   UNL     1       0.610   8.413  21.332  0.00  0.00    +0.000 C 
ATOM     25  N   UNL     1       1.671   8.413  20.292  0.00  0.00    +0.000 NA
ATOM     26  C   UNL     1       0.949   9.193  19.123  0.00  0.00    +0.000 C 
BRANCH  17  28
ATOM     27  N   UNL     1      -2.246  15.295  20.978  0.00  0.00    +0.000 NA
ATOM     28  C   UNL     1      -1.763  14.284  20.665  0.00  0.00    +0.000 C 
ENDBRANCH  17  28
ENDBRANCH  16  25
ENDBRANCH   1  16
TORSDOF 5
ENDMDL
MODEL 5
REMARK VINA RESULT:      -8.7      1.819      2.134
REMARK  Name = 
REMARK  5 active torsions:
REMARK  status: ('A' for Active; 'I' for Inactive)
REMARK    1  A    between atoms: C_2  and  C_3
REMARK    2  A    between atoms: N_11  and  C_12
REMARK    3  A    between atoms: C_12  and  C_13
REMARK    4  A    between atoms: C_15  and  C_16
REMARK    5  A    between atoms: C_16  and  O_18
REMARK                            x       y       z     vdW  Elec       q    Type
REMARK                         _______ _______ _______ _____ _____    ______ ____
ROOT
ATOM      1  C   UNL     1       4.377   6.779  17.594  0.00  0.00    +0.000 A 
ATOM      2  C   UNL     1       3.921   5.485  16.983  0.00  0.00    +0.000 A 
ATOM      3  C   UNL     1       4.300   4.320  17.549  0.00  0.00    +0.000 A 
ATOM      4  C   UNL     1       5.491   4.242  16.676  0.00  0.00    +0.000 A 
ATOM      5  O   UNL     1       5.574   3.660  15.609  0.00  0.00    +0.000 OA
ATOM      6  N   UNL     1       6.379   5.182  17.170  0.00  0.00    +0.000 N 
ATOM      7  C   UNL     1       7.460   4.612  17.861  0.00  0.00    +0.000 A 
ATOM      8  C   UNL     1       8.287   5.297  18.647  0.00  0.00    +0.000 A 
ATOM      9  C   UNL     1       8.191   6.723  18.529  0.00  0.00    +0.000 A 
ATOM     10  C   UNL     1       7.033   7.309  18.091  0.00  0.00    +0.000 A 
ATOM     11  C   UNL     1       5.824   6.489  17.627  0.00  0.00    +0.000 A 
ENDROOT
BRANCH   3  12
ATOM     12  C   UNL     1       4.479   4.274  19.058  0.00  0.00    +0.000 C 
ATOM     13  O   UNL     1       4.054   5.108  19.850  0.00  0.00    +0.000 OA
BRANCH  12  14
ATOM     14  O   UNL     1       5.214   3.229  19.497  0.00  0.00    +0.000 OA
ATOM     15  H   UNL     1       5.291   2.476  18.886  0.00  0.00    +0.000 HD
ENDBRANCH  12  14
ENDBRANCH   3  12
BRANCH   1  16
ATOM     16  C   UNL     1       2.577   7.048  17.502  0.00  0.00    +0.000 C 
BRANCH  16  25
ATOM     17  C   UNL     1      -0.845  10.963  22.255  0.00  0.00    +0.000 A 
ATOM     18  C   UNL     1      -0.166   9.947  22.925  0.00  0.00    +0.000 A 
ATOM     19  C   UNL     1       0.637   9.005  22.202  0.00  0.00    +0.000 A 
ATOM     20  C   UNL     1       0.788   9.042  20.782  0.00  0.00    +0.000 A 
ATOM     21  C   UNL     1       0.190  10.142  20.153  0.00  0.00    +0.000 A 
ATOM     22  C   UNL     1      -0.649  11.062  20.872  0.00  0.00    +0.000 A 
ATOM     23  C   UNL     1       0.455  10.342  18.682  0.00  0.00    +0.000 C 
ATOM     24  C   UNL     1       1.685   9.538  18.113  0.00  0.00    +0.000 C 
ATOM     25  N   UNL     1       1.542   8.077  18.344  0.00  0.00    +0.000 NA
ATOM     26  C   UNL     1       1.660   8.007  19.918  0.00  0.00    +0.000 C 
BRANCH  17  28
ATOM     27  N   UNL     1      -2.385  12.635  23.539  0.00  0.00    +0.000 NA
ATOM     28  C   UNL     1      -1.702  11.885  22.968  0.00  0.00    +0.000 C 
ENDBRANCH  17  28
ENDBRANCH  16  25
ENDBRANCH   1  16
TORSDOF 5
ENDMDL
MODEL 6
REMARK VINA RESULT:      -8.5      1.563      3.153
REMARK  Name = 
REMARK  5 active torsions:
REMARK  status: ('A' for Active; 'I' for Inactive)
REMARK    1  A    between atoms: C_2  and  C_3
REMARK    2  A    between atoms: N_11  and  C_12
REMARK    3  A    between atoms: C_12  and  C_13
REMARK    4  A    between atoms: C_15  and  C_16
REMARK    5  A    between atoms: C_16  and  O_18
REMARK                            x       y       z     vdW  Elec       q    Type
REMARK                         _______ _______ _______ _____ _____    ______ ____
ROOT
ATOM      1  C   UNL     1       2.493   6.057  19.825  0.00  0.00    +0.000 A 
ATOM      2  C   UNL     1       3.564   6.076  18.772  0.00  0.00    +0.000 A 
ATOM      3  C   UNL     1       3.648   5.050  17.900  0.00  0.00    +0.000 A 
ATOM      4  C   UNL     1       4.605   4.337  18.774  0.00  0.00    +0.000 A 
ATOM      5  O   UNL     1       5.821   4.385  18.713  0.00  0.00    +0.000 OA
ATOM      6  N   UNL     1       3.854   3.846  19.828  0.00  0.00    +0.000 N 
ATOM      7  C   UNL     1       3.646   2.460  19.760  0.00  0.00    +0.000 A 
ATOM      8  C   UNL     1       2.747   1.804  20.490  0.00  0.00    +0.000 A 
ATOM      9  C   UNL     1       2.187   2.554  21.575  0.00  0.00    +0.000 A 
ATOM     10  C   UNL     1       2.155   3.923  21.533  0.00  0.00    +0.000 A 
ATOM     11  C   UNL     1       2.783   4.722  20.385  0.00  0.00    +0.000 A 
ENDROOT
BRANCH   3  12
ATOM     12  C   UNL     1       2.365   4.353  17.478  0.00  0.00    +0.000 C 
ATOM     13  O   UNL     1       1.229   4.760  17.699  0.00  0.00    +0.000 OA
BRANCH  12  14
ATOM     14  O   UNL     1       2.555   3.171  16.853  0.00  0.00    +0.000 OA
ATOM     15  H   UNL     1       2.985   3.216  15.982  0.00  0.00    +0.000 HD
ENDBRANCH  12  14
ENDBRANCH   3  12
BRANCH   1  16
ATOM     16  C   UNL     1       2.220   7.694  19.074  0.00  0.00    +0.000 C 
BRANCH  16  25
ATOM     17  C   UNL     1      -1.939  12.631  21.895  0.00  0.00    +0.000 A 
ATOM     18  C   UNL     1      -1.553  11.749  22.903  0.00  0.00    +0.000 A 
ATOM     19  C   UNL     1      -0.680  10.649  22.616  0.00  0.00    +0.000 A 
ATOM     20  C   UNL     1      -0.165  10.387  21.309  0.00  0.00    +0.000 A 
ATOM     21  C   UNL     1      -0.476  11.357  20.347  0.00  0.00    +0.000 A 
ATOM     22  C   UNL     1      -1.384  12.437  20.625  0.00  0.00    +0.000 A 
ATOM     23  C   UNL     1       0.177  11.240  18.992  0.00  0.00    +0.000 C 
ATOM     24  C   UNL     1       1.433  10.290  18.941  0.00  0.00    +0.000 C 
ATOM     25  N   UNL     1       1.101   8.914  19.394  0.00  0.00    +0.000 NA
ATOM     26  C   UNL     1       0.802   9.164  20.925  0.00  0.00    +0.000 C 
BRANCH  17  28
ATOM     27  N   UNL     1      -3.614  14.574  22.379  0.00  0.00    +0.000 NA
ATOM     28  C   UNL     1      -2.863  13.712  22.162  0.00  0.00    +0.000 C 
ENDBRANCH  17  28
ENDBRANCH  16  25
ENDBRANCH   1  16
TORSDOF 5
ENDMDL
MODEL 7
REMARK VINA RESULT:      -8.4      7.076     10.008
REMARK  Name = 
REMARK  5 active torsions:
REMARK  status: ('A' for Active; 'I' for Inactive)
REMARK    1  A    between atoms: C_2  and  C_3
REMARK    2  A    between atoms: N_11  and  C_12
REMARK    3  A    between atoms: C_12  and  C_13
REMARK    4  A    between atoms: C_15  and  C_16
REMARK    5  A    between atoms: C_16  and  O_18
REMARK                            x       y       z     vdW  Elec       q    Type
REMARK                         _______ _______ _______ _____ _____    ______ ____
ROOT
ATOM      1  C   UNL     1       8.676  10.981  17.925  0.00  0.00    +0.000 A 
ATOM      2  C   UNL     1      10.170  10.886  18.055  0.00  0.00    +0.000 A 
ATOM      3  C   UNL     1      10.803  11.673  18.950  0.00  0.00    +0.000 A 
ATOM      4  C   UNL     1      11.021  12.721  17.930  0.00  0.00    +0.000 A 
ATOM      5  O   UNL     1      12.007  12.859  17.227  0.00  0.00    +0.000 OA
ATOM      6  N   UNL     1       9.787  13.321  17.742  0.00  0.00    +0.000 N 
ATOM      7  C   UNL     1       9.699  14.596  18.319  0.00  0.00    +0.000 A 
ATOM      8  C   UNL     1       8.557  15.252  18.509  0.00  0.00    +0.000 A 
ATOM      9  C   UNL     1       7.424  14.702  17.823  0.00  0.00    +0.000 A 
ATOM     10  C   UNL     1       7.394  13.377  17.478  0.00  0.00    +0.000 A 
ATOM     11  C   UNL     1       8.584  12.440  17.720  0.00  0.00    +0.000 A 
ENDROOT
BRANCH   3  12
ATOM     12  C   UNL     1      10.081  12.028  20.239  0.00  0.00    +0.000 C 
ATOM     13  O   UNL     1      10.131  13.115  20.805  0.00  0.00    +0.000 OA
BRANCH  12  14
ATOM     14  O   UNL     1       9.381  11.008  20.782  0.00  0.00    +0.000 OA
ATOM     15  H   UNL     1       8.893  10.447  20.155  0.00  0.00    +0.000 HD
ENDBRANCH  12  14
ENDBRANCH   3  12
BRANCH   1  16
ATOM     16  C   UNL     1       8.894   9.190  18.174  0.00  0.00    +0.000 C 
BRANCH  16  25
ATOM     17  C   UNL     1       4.341   3.856  17.504  0.00  0.00    +0.000 A 
ATOM     18  C   UNL     1       4.378   4.560  16.302  0.00  0.00    +0.000 A 
ATOM     19  C   UNL     1       5.243   5.693  16.145  0.00  0.00    +0.000 A 
ATOM     20  C   UNL     1       6.099   6.166  17.185  0.00  0.00    +0.000 A 
ATOM     21  C   UNL     1       6.126   5.368  18.337  0.00  0.00    +0.000 A 
ATOM     22  C   UNL     1       5.229   4.257  18.510  0.00  0.00    +0.000 A 
ATOM     23  C   UNL     1       7.135   5.706  19.406  0.00  0.00    +0.000 C 
ATOM     24  C   UNL     1       8.306   6.652  18.938  0.00  0.00    +0.000 C 
ATOM     25  N   UNL     1       7.791   7.934  18.391  0.00  0.00    +0.000 NA
ATOM     26  C   UNL     1       7.076   7.436  17.073  0.00  0.00    +0.000 C 
BRANCH  17  28
ATOM     27  N   UNL     1       2.704   1.854  17.855  0.00  0.00    +0.000 NA
ATOM     28  C   UNL     1       3.433   2.746  17.692  0.00  0.00    +0.000 C 
ENDBRANCH  17  28
ENDBRANCH  16  25
ENDBRANCH   1  16
TORSDOF 5
ENDMDL
MODEL 8
REMARK VINA RESULT:      -8.4      2.617      4.081
REMARK  Name = 
REMARK  5 active torsions:
REMARK  status: ('A' for Active; 'I' for Inactive)
REMARK    1  A    between atoms: C_2  and  C_3
REMARK    2  A    between atoms: N_11  and  C_12
REMARK    3  A    between atoms: C_12  and  C_13
REMARK    4  A    between atoms: C_15  and  C_16
REMARK    5  A    between atoms: C_16  and  O_18
REMARK                            x       y       z     vdW  Elec       q    Type
REMARK                         _______ _______ _______ _____ _____    ______ ____
ROOT
ATOM      1  C   UNL     1       2.417   6.289  19.289  0.00  0.00    +0.000 A 
ATOM      2  C   UNL     1       3.460   6.138  18.218  0.00  0.00    +0.000 A 
ATOM      3  C   UNL     1       3.544   4.974  17.542  0.00  0.00    +0.000 A 
ATOM      4  C   UNL     1       4.540   4.447  18.500  0.00  0.00    +0.000 A 
ATOM      5  O   UNL     1       5.753   4.506  18.396  0.00  0.00    +0.000 OA
ATOM      6  N   UNL     1       3.828   4.140  19.647  0.00  0.00    +0.000 N 
ATOM      7  C   UNL     1       3.651   2.761  19.835  0.00  0.00    +0.000 A 
ATOM      8  C   UNL     1       2.787   2.230  20.696  0.00  0.00    +0.000 A 
ATOM      9  C   UNL     1       2.238   3.153  21.646  0.00  0.00    +0.000 A 
ATOM     10  C   UNL     1       2.173   4.491  21.361  0.00  0.00    +0.000 A 
ATOM     11  C   UNL     1       2.752   5.082  20.070  0.00  0.00    +0.000 A 
ENDROOT
BRANCH   3  12
ATOM     12  C   UNL     1       2.267   4.189  17.290  0.00  0.00    +0.000 C 
ATOM     13  O   UNL     1       1.128   4.626  17.415  0.00  0.00    +0.000 OA
BRANCH  12  14
ATOM     14  O   UNL     1       2.468   2.898  16.947  0.00  0.00    +0.000 OA
ATOM     15  H   UNL     1       2.697   2.296  17.676  0.00  0.00    +0.000 HD
ENDBRANCH  12  14
ENDBRANCH   3  12
BRANCH   1  16
ATOM     16  C   UNL     1       2.086   7.760  18.265  0.00  0.00    +0.000 C 
BRANCH  16  25
ATOM     17  C   UNL     1       0.410  14.576  18.865  0.00  0.00    +0.000 A 
ATOM     18  C   UNL     1       1.760  14.480  18.529  0.00  0.00    +0.000 A 
ATOM     19  C   UNL     1       2.371  13.200  18.321  0.00  0.00    +0.000 A 
ATOM     20  C   UNL     1       1.657  11.969  18.446  0.00  0.00    +0.000 A 
ATOM     21  C   UNL     1       0.280  12.105  18.668  0.00  0.00    +0.000 A 
ATOM     22  C   UNL     1      -0.325  13.385  18.917  0.00  0.00    +0.000 A 
ATOM     23  C   UNL     1      -0.565  10.856  18.635  0.00  0.00    +0.000 C 
ATOM     24  C   UNL     1       0.120   9.607  17.960  0.00  0.00    +0.000 C 
ATOM     25  N   UNL     1       1.403   9.258  18.624  0.00  0.00    +0.000 NA
ATOM     26  C   UNL     1       2.291  10.508  18.241  0.00  0.00    +0.000 C 
BRANCH  17  28
ATOM     27  N   UNL     1      -0.690  16.892  19.352  0.00  0.00    +0.000 NA
ATOM     28  C   UNL     1      -0.204  15.858  19.131  0.00  0.00    +0.000 C 
ENDBRANCH  17  28
ENDBRANCH  16  25
ENDBRANCH   1  16
TORSDOF 5
ENDMDL
MODEL 9
REMARK VINA RESULT:      -8.3      0.895      1.067
REMARK  Name = 
REMARK  5 active torsions:
REMARK  status: ('A' for Active; 'I' for Inactive)
REMARK    1  A    between atoms: C_2  and  C_3
REMARK    2  A    between atoms: N_11  and  C_12
REMARK    3  A    between atoms: C_12  and  C_13
REMARK    4  A    between atoms: C_15  and  C_16
REMARK    5  A    between atoms: C_16  and  O_18
REMARK                            x       y       z     vdW  Elec       q    Type
REMARK                         _______ _______ _______ _____ _____    ______ ____
ROOT
ATOM      1  C   UNL     1       3.721   6.072  17.896  0.00  0.00    +0.000 A 
ATOM      2  C   UNL     1       3.503   4.774  18.620  0.00  0.00    +0.000 A 
ATOM      3  C   UNL     1       4.553   3.954  18.830  0.00  0.00    +0.000 A 
ATOM      4  C   UNL     1       4.284   3.226  17.571  0.00  0.00    +0.000 A 
ATOM      5  O   UNL     1       3.618   2.214  17.444  0.00  0.00    +0.000 OA
ATOM      6  N   UNL     1       4.693   4.073  16.555  0.00  0.00    +0.000 N 
ATOM      7  C   UNL     1       5.894   3.671  15.951  0.00  0.00    +0.000 A 
ATOM      8  C   UNL     1       6.623   4.446  15.153  0.00  0.00    +0.000 A 
ATOM      9  C   UNL     1       5.964   5.637  14.702  0.00  0.00    +0.000 A 
ATOM     10  C   UNL     1       4.944   6.188  15.431  0.00  0.00    +0.000 A 
ATOM     11  C   UNL     1       4.396   5.527  16.702  0.00  0.00    +0.000 A 
ENDROOT
BRANCH   3  12
ATOM     12  C   UNL     1       5.923   4.575  19.052  0.00  0.00    +0.000 C 
ATOM     13  O   UNL     1       6.974   4.170  18.567  0.00  0.00    +0.000 OA
BRANCH  12  14
ATOM     14  O   UNL     1       5.924   5.628  19.898  0.00  0.00    +0.000 OA
ATOM     15  H   UNL     1       6.791   6.031  20.073  0.00  0.00    +0.000 HD
ENDBRANCH  12  14
ENDBRANCH   3  12
BRANCH   1  16
ATOM     16  C   UNL     1       2.871   6.648  19.401  0.00  0.00    +0.000 C 
BRANCH  16  25
ATOM     17  C   UNL     1      -1.506  11.564  21.910  0.00  0.00    +0.000 A 
ATOM     18  C   UNL     1      -0.990  10.841  22.985  0.00  0.00    +0.000 A 
ATOM     19  C   UNL     1      -0.047   9.783  22.767  0.00  0.00    +0.000 A 
ATOM     20  C   UNL     1       0.409   9.405  21.468  0.00  0.00    +0.000 A 
ATOM     21  C   UNL     1      -0.037  10.225  20.424  0.00  0.00    +0.000 A 
ATOM     22  C   UNL     1      -1.013  11.260  20.636  0.00  0.00    +0.000 A 
ATOM     23  C   UNL     1       0.542   9.995  19.050  0.00  0.00    +0.000 C 
ATOM     24  C   UNL     1       1.867   9.142  19.022  0.00  0.00    +0.000 C 
ATOM     25  N   UNL     1       1.677   7.810  19.654  0.00  0.00    +0.000 NA
ATOM     26  C   UNL     1       1.449   8.220  21.162  0.00  0.00    +0.000 C 
BRANCH  17  28
ATOM     27  N   UNL     1      -3.303  13.421  22.283  0.00  0.00    +0.000 NA
ATOM     28  C   UNL     1      -2.498  12.597  22.113  0.00  0.00    +0.000 C 
ENDBRANCH  17  28
ENDBRANCH  16  25
ENDBRANCH   1  16
TORSDOF 5
ENDMDL
