MODEL 1
REMARK VINA RESULT:      -8.0      0.000      0.000
REMARK  Name = 
REMARK  3 active torsions:
REMARK  status: ('A' for Active; 'I' for Inactive)
REMARK    1  A    between atoms: C_1  and  N_2
REMARK    2  A    between atoms: C_3  and  C_4
REMARK    3  A    between atoms: C_13  and  O_14
REMARK                            x       y       z     vdW  Elec       q    Type
REMARK                         _______ _______ _______ _____ _____    ______ ____
ROOT
ATOM      1  C   UNL     1       2.488   3.693  20.936  0.00  0.00    +0.000 C 
ATOM      2  N   UNL     1       3.080   4.461  19.827  0.00  0.00    +0.000 N 
ATOM      3  C   UNL     1       2.769   5.826  19.508  0.00  0.00    +0.000 C 
ATOM      4  C   UNL     1       3.310   6.443  18.429  0.00  0.00    +0.000 C 
ATOM      5  C   UNL     1       4.208   5.833  17.431  0.00  0.00    +0.000 A 
ATOM      6  C   UNL     1       4.671   6.561  16.312  0.00  0.00    +0.000 A 
ATOM      7  C   UNL     1       5.474   5.979  15.327  0.00  0.00    +0.000 A 
ATOM      8  C   UNL     1       5.842   4.642  15.433  0.00  0.00    +0.000 A 
ATOM      9  C   UNL     1       5.406   3.904  16.526  0.00  0.00    +0.000 A 
ATOM     10  C   UNL     1       4.599   4.507  17.507  0.00  0.00    +0.000 A 
ATOM     11  S   UNL     1       4.046   3.512  18.824  0.00  0.00    +0.000 S 
ATOM     12  O   UNL     1       3.193   2.497  18.245  0.00  0.00    +0.000 OA
ATOM     13  O   UNL     1       5.215   3.145  19.597  0.00  0.00    +0.000 OA
ENDROOT
BRANCH   3  14
ATOM     14  C   UNL     1       1.788   6.634  20.332  0.00  0.00    +0.000 C 
ATOM     15  O   UNL     1       0.761   6.084  20.741  0.00  0.00    +0.000 OA
ATOM     16  N   UNL     1       2.029   7.978  20.444  0.00  0.00    +0.000 N 
ATOM     17  C   UNL     1       1.161   8.865  21.089  0.00  0.00    +0.000 A 
ATOM     18  C   UNL     1       0.458   8.534  22.245  0.00  0.00    +0.000 A 
ATOM     19  C   UNL     1      -0.443   9.452  22.772  0.00  0.00    +0.000 A 
ATOM     20  C   UNL     1      -0.631  10.666  22.122  0.00  0.00    +0.000 A 
ATOM     21  C   UNL     1       0.139  10.925  20.999  0.00  0.00    +0.000 A 
ATOM     22  N   UNL     1       1.057  10.070  20.494  0.00  0.00    +0.000 NA
ATOM     23  H   UNL     1       2.623   8.420  19.756  0.00  0.00    +0.000 HD
ENDBRANCH   3  14
BRANCH   4  24
ATOM     24  O   UNL     1       3.048   7.785  18.132  0.00  0.00    +0.000 OA
ATOM     25  H   UNL     1       3.588   8.366  18.712  0.00  0.00    +0.000 HD
ENDBRANCH   4  24
TORSDOF 2
ENDMDL
MODEL 2
REMARK VINA RESULT:      -7.9      4.062      6.366
REMARK  Name = 
REMARK  3 active torsions:
REMARK  status: ('A' for Active; 'I' for Inactive)
REMARK    1  A    between atoms: C_1  and  N_2
REMARK    2  A    between atoms: C_3  and  C_4
REMARK    3  A    between atoms: C_13  and  O_14
REMARK                            x       y       z     vdW  Elec       q    Type
REMARK                         _______ _______ _______ _____ _____    ______ ____
ROOT
ATOM      1  C   UNL     1      -0.351  11.494  21.962  0.00  0.00    +0.000 C 
ATOM      2  N   UNL     1       0.423  10.714  20.981  0.00  0.00    +0.000 N 
ATOM      3  C   UNL     1       0.775  11.160  19.662  0.00  0.00    +0.000 C 
ATOM      4  C   UNL     1       1.436  10.355  18.794  0.00  0.00    +0.000 C 
ATOM      5  C   UNL     1       1.829   8.953  19.027  0.00  0.00    +0.000 A 
ATOM      6  C   UNL     1       2.471   8.191  18.026  0.00  0.00    +0.000 A 
ATOM      7  C   UNL     1       2.796   6.844  18.210  0.00  0.00    +0.000 A 
ATOM      8  C   UNL     1       2.487   6.215  19.412  0.00  0.00    +0.000 A 
ATOM      9  C   UNL     1       1.861   6.942  20.416  0.00  0.00    +0.000 A 
ATOM     10  C   UNL     1       1.543   8.296  20.211  0.00  0.00    +0.000 A 
ATOM     11  S   UNL     1       0.714   9.135  21.492  0.00  0.00    +0.000 S 
ATOM     12  O   UNL     1      -0.574   8.491  21.641  0.00  0.00    +0.000 OA
ATOM     13  O   UNL     1       1.634   9.219  22.608  0.00  0.00    +0.000 OA
ENDROOT
BRANCH   3  14
ATOM     14  C   UNL     1       0.387  12.533  19.155  0.00  0.00    +0.000 C 
ATOM     15  O   UNL     1      -0.556  12.630  18.364  0.00  0.00    +0.000 OA
ATOM     16  N   UNL     1       1.211  13.575  19.489  0.00  0.00    +0.000 N 
ATOM     17  C   UNL     1       1.034  14.880  19.014  0.00  0.00    +0.000 A 
ATOM     18  C   UNL     1      -0.219  15.461  18.839  0.00  0.00    +0.000 A 
ATOM     19  C   UNL     1      -0.300  16.734  18.286  0.00  0.00    +0.000 A 
ATOM     20  C   UNL     1       0.870  17.383  17.908  0.00  0.00    +0.000 A 
ATOM     21  C   UNL     1       2.075  16.743  18.154  0.00  0.00    +0.000 A 
ATOM     22  N   UNL     1       2.183  15.527  18.734  0.00  0.00    +0.000 NA
ATOM     23  H   UNL     1       2.161  13.369  19.765  0.00  0.00    +0.000 HD
ENDBRANCH   3  14
BRANCH   4  24
ATOM     24  O   UNL     1       1.820  10.793  17.522  0.00  0.00    +0.000 OA
ATOM     25  H   UNL     1       1.044  11.167  17.050  0.00  0.00    +0.000 HD
ENDBRANCH   4  24
TORSDOF 2
ENDMDL
MODEL 3
REMARK VINA RESULT:      -7.9      1.561      1.755
REMARK  Name = 
REMARK  3 active torsions:
REMARK  status: ('A' for Active; 'I' for Inactive)
REMARK    1  A    between atoms: C_1  and  N_2
REMARK    2  A    between atoms: C_3  and  C_4
REMARK    3  A    between atoms: C_13  and  O_14
REMARK                            x       y       z     vdW  Elec       q    Type
REMARK                         _______ _______ _______ _____ _____    ______ ____
ROOT
ATOM      1  C   UNL     1       1.402   5.046  20.532  0.00  0.00    +0.000 C 
ATOM      2  N   UNL     1       2.364   5.425  19.482  0.00  0.00    +0.000 N 
ATOM      3  C   UNL     1       2.602   6.765  19.024  0.00  0.00    +0.000 C 
ATOM      4  C   UNL     1       3.460   7.026  18.007  0.00  0.00    +0.000 C 
ATOM      5  C   UNL     1       4.201   6.029  17.212  0.00  0.00    +0.000 A 
ATOM      6  C   UNL     1       5.032   6.414  16.136  0.00  0.00    +0.000 A 
ATOM      7  C   UNL     1       5.695   5.478  15.336  0.00  0.00    +0.000 A 
ATOM      8  C   UNL     1       5.547   4.119  15.593  0.00  0.00    +0.000 A 
ATOM      9  C   UNL     1       4.741   3.713  16.649  0.00  0.00    +0.000 A 
ATOM     10  C   UNL     1       4.083   4.669  17.442  0.00  0.00    +0.000 A 
ATOM     11  S   UNL     1       3.050   4.090  18.718  0.00  0.00    +0.000 S 
ATOM     12  O   UNL     1       1.973   3.364  18.079  0.00  0.00    +0.000 OA
ATOM     13  O   UNL     1       3.904   3.443  19.693  0.00  0.00    +0.000 OA
ENDROOT
BRANCH   3  14
ATOM     14  C   UNL     1       1.876   7.953  19.620  0.00  0.00    +0.000 C 
ATOM     15  O   UNL     1       1.727   8.006  20.845  0.00  0.00    +0.000 OA
ATOM     16  N   UNL     1       1.290   8.828  18.743  0.00  0.00    +0.000 N 
ATOM     17  C   UNL     1       0.505   9.914  19.147  0.00  0.00    +0.000 A 
ATOM     18  C   UNL     1       0.792  10.681  20.273  0.00  0.00    +0.000 A 
ATOM     19  C   UNL     1      -0.088  11.692  20.642  0.00  0.00    +0.000 A 
ATOM     20  C   UNL     1      -1.238  11.896  19.888  0.00  0.00    +0.000 A 
ATOM     21  C   UNL     1      -1.423  11.109  18.762  0.00  0.00    +0.000 A 
ATOM     22  N   UNL     1      -0.558  10.153  18.354  0.00  0.00    +0.000 NA
ATOM     23  H   UNL     1       1.088   8.507  17.806  0.00  0.00    +0.000 HD
ENDBRANCH   3  14
BRANCH   4  24
ATOM     24  O   UNL     1       3.731   8.330  17.580  0.00  0.00    +0.000 OA
ATOM     25  H   UNL     1       3.657   8.950  18.338  0.00  0.00    +0.000 HD
ENDBRANCH   4  24
TORSDOF 2
ENDMDL
MODEL 4
REMARK VINA RESULT:      -7.5      4.391      6.741
REMARK  Name = 
REMARK  3 active torsions:
REMARK  status: ('A' for Active; 'I' for Inactive)
REMARK    1  A    between atoms: C_1  and  N_2
REMARK    2  A    between atoms: C_3  and  C_4
REMARK    3  A    between atoms: C_13  and  O_14
REMARK                            x       y       z     vdW  Elec       q    Type
REMARK                         _______ _______ _______ _____ _____    ______ ____
ROOT
ATOM      1  C   UNL     1      -1.045  11.131  22.872  0.00  0.00    +0.000 C 
ATOM      2  N   UNL     1      -0.295  10.789  21.651  0.00  0.00    +0.000 N 
ATOM      3  C   UNL     1      -0.283  11.565  20.443  0.00  0.00    +0.000 C 
ATOM      4  C   UNL     1       0.383  11.148  19.338  0.00  0.00    +0.000 C 
ATOM      5  C   UNL     1       1.115   9.877  19.186  0.00  0.00    +0.000 A 
ATOM      6  C   UNL     1       1.732   9.522  17.965  0.00  0.00    +0.000 A 
ATOM      7  C   UNL     1       2.378   8.295  17.788  0.00  0.00    +0.000 A 
ATOM      8  C   UNL     1       2.428   7.380  18.834  0.00  0.00    +0.000 A 
ATOM      9  C   UNL     1       1.836   7.706  20.048  0.00  0.00    +0.000 A 
ATOM     10  C   UNL     1       1.191   8.945  20.207  0.00  0.00    +0.000 A 
ATOM     11  S   UNL     1       0.426   9.268  21.738  0.00  0.00    +0.000 S 
ATOM     12  O   UNL     1      -0.639   8.299  21.879  0.00  0.00    +0.000 OA
ATOM     13  O   UNL     1       1.481   9.362  22.727  0.00  0.00    +0.000 OA
ENDROOT
BRANCH   3  14
ATOM     14  C   UNL     1      -1.050  12.865  20.322  0.00  0.00    +0.000 C 
ATOM     15  O   UNL     1      -2.284  12.826  20.287  0.00  0.00    +0.000 OA
ATOM     16  N   UNL     1      -0.318  14.002  20.105  0.00  0.00    +0.000 N 
ATOM     17  C   UNL     1      -0.893  15.257  19.877  0.00  0.00    +0.000 A 
ATOM     18  C   UNL     1      -2.041  15.696  20.531  0.00  0.00    +0.000 A 
ATOM     19  C   UNL     1      -2.586  16.927  20.182  0.00  0.00    +0.000 A 
ATOM     20  C   UNL     1      -1.981  17.675  19.180  0.00  0.00    +0.000 A 
ATOM     21  C   UNL     1      -0.819  17.177  18.610  0.00  0.00    +0.000 A 
ATOM     22  N   UNL     1      -0.242  16.006  18.965  0.00  0.00    +0.000 NA
ATOM     23  H   UNL     1       0.616  13.909  19.728  0.00  0.00    +0.000 HD
ENDBRANCH   3  14
BRANCH   4  24
ATOM     24  O   UNL     1       0.436  11.915  18.169  0.00  0.00    +0.000 OA
ATOM     25  H   UNL     1       0.078  11.398  17.415  0.00  0.00    +0.000 HD
ENDBRANCH   4  24
TORSDOF 2
ENDMDL
MODEL 5
REMARK VINA RESULT:      -7.5      6.996      9.946
REMARK  Name = 
REMARK  3 active torsions:
REMARK  status: ('A' for Active; 'I' for Inactive)
REMARK    1  A    between atoms: C_1  and  N_2
REMARK    2  A    between atoms: C_3  and  C_4
REMARK    3  A    between atoms: C_13  and  O_14
REMARK                            x       y       z     vdW  Elec       q    Type
REMARK                         _______ _______ _______ _____ _____    ______ ____
ROOT
ATOM      1  C   UNL     1       3.775  14.468  20.368  0.00  0.00    +0.000 C 
ATOM      2  N   UNL     1       2.642  15.222  19.803  0.00  0.00    +0.000 N 
ATOM      3  C   UNL     1       1.257  14.965  20.081  0.00  0.00    +0.000 C 
ATOM      4  C   UNL     1       0.269  15.664  19.469  0.00  0.00    +0.000 C 
ATOM      5  C   UNL     1       0.444  16.703  18.437  0.00  0.00    +0.000 A 
ATOM      6  C   UNL     1      -0.666  17.332  17.829  0.00  0.00    +0.000 A 
ATOM      7  C   UNL     1      -0.519  18.276  16.808  0.00  0.00    +0.000 A 
ATOM      8  C   UNL     1       0.752  18.622  16.362  0.00  0.00    +0.000 A 
ATOM      9  C   UNL     1       1.862  18.023  16.947  0.00  0.00    +0.000 A 
ATOM     10  C   UNL     1       1.693  17.077  17.973  0.00  0.00    +0.000 A 
ATOM     11  S   UNL     1       3.123  16.329  18.627  0.00  0.00    +0.000 S 
ATOM     12  O   UNL     1       3.722  15.573  17.548  0.00  0.00    +0.000 OA
ATOM     13  O   UNL     1       3.869  17.366  19.310  0.00  0.00    +0.000 OA
ENDROOT
BRANCH   3  14
ATOM     14  C   UNL     1       0.824  13.871  21.033  0.00  0.00    +0.000 C 
ATOM     15  O   UNL     1       0.923  14.067  22.248  0.00  0.00    +0.000 OA
ATOM     16  N   UNL     1       0.489  12.662  20.482  0.00  0.00    +0.000 N 
ATOM     17  C   UNL     1       0.165  11.532  21.241  0.00  0.00    +0.000 A 
ATOM     18  C   UNL     1      -0.569  11.596  22.423  0.00  0.00    +0.000 A 
ATOM     19  C   UNL     1      -0.776  10.431  23.152  0.00  0.00    +0.000 A 
ATOM     20  C   UNL     1      -0.231   9.239  22.690  0.00  0.00    +0.000 A 
ATOM     21  C   UNL     1       0.453   9.263  21.484  0.00  0.00    +0.000 A 
ATOM     22  N   UNL     1       0.627  10.373  20.732  0.00  0.00    +0.000 NA
ATOM     23  H   UNL     1       0.830  12.444  19.555  0.00  0.00    +0.000 HD
ENDBRANCH   3  14
BRANCH   4  24
ATOM     24  O   UNL     1      -1.082  15.451  19.763  0.00  0.00    +0.000 OA
ATOM     25  H   UNL     1      -1.634  15.712  18.993  0.00  0.00    +0.000 HD
ENDBRANCH   4  24
TORSDOF 2
ENDMDL
MODEL 6
REMARK VINA RESULT:      -7.4      2.470      7.019
REMARK  Name = 
REMARK  3 active torsions:
REMARK  status: ('A' for Active; 'I' for Inactive)
REMARK    1  A    between atoms: C_1  and  N_2
REMARK    2  A    between atoms: C_3  and  C_4
REMARK    3  A    between atoms: C_13  and  O_14
REMARK                            x       y       z     vdW  Elec       q    Type
REMARK                         _______ _______ _______ _____ _____    ______ ____
ROOT
ATOM      1  C   UNL     1       1.840   6.095  21.043  0.00  0.00    +0.000 C 
ATOM      2  N   UNL     1       1.574   7.363  20.342  0.00  0.00    +0.000 N 
ATOM      3  C   UNL     1       2.058   7.700  19.032  0.00  0.00    +0.000 C 
ATOM      4  C   UNL     1       1.822   8.916  18.481  0.00  0.00    +0.000 C 
ATOM      5  C   UNL     1       1.121  10.045  19.120  0.00  0.00    +0.000 A 
ATOM      6  C   UNL     1       0.978  11.290  18.466  0.00  0.00    +0.000 A 
ATOM      7  C   UNL     1       0.369  12.387  19.081  0.00  0.00    +0.000 A 
ATOM      8  C   UNL     1      -0.121  12.271  20.378  0.00  0.00    +0.000 A 
ATOM      9  C   UNL     1      -0.000  11.056  21.042  0.00  0.00    +0.000 A 
ATOM     10  C   UNL     1       0.616   9.964  20.406  0.00  0.00    +0.000 A 
ATOM     11  S   UNL     1       0.780   8.487  21.313  0.00  0.00    +0.000 S 
ATOM     12  O   UNL     1       1.654   8.783  22.427  0.00  0.00    +0.000 OA
ATOM     13  O   UNL     1      -0.558   7.976  21.535  0.00  0.00    +0.000 OA
ENDROOT
BRANCH   3  14
ATOM     14  C   UNL     1       2.895   6.736  18.218  0.00  0.00    +0.000 C 
ATOM     15  O   UNL     1       2.391   5.667  17.860  0.00  0.00    +0.000 OA
ATOM     16  N   UNL     1       4.219   7.046  18.056  0.00  0.00    +0.000 N 
ATOM     17  C   UNL     1       5.134   6.204  17.414  0.00  0.00    +0.000 A 
ATOM     18  C   UNL     1       4.809   5.444  16.292  0.00  0.00    +0.000 A 
ATOM     19  C   UNL     1       5.760   4.576  15.768  0.00  0.00    +0.000 A 
ATOM     20  C   UNL     1       7.001   4.478  16.387  0.00  0.00    +0.000 A 
ATOM     21  C   UNL     1       7.249   5.300  17.476  0.00  0.00    +0.000 A 
ATOM     22  N   UNL     1       6.359   6.187  17.975  0.00  0.00    +0.000 NA
ATOM     23  H   UNL     1       4.648   7.686  18.710  0.00  0.00    +0.000 HD
ENDBRANCH   3  14
BRANCH   4  24
ATOM     24  O   UNL     1       2.252   9.241  17.190  0.00  0.00    +0.000 OA
ATOM     25  H   UNL     1       3.114   8.806  17.006  0.00  0.00    +0.000 HD
ENDBRANCH   4  24
TORSDOF 2
ENDMDL
MODEL 7
REMARK VINA RESULT:      -7.4      2.927      7.418
REMARK  Name = 
REMARK  3 active torsions:
REMARK  status: ('A' for Active; 'I' for Inactive)
REMARK    1  A    between atoms: C_1  and  N_2
REMARK    2  A    between atoms: C_3  and  C_4
REMARK    3  A    between atoms: C_13  and  O_14
REMARK                            x       y       z     vdW  Elec       q    Type
REMARK                         _______ _______ _______ _____ _____    ______ ____
ROOT
ATOM      1  C   UNL     1       2.169   8.786  17.282  0.00  0.00    +0.000 C 
ATOM      2  N   UNL     1       1.710   8.930  18.675  0.00  0.00    +0.000 N 
ATOM      3  C   UNL     1       1.889   7.950  19.710  0.00  0.00    +0.000 C 
ATOM      4  C   UNL     1       1.380   8.131  20.953  0.00  0.00    +0.000 C 
ATOM      5  C   UNL     1       0.559   9.270  21.405  0.00  0.00    +0.000 A 
ATOM      6  C   UNL     1       0.037   9.329  22.716  0.00  0.00    +0.000 A 
ATOM      7  C   UNL     1      -0.792  10.372  23.141  0.00  0.00    +0.000 A 
ATOM      8  C   UNL     1      -1.123  11.396  22.260  0.00  0.00    +0.000 A 
ATOM      9  C   UNL     1      -0.618  11.367  20.966  0.00  0.00    +0.000 A 
ATOM     10  C   UNL     1       0.214  10.309  20.558  0.00  0.00    +0.000 A 
ATOM     11  S   UNL     1       0.771  10.309  18.909  0.00  0.00    +0.000 S 
ATOM     12  O   UNL     1      -0.404  10.171  18.076  0.00  0.00    +0.000 OA
ATOM     13  O   UNL     1       1.656  11.447  18.761  0.00  0.00    +0.000 OA
ENDROOT
BRANCH   3  14
ATOM     14  C   UNL     1       2.613   6.645  19.456  0.00  0.00    +0.000 C 
ATOM     15  O   UNL     1       3.777   6.680  19.047  0.00  0.00    +0.000 OA
ATOM     16  N   UNL     1       1.874   5.495  19.552  0.00  0.00    +0.000 N 
ATOM     17  C   UNL     1       2.381   4.226  19.251  0.00  0.00    +0.000 A 
ATOM     18  C   UNL     1       3.683   3.836  19.557  0.00  0.00    +0.000 A 
ATOM     19  C   UNL     1       4.124   2.583  19.149  0.00  0.00    +0.000 A 
ATOM     20  C   UNL     1       3.261   1.762  18.433  0.00  0.00    +0.000 A 
ATOM     21  C   UNL     1       1.972   2.217  18.206  0.00  0.00    +0.000 A 
ATOM     22  N   UNL     1       1.503   3.411  18.634  0.00  0.00    +0.000 NA
ATOM     23  H   UNL     1       0.869   5.560  19.469  0.00  0.00    +0.000 HD
ENDBRANCH   3  14
BRANCH   4  24
ATOM     24  O   UNL     1       1.583   7.204  21.981  0.00  0.00    +0.000 OA
ATOM     25  H   UNL     1       2.530   7.197  22.241  0.00  0.00    +0.000 HD
ENDBRANCH   4  24
TORSDOF 2
ENDMDL
MODEL 8
REMARK VINA RESULT:      -7.1      1.379      1.559
REMARK  Name = 
REMARK  3 active torsions:
REMARK  status: ('A' for Active; 'I' for Inactive)
REMARK    1  A    between atoms: C_1  and  N_2
REMARK    2  A    between atoms: C_3  and  C_4
REMARK    3  A    between atoms: C_13  and  O_14
REMARK                            x       y       z     vdW  Elec       q    Type
REMARK                         _______ _______ _______ _____ _____    ______ ____
ROOT
ATOM      1  C   UNL     1       1.409   4.425  19.527  0.00  0.00    +0.000 C 
ATOM      2  N   UNL     1       2.535   4.871  18.689  0.00  0.00    +0.000 N 
ATOM      3  C   UNL     1       2.854   6.240  18.392  0.00  0.00    +0.000 C 
ATOM      4  C   UNL     1       3.871   6.566  17.557  0.00  0.00    +0.000 C 
ATOM      5  C   UNL     1       4.731   5.624  16.816  0.00  0.00    +0.000 A 
ATOM      6  C   UNL     1       5.732   6.081  15.930  0.00  0.00    +0.000 A 
ATOM      7  C   UNL     1       6.514   5.202  15.175  0.00  0.00    +0.000 A 
ATOM      8  C   UNL     1       6.318   3.829  15.287  0.00  0.00    +0.000 A 
ATOM      9  C   UNL     1       5.345   3.353  16.156  0.00  0.00    +0.000 A 
ATOM     10  C   UNL     1       4.568   4.253  16.906  0.00  0.00    +0.000 A 
ATOM     11  S   UNL     1       3.333   3.590  17.939  0.00  0.00    +0.000 S 
ATOM     12  O   UNL     1       2.375   2.941  17.070  0.00  0.00    +0.000 OA
ATOM     13  O   UNL     1       4.007   2.848  18.985  0.00  0.00    +0.000 OA
ENDROOT
BRANCH   3  14
ATOM     14  C   UNL     1       2.045   7.388  18.957  0.00  0.00    +0.000 C 
ATOM     15  O   UNL     1       1.793   8.353  18.229  0.00  0.00    +0.000 OA
ATOM     16  N   UNL     1       1.768   7.353  20.299  0.00  0.00    +0.000 N 
ATOM     17  C   UNL     1       1.115   8.388  20.977  0.00  0.00    +0.000 A 
ATOM     18  C   UNL     1       0.071   9.122  20.420  0.00  0.00    +0.000 A 
ATOM     19  C   UNL     1      -0.465  10.185  21.139  0.00  0.00    +0.000 A 
ATOM     20  C   UNL     1       0.068  10.495  22.385  0.00  0.00    +0.000 A 
ATOM     21  C   UNL     1       1.081   9.686  22.876  0.00  0.00    +0.000 A 
ATOM     22  N   UNL     1       1.586   8.619  22.219  0.00  0.00    +0.000 NA
ATOM     23  H   UNL     1       2.347   6.778  20.895  0.00  0.00    +0.000 HD
ENDBRANCH   3  14
BRANCH   4  24
ATOM     24  O   UNL     1       4.218   7.896  17.294  0.00  0.00    +0.000 OA
ATOM     25  H   UNL     1       4.728   7.947  16.456  0.00  0.00    +0.000 HD
ENDBRANCH   4  24
TORSDOF 2
ENDMDL
MODEL 9
REMARK VINA RESULT:      -7.1      3.832      7.819
REMARK  Name = 
REMARK  3 active torsions:
REMARK  status: ('A' for Active; 'I' for Inactive)
REMARK    1  A    between atoms: C_1  and  N_2
REMARK    2  A    between atoms: C_3  and  C_4
REMARK    3  A    between atoms: C_13  and  O_14
REMARK                            x       y       z     vdW  Elec       q    Type
REMARK                         _______ _______ _______ _____ _____    ______ ____
ROOT
ATOM      1  C   UNL     1      -0.347   9.390  20.747  0.00  0.00    +0.000 C 
ATOM      2  N   UNL     1       0.239  10.546  20.046  0.00  0.00    +0.000 N 
ATOM      3  C   UNL     1       1.209  10.468  18.990  0.00  0.00    +0.000 C 
ATOM      4  C   UNL     1       1.749  11.583  18.439  0.00  0.00    +0.000 C 
ATOM      5  C   UNL     1       1.485  12.975  18.846  0.00  0.00    +0.000 A 
ATOM      6  C   UNL     1       2.146  14.062  18.231  0.00  0.00    +0.000 A 
ATOM      7  C   UNL     1       1.951  15.382  18.646  0.00  0.00    +0.000 A 
ATOM      8  C   UNL     1       1.081  15.658  19.696  0.00  0.00    +0.000 A 
ATOM      9  C   UNL     1       0.412  14.609  20.314  0.00  0.00    +0.000 A 
ATOM     10  C   UNL     1       0.622  13.288  19.882  0.00  0.00    +0.000 A 
ATOM     11  S   UNL     1      -0.210  12.017  20.734  0.00  0.00    +0.000 S 
ATOM     12  O   UNL     1       0.299  12.027  22.089  0.00  0.00    +0.000 OA
ATOM     13  O   UNL     1      -1.625  12.186  20.472  0.00  0.00    +0.000 OA
ENDROOT
BRANCH   3  14
ATOM     14  C   UNL     1       1.717   9.139  18.470  0.00  0.00    +0.000 C 
ATOM     15  O   UNL     1       1.620   8.897  17.263  0.00  0.00    +0.000 OA
ATOM     16  N   UNL     1       2.118   8.218  19.402  0.00  0.00    +0.000 N 
ATOM     17  C   UNL     1       2.518   6.918  19.077  0.00  0.00    +0.000 A 
ATOM     18  C   UNL     1       3.259   6.613  17.938  0.00  0.00    +0.000 A 
ATOM     19  C   UNL     1       3.543   5.282  17.655  0.00  0.00    +0.000 A 
ATOM     20  C   UNL     1       3.065   4.292  18.506  0.00  0.00    +0.000 A 
ATOM     21  C   UNL     1       2.368   4.691  19.636  0.00  0.00    +0.000 A 
ATOM     22  N   UNL     1       2.121   5.980  19.960  0.00  0.00    +0.000 NA
ATOM     23  H   UNL     1       1.781   8.314  20.350  0.00  0.00    +0.000 HD
ENDBRANCH   3  14
BRANCH   4  24
ATOM     24  O   UNL     1       2.664  11.520  17.382  0.00  0.00    +0.000 OA
ATOM     25  H   UNL     1       3.516  11.152  17.702  0.00  0.00    +0.000 HD
ENDBRANCH   4  24
TORSDOF 2
ENDMDL
