MODEL 1
REMARK VINA RESULT:      -5.4      0.000      0.000
REMARK  Name = 
REMARK  2 active torsions:
REMARK  status: ('A' for Active; 'I' for Inactive)
REMARK    1  A    between atoms: C_1  and  N_2
REMARK    2  A    between atoms: N_2  and  C_3
REMARK                            x       y       z     vdW  Elec       q    Type
REMARK                         _______ _______ _______ _____ _____    ______ ____
ROOT
ATOM      1  C   UNL     1       4.650   3.639  18.629  0.00  0.00    +0.000 A 
ATOM      2  C   UNL     1       4.159   3.413  17.359  0.00  0.00    +0.000 A 
ATOM      3  S   UNL     1       5.031   4.281  16.155  0.00  0.00    +0.000 S 
ATOM      4  C   UNL     1       6.052   4.956  17.324  0.00  0.00    +0.000 A 
ATOM      5  C   UNL     1       7.133   5.852  17.048  0.00  0.00    +0.000 A 
ATOM      6  O   UNL     1       7.488   6.267  15.949  0.00  0.00    +0.000 OA
ATOM      7  N   UNL     1       7.798   6.228  18.195  0.00  0.00    +0.000 N 
ATOM      8  C   UNL     1       7.440   5.781  19.445  0.00  0.00    +0.000 A 
ATOM      9  N   UNL     1       6.468   4.972  19.727  0.00  0.00    +0.000 NA
ATOM     10  C   UNL     1       5.743   4.547  18.594  0.00  0.00    +0.000 A 
ATOM     11  H   UNL     1       8.577   6.854  18.066  0.00  0.00    +0.000 HD
ENDROOT
BRANCH   1  13
ATOM     12  C   UNL     1       2.746   3.016  20.040  0.00  0.00    +0.000 C 
ATOM     13  N   UNL     1       4.169   3.091  19.778  0.00  0.00    +0.000 N 
ATOM     14  H   UNL     1       4.697   2.296  20.140  0.00  0.00    +0.000 HD
ENDBRANCH   1  13
TORSDOF 1
ENDMDL
MODEL 2
REMARK VINA RESULT:      -5.4      1.165      1.188
REMARK  Name = 
REMARK  2 active torsions:
REMARK  status: ('A' for Active; 'I' for Inactive)
REMARK    1  A    between atoms: C_1  and  N_2
REMARK    2  A    between atoms: N_2  and  C_3
REMARK                            x       y       z     vdW  Elec       q    Type
REMARK                         _______ _______ _______ _____ _____    ______ ____
ROOT
ATOM      1  C   UNL     1       5.092   4.233  18.079  0.00  0.00    +0.000 A 
ATOM      2  C   UNL     1       4.552   4.618  16.868  0.00  0.00    +0.000 A 
ATOM      3  S   UNL     1       5.350   5.989  16.201  0.00  0.00    +0.000 S 
ATOM      4  C   UNL     1       6.403   6.070  17.524  0.00  0.00    +0.000 A 
ATOM      5  C   UNL     1       7.449   7.034  17.680  0.00  0.00    +0.000 A 
ATOM      6  O   UNL     1       7.746   7.937  16.903  0.00  0.00    +0.000 OA
ATOM      7  N   UNL     1       8.153   6.848  18.850  0.00  0.00    +0.000 N 
ATOM      8  C   UNL     1       7.861   5.846  19.745  0.00  0.00    +0.000 A 
ATOM      9  N   UNL     1       6.922   4.960  19.632  0.00  0.00    +0.000 NA
ATOM     10  C   UNL     1       6.160   5.095  18.453  0.00  0.00    +0.000 A 
ATOM     11  H   UNL     1       8.911   7.492  19.015  0.00  0.00    +0.000 HD
ENDROOT
BRANCH   1  13
ATOM     12  C   UNL     1       3.271   2.979  19.136  0.00  0.00    +0.000 C 
ATOM     13  N   UNL     1       4.675   3.185  18.840  0.00  0.00    +0.000 N 
ATOM     14  H   UNL     1       5.203   2.319  18.724  0.00  0.00    +0.000 HD
ENDBRANCH   1  13
TORSDOF 1
ENDMDL
MODEL 3
REMARK VINA RESULT:      -5.3      2.177      2.603
REMARK  Name = 
REMARK  2 active torsions:
REMARK  status: ('A' for Active; 'I' for Inactive)
REMARK    1  A    between atoms: C_1  and  N_2
REMARK    2  A    between atoms: N_2  and  C_3
REMARK                            x       y       z     vdW  Elec       q    Type
REMARK                         _______ _______ _______ _____ _____    ______ ____
ROOT
ATOM      1  C   UNL     1       4.740   3.490  17.864  0.00  0.00    +0.000 A 
ATOM      2  C   UNL     1       4.758   4.188  19.055  0.00  0.00    +0.000 A 
ATOM      3  S   UNL     1       5.803   5.555  18.998  0.00  0.00    +0.000 S 
ATOM      4  C   UNL     1       6.229   5.212  17.397  0.00  0.00    +0.000 A 
ATOM      5  C   UNL     1       7.130   5.993  16.604  0.00  0.00    +0.000 A 
ATOM      6  O   UNL     1       7.725   7.010  16.946  0.00  0.00    +0.000 OA
ATOM      7  N   UNL     1       7.276   5.481  15.333  0.00  0.00    +0.000 N 
ATOM      8  C   UNL     1       6.623   4.349  14.905  0.00  0.00    +0.000 A 
ATOM      9  N   UNL     1       5.804   3.622  15.597  0.00  0.00    +0.000 NA
ATOM     10  C   UNL     1       5.609   4.092  16.913  0.00  0.00    +0.000 A 
ATOM     11  H   UNL     1       7.893   5.992  14.721  0.00  0.00    +0.000 HD
ENDROOT
BRANCH   1  13
ATOM     12  C   UNL     1       2.623   2.265  18.019  0.00  0.00    +0.000 C 
ATOM     13  N   UNL     1       4.009   2.372  17.607  0.00  0.00    +0.000 N 
ATOM     14  H   UNL     1       4.213   1.907  16.722  0.00  0.00    +0.000 HD
ENDBRANCH   1  13
TORSDOF 1
ENDMDL
MODEL 4
REMARK VINA RESULT:      -5.3      3.407      4.330
REMARK  Name = 
REMARK  2 active torsions:
REMARK  status: ('A' for Active; 'I' for Inactive)
REMARK    1  A    between atoms: C_1  and  N_2
REMARK    2  A    between atoms: N_2  and  C_3
REMARK                            x       y       z     vdW  Elec       q    Type
REMARK                         _______ _______ _______ _____ _____    ______ ____
ROOT
ATOM      1  C   UNL     1       2.141   5.398  20.357  0.00  0.00    +0.000 A 
ATOM      2  C   UNL     1       1.051   4.558  20.472  0.00  0.00    +0.000 A 
ATOM      3  S   UNL     1       1.388   2.966  19.910  0.00  0.00    +0.000 S 
ATOM      4  C   UNL     1       2.975   3.400  19.513  0.00  0.00    +0.000 A 
ATOM      5  C   UNL     1       3.952   2.513  18.957  0.00  0.00    +0.000 A 
ATOM      6  O   UNL     1       3.803   1.325  18.684  0.00  0.00    +0.000 OA
ATOM      7  N   UNL     1       5.161   3.140  18.750  0.00  0.00    +0.000 N 
ATOM      8  C   UNL     1       5.375   4.465  19.048  0.00  0.00    +0.000 A 
ATOM      9  N   UNL     1       4.513   5.292  19.550  0.00  0.00    +0.000 NA
ATOM     10  C   UNL     1       3.249   4.713  19.787  0.00  0.00    +0.000 A 
ATOM     11  H   UNL     1       5.895   2.565  18.367  0.00  0.00    +0.000 HD
ENDROOT
BRANCH   1  13
ATOM     12  C   UNL     1       1.932   7.766  19.762  0.00  0.00    +0.000 C 
ATOM     13  N   UNL     1       2.178   6.708  20.722  0.00  0.00    +0.000 N 
ATOM     14  H   UNL     1       1.831   6.914  21.659  0.00  0.00    +0.000 HD
ENDBRANCH   1  13
TORSDOF 1
ENDMDL
MODEL 5
REMARK VINA RESULT:      -5.3      3.593      5.064
REMARK  Name = 
REMARK  2 active torsions:
REMARK  status: ('A' for Active; 'I' for Inactive)
REMARK    1  A    between atoms: C_1  and  N_2
REMARK    2  A    between atoms: N_2  and  C_3
REMARK                            x       y       z     vdW  Elec       q    Type
REMARK                         _______ _______ _______ _____ _____    ______ ____
ROOT
ATOM      1  C   UNL     1       3.080   5.496  19.702  0.00  0.00    +0.000 A 
ATOM      2  C   UNL     1       4.433   5.471  19.425  0.00  0.00    +0.000 A 
ATOM      3  S   UNL     1       4.960   3.931  18.868  0.00  0.00    +0.000 S 
ATOM      4  C   UNL     1       3.394   3.302  19.000  0.00  0.00    +0.000 A 
ATOM      5  C   UNL     1       3.018   1.962  18.668  0.00  0.00    +0.000 A 
ATOM      6  O   UNL     1       3.749   1.072  18.244  0.00  0.00    +0.000 OA
ATOM      7  N   UNL     1       1.673   1.738  18.864  0.00  0.00    +0.000 N 
ATOM      8  C   UNL     1       0.816   2.708  19.328  0.00  0.00    +0.000 A 
ATOM      9  N   UNL     1       1.124   3.927  19.638  0.00  0.00    +0.000 NA
ATOM     10  C   UNL     1       2.492   4.224  19.460  0.00  0.00    +0.000 A 
ATOM     11  H   UNL     1       1.343   0.812  18.639  0.00  0.00    +0.000 HD
ENDROOT
BRANCH   1  13
ATOM     12  C   UNL     1       2.140   7.725  19.310  0.00  0.00    +0.000 C 
ATOM     13  N   UNL     1       2.379   6.571  20.153  0.00  0.00    +0.000 N 
ATOM     14  H   UNL     1       1.609   6.358  20.788  0.00  0.00    +0.000 HD
ENDBRANCH   1  13
TORSDOF 1
ENDMDL
MODEL 6
REMARK VINA RESULT:      -5.3      1.455      1.455
REMARK  Name = 
REMARK  2 active torsions:
REMARK  status: ('A' for Active; 'I' for Inactive)
REMARK    1  A    between atoms: C_1  and  N_2
REMARK    2  A    between atoms: N_2  and  C_3
REMARK                            x       y       z     vdW  Elec       q    Type
REMARK                         _______ _______ _______ _____ _____    ______ ____
ROOT
ATOM      1  C   UNL     1       4.108   5.009  18.991  0.00  0.00    +0.000 A 
ATOM      2  C   UNL     1       3.474   4.613  17.831  0.00  0.00    +0.000 A 
ATOM      3  S   UNL     1       4.583   4.281  16.558  0.00  0.00    +0.000 S 
ATOM      4  C   UNL     1       5.899   4.667  17.549  0.00  0.00    +0.000 A 
ATOM      5  C   UNL     1       7.272   4.607  17.149  0.00  0.00    +0.000 A 
ATOM      6  O   UNL     1       7.709   4.274  16.052  0.00  0.00    +0.000 OA
ATOM      7  N   UNL     1       8.124   4.965  18.170  0.00  0.00    +0.000 N 
ATOM      8  C   UNL     1       7.679   5.337  19.418  0.00  0.00    +0.000 A 
ATOM      9  N   UNL     1       6.446   5.402  19.810  0.00  0.00    +0.000 NA
ATOM     10  C   UNL     1       5.518   5.046  18.809  0.00  0.00    +0.000 A 
ATOM     11  H   UNL     1       9.108   4.935  17.953  0.00  0.00    +0.000 HD
ENDROOT
BRANCH   1  13
ATOM     12  C   UNL     1       2.060   5.505  20.241  0.00  0.00    +0.000 C 
ATOM     13  N   UNL     1       3.497   5.334  20.162  0.00  0.00    +0.000 N 
ATOM     14  H   UNL     1       3.910   4.928  21.002  0.00  0.00    +0.000 HD
ENDBRANCH   1  13
TORSDOF 1
ENDMDL
MODEL 7
REMARK VINA RESULT:      -5.2      3.136      5.120
REMARK  Name = 
REMARK  2 active torsions:
REMARK  status: ('A' for Active; 'I' for Inactive)
REMARK    1  A    between atoms: C_1  and  N_2
REMARK    2  A    between atoms: N_2  and  C_3
REMARK                            x       y       z     vdW  Elec       q    Type
REMARK                         _______ _______ _______ _____ _____    ______ ____
ROOT
ATOM      1  C   UNL     1       4.126   4.661  18.823  0.00  0.00    +0.000 A 
ATOM      2  C   UNL     1       4.162   4.245  17.507  0.00  0.00    +0.000 A 
ATOM      3  S   UNL     1       2.822   3.245  17.098  0.00  0.00    +0.000 S 
ATOM      4  C   UNL     1       2.203   3.364  18.669  0.00  0.00    +0.000 A 
ATOM      5  C   UNL     1       0.992   2.750  19.121  0.00  0.00    +0.000 A 
ATOM      6  O   UNL     1       0.224   2.055  18.463  0.00  0.00    +0.000 OA
ATOM      7  N   UNL     1       0.733   3.031  20.445  0.00  0.00    +0.000 N 
ATOM      8  C   UNL     1       1.560   3.811  21.218  0.00  0.00    +0.000 A 
ATOM      9  N   UNL     1       2.661   4.380  20.839  0.00  0.00    +0.000 NA
ATOM     10  C   UNL     1       2.987   4.131  19.489  0.00  0.00    +0.000 A 
ATOM     11  H   UNL     1      -0.113   2.633  20.822  0.00  0.00    +0.000 HD
ENDROOT
BRANCH   1  13
ATOM     12  C   UNL     1       6.457   5.358  19.120  0.00  0.00    +0.000 C 
ATOM     13  N   UNL     1       5.044   5.460  19.431  0.00  0.00    +0.000 N 
ATOM     14  H   UNL     1       4.734   6.411  19.633  0.00  0.00    +0.000 HD
ENDBRANCH   1  13
TORSDOF 1
ENDMDL
MODEL 8
REMARK VINA RESULT:      -5.2      2.926      4.591
REMARK  Name = 
REMARK  2 active torsions:
REMARK  status: ('A' for Active; 'I' for Inactive)
REMARK    1  A    between atoms: C_1  and  N_2
REMARK    2  A    between atoms: N_2  and  C_3
REMARK                            x       y       z     vdW  Elec       q    Type
REMARK                         _______ _______ _______ _____ _____    ______ ____
ROOT
ATOM      1  C   UNL     1       5.028   4.408  17.905  0.00  0.00    +0.000 A 
ATOM      2  C   UNL     1       4.293   5.458  17.393  0.00  0.00    +0.000 A 
ATOM      3  S   UNL     1       2.798   5.676  18.217  0.00  0.00    +0.000 S 
ATOM      4  C   UNL     1       3.129   4.373  19.246  0.00  0.00    +0.000 A 
ATOM      5  C   UNL     1       2.271   3.921  20.298  0.00  0.00    +0.000 A 
ATOM      6  O   UNL     1       1.184   4.391  20.620  0.00  0.00    +0.000 OA
ATOM      7  N   UNL     1       2.807   2.849  20.978  0.00  0.00    +0.000 N 
ATOM      8  C   UNL     1       4.025   2.296  20.658  0.00  0.00    +0.000 A 
ATOM      9  N   UNL     1       4.823   2.681  19.712  0.00  0.00    +0.000 NA
ATOM     10  C   UNL     1       4.333   3.779  18.975  0.00  0.00    +0.000 A 
ATOM     11  H   UNL     1       2.252   2.489  21.739  0.00  0.00    +0.000 HD
ENDROOT
BRANCH   1  13
ATOM     12  C   UNL     1       7.453   4.735  17.786  0.00  0.00    +0.000 C 
ATOM     13  N   UNL     1       6.247   3.999  17.463  0.00  0.00    +0.000 N 
ATOM     14  H   UNL     1       6.382   2.988  17.415  0.00  0.00    +0.000 HD
ENDBRANCH   1  13
TORSDOF 1
ENDMDL
MODEL 9
REMARK VINA RESULT:      -5.2      2.465      4.378
REMARK  Name = 
REMARK  2 active torsions:
REMARK  status: ('A' for Active; 'I' for Inactive)
REMARK    1  A    between atoms: C_1  and  N_2
REMARK    2  A    between atoms: N_2  and  C_3
REMARK                            x       y       z     vdW  Elec       q    Type
REMARK                         _______ _______ _______ _____ _____    ______ ____
ROOT
ATOM      1  C   UNL     1       5.618   5.112  18.923  0.00  0.00    +0.000 A 
ATOM      2  C   UNL     1       5.115   6.153  18.169  0.00  0.00    +0.000 A 
ATOM      3  S   UNL     1       3.531   5.830  17.579  0.00  0.00    +0.000 S 
ATOM      4  C   UNL     1       3.521   4.309  18.321  0.00  0.00    +0.000 A 
ATOM      5  C   UNL     1       2.431   3.384  18.277  0.00  0.00    +0.000 A 
ATOM      6  O   UNL     1       1.353   3.536  17.710  0.00  0.00    +0.000 OA
ATOM      7  N   UNL     1       2.702   2.232  18.983  0.00  0.00    +0.000 N 
ATOM      8  C   UNL     1       3.891   2.022  19.640  0.00  0.00    +0.000 A 
ATOM      9  N   UNL     1       4.896   2.838  19.697  0.00  0.00    +0.000 NA
ATOM     10  C   UNL     1       4.684   4.042  18.993  0.00  0.00    +0.000 A 
ATOM     11  H   UNL     1       1.967   1.541  18.998  0.00  0.00    +0.000 HD
ENDROOT
BRANCH   1  13
ATOM     12  C   UNL     1       7.920   5.938  19.080  0.00  0.00    +0.000 C 
ATOM     13  N   UNL     1       6.839   5.079  19.522  0.00  0.00    +0.000 N 
ATOM     14  H   UNL     1       6.831   4.913  20.529  0.00  0.00    +0.000 HD
ENDBRANCH   1  13
TORSDOF 1
ENDMDL
