MODEL 1
REMARK VINA RESULT:      -5.7      0.000      0.000
REMARK  Name = 
REMARK  16 active torsions:
REMARK  status: ('A' for Active; 'I' for Inactive)
REMARK    1  A    between atoms: C_1  and  C_2
REMARK    2  A    between atoms: C_2  and  C_3
REMARK    3  A    between atoms: C_3  and  C_4
REMARK    4  A    between atoms: C_4  and  O_5
REMARK    5  A    between atoms: O_5  and  C_6
REMARK    6  A    between atoms: C_6  and  O_7
REMARK    7  A    between atoms: C_6  and  P_12
REMARK    8  A    between atoms: O_7  and  C_8
REMARK    9  A    between atoms: C_8  and  C_9
REMARK   10  A    between atoms: C_9  and  C_10
REMARK   11  A    between atoms: C_10  and  C_11
REMARK   12  A    between atoms: P_12  and  O_14
REMARK   13  A    between atoms: P_12  and  C_15
REMARK   14  A    between atoms: C_15  and  C_16
REMARK   15  A    between atoms: C_16  and  C_17
REMARK   16  A    between atoms: C_17  and  N_18
REMARK                            x       y       z     vdW  Elec       q    Type
REMARK                         _______ _______ _______ _____ _____    ______ ____
ROOT
ATOM      1  C   UNL     1       6.716   5.780  16.242  0.00  0.00    +0.000 C 
ENDROOT
BRANCH   1   2
ATOM      2  P   UNL     1       5.663   5.320  17.666  0.00  0.00    +0.000 P 
ATOM      3  O   UNL     1       4.564   4.752  16.747  0.00  0.00    +0.000 OA
BRANCH   2   4
ATOM      4  O   UNL     1       6.663   4.041  18.022  0.00  0.00    +0.000 OA
ATOM      5  H   UNL     1       7.474   4.114  17.461  0.00  0.00    +0.000 HD
ENDBRANCH   2   4
BRANCH   2   6
ATOM      6  C   UNL     1       4.610   4.860  19.091  0.00  0.00    +0.000 C 
BRANCH   6   7
ATOM      7  C   UNL     1       4.792   3.418  19.553  0.00  0.00    +0.000 C 
BRANCH   7   8
ATOM      8  C   UNL     1       3.633   2.514  19.130  0.00  0.00    +0.000 C 
BRANCH   8   9
ATOM      9  N   UNL     1       3.912   1.822  17.877  0.00  0.00    +0.000 NA
ATOM     10  H   UNL     1       4.123   2.502  17.145  0.00  0.00    +0.000 HD
ATOM     11  H   UNL     1       3.052   1.364  17.559  0.00  0.00    +0.000 HD
ENDBRANCH   8   9
ENDBRANCH   7   8
ENDBRANCH   6   7
ENDBRANCH   2   6
ENDBRANCH   1   2
BRANCH   1  12
ATOM     12  O   UNL     1       7.811   6.589  16.738  0.00  0.00    +0.000 OA
BRANCH  12  13
ATOM     13  C   UNL     1       7.385   7.432  17.806  0.00  0.00    +0.000 C 
BRANCH  13  14
ATOM     14  C   UNL     1       7.883   8.861  17.591  0.00  0.00    +0.000 C 
BRANCH  14  16
ATOM     15  C   UNL     1       9.285  10.697  18.666  0.00  0.00    +0.000 C 
ATOM     16  C   UNL     1       8.808   9.256  18.739  0.00  0.00    +0.000 C 
ENDBRANCH  14  16
ENDBRANCH  13  14
ENDBRANCH  12  13
ENDBRANCH   1  12
BRANCH   1  17
ATOM     17  O   UNL     1       7.160   4.595  15.564  0.00  0.00    +0.000 OA
BRANCH  17  18
ATOM     18  C   UNL     1       7.041   4.677  14.148  0.00  0.00    +0.000 C 
BRANCH  18  19
ATOM     19  C   UNL     1       5.787   3.938  13.690  0.00  0.00    +0.000 C 
BRANCH  19  20
ATOM     20  C   UNL     1       5.936   3.353  12.282  0.00  0.00    +0.000 C 
ATOM     21  C   UNL     1       4.590   3.193  11.592  0.00  0.00    +0.000 C 
ENDBRANCH  19  20
ENDBRANCH  18  19
ENDBRANCH  17  18
ENDBRANCH   1  17
TORSDOF 14
ENDMDL
MODEL 2
REMARK VINA RESULT:      -5.7      2.744      6.144
REMARK  Name = 
REMARK  16 active torsions:
REMARK  status: ('A' for Active; 'I' for Inactive)
REMARK    1  A    between atoms: C_1  and  C_2
REMARK    2  A    between atoms: C_2  and  C_3
REMARK    3  A    between atoms: C_3  and  C_4
REMARK    4  A    between atoms: C_4  and  O_5
REMARK    5  A    between atoms: O_5  and  C_6
REMARK    6  A    between atoms: C_6  and  O_7
REMARK    7  A    between atoms: C_6  and  P_12
REMARK    8  A    between atoms: O_7  and  C_8
REMARK    9  A    between atoms: C_8  and  C_9
REMARK   10  A    between atoms: C_9  and  C_10
REMARK   11  A    between atoms: C_10  and  C_11
REMARK   12  A    between atoms: P_12  and  O_14
REMARK   13  A    between atoms: P_12  and  C_15
REMARK   14  A    between atoms: C_15  and  C_16
REMARK   15  A    between atoms: C_16  and  C_17
REMARK   16  A    between atoms: C_17  and  N_18
REMARK                            x       y       z     vdW  Elec       q    Type
REMARK                         _______ _______ _______ _____ _____    ______ ____
ROOT
ATOM      1  C   UNL     1       3.617   3.756  17.961  0.00  0.00    +0.000 C 
ENDROOT
BRANCH   1   2
ATOM      2  P   UNL     1       5.064   4.535  18.765  0.00  0.00    +0.000 P 
ATOM      3  O   UNL     1       4.170   5.367  19.705  0.00  0.00    +0.000 OA
BRANCH   2   4
ATOM      4  O   UNL     1       5.396   3.127  19.584  0.00  0.00    +0.000 OA
ATOM      5  H   UNL     1       4.586   2.559  19.570  0.00  0.00    +0.000 HD
ENDBRANCH   2   4
BRANCH   2   6
ATOM      6  C   UNL     1       6.512   5.314  19.571  0.00  0.00    +0.000 C 
BRANCH   6   7
ATOM      7  C   UNL     1       7.656   5.629  18.614  0.00  0.00    +0.000 C 
BRANCH   7   8
ATOM      8  C   UNL     1       7.413   6.906  17.808  0.00  0.00    +0.000 C 
BRANCH   8   9
ATOM      9  N   UNL     1       7.610   6.693  16.378  0.00  0.00    +0.000 NA
ATOM     10  H   UNL     1       8.152   5.841  16.226  0.00  0.00    +0.000 HD
ATOM     11  H   UNL     1       8.208   7.443  16.016  0.00  0.00    +0.000 HD
ENDBRANCH   8   9
ENDBRANCH   7   8
ENDBRANCH   6   7
ENDBRANCH   2   6
ENDBRANCH   1   2
BRANCH   1  12
ATOM     12  O   UNL     1       3.860   3.730  16.532  0.00  0.00    +0.000 OA
BRANCH  12  13
ATOM     13  C   UNL     1       5.089   4.375  16.208  0.00  0.00    +0.000 C 
BRANCH  13  14
ATOM     14  C   UNL     1       5.904   3.518  15.239  0.00  0.00    +0.000 C 
BRANCH  14  16
ATOM     15  C   UNL     1       6.151   3.536  12.702  0.00  0.00    +0.000 C 
ATOM     16  C   UNL     1       6.236   4.335  13.993  0.00  0.00    +0.000 C 
ENDBRANCH  14  16
ENDBRANCH  13  14
ENDBRANCH  12  13
ENDBRANCH   1  12
BRANCH   1  17
ATOM     17  O   UNL     1       3.399   2.449  18.513  0.00  0.00    +0.000 OA
BRANCH  17  18
ATOM     18  C   UNL     1       2.031   2.179  18.802  0.00  0.00    +0.000 C 
BRANCH  18  19
ATOM     19  C   UNL     1       1.258   3.491  18.916  0.00  0.00    +0.000 C 
BRANCH  19  20
ATOM     20  C   UNL     1       0.852   3.805  20.359  0.00  0.00    +0.000 C 
ATOM     21  C   UNL     1       1.559   2.897  21.354  0.00  0.00    +0.000 C 
ENDBRANCH  19  20
ENDBRANCH  18  19
ENDBRANCH  17  18
ENDBRANCH   1  17
TORSDOF 14
ENDMDL
MODEL 3
REMARK VINA RESULT:      -5.6      1.944      5.610
REMARK  Name = 
REMARK  16 active torsions:
REMARK  status: ('A' for Active; 'I' for Inactive)
REMARK    1  A    between atoms: C_1  and  C_2
REMARK    2  A    between atoms: C_2  and  C_3
REMARK    3  A    between atoms: C_3  and  C_4
REMARK    4  A    between atoms: C_4  and  O_5
REMARK    5  A    between atoms: O_5  and  C_6
REMARK    6  A    between atoms: C_6  and  O_7
REMARK    7  A    between atoms: C_6  and  P_12
REMARK    8  A    between atoms: O_7  and  C_8
REMARK    9  A    between atoms: C_8  and  C_9
REMARK   10  A    between atoms: C_9  and  C_10
REMARK   11  A    between atoms: C_10  and  C_11
REMARK   12  A    between atoms: P_12  and  O_14
REMARK   13  A    between atoms: P_12  and  C_15
REMARK   14  A    between atoms: C_15  and  C_16
REMARK   15  A    between atoms: C_16  and  C_17
REMARK   16  A    between atoms: C_17  and  N_18
REMARK                            x       y       z     vdW  Elec       q    Type
REMARK                         _______ _______ _______ _____ _____    ______ ____
ROOT
ATOM      1  C   UNL     1       6.688   4.420  16.524  0.00  0.00    +0.000 C 
ENDROOT
BRANCH   1   2
ATOM      2  P   UNL     1       5.189   4.472  17.573  0.00  0.00    +0.000 P 
ATOM      3  O   UNL     1       4.504   5.496  16.647  0.00  0.00    +0.000 OA
BRANCH   2   4
ATOM      4  O   UNL     1       4.721   2.976  17.018  0.00  0.00    +0.000 OA
ATOM      5  H   UNL     1       5.382   2.671  16.349  0.00  0.00    +0.000 HD
ENDBRANCH   2   4
BRANCH   2   6
ATOM      6  C   UNL     1       3.689   4.524  18.621  0.00  0.00    +0.000 C 
BRANCH   6   7
ATOM      7  C   UNL     1       3.668   5.683  19.611  0.00  0.00    +0.000 C 
BRANCH   7   8
ATOM      8  C   UNL     1       2.439   6.579  19.440  0.00  0.00    +0.000 C 
BRANCH   8   9
ATOM      9  N   UNL     1       1.935   7.061  20.721  0.00  0.00    +0.000 NA
ATOM     10  H   UNL     1       2.696   7.101  21.401  0.00  0.00    +0.000 HD
ATOM     11  H   UNL     1       1.289   6.362  21.101  0.00  0.00    +0.000 HD
ENDBRANCH   8   9
ENDBRANCH   7   8
ENDBRANCH   6   7
ENDBRANCH   2   6
ENDBRANCH   1   2
BRANCH   1  12
ATOM     12  O   UNL     1       6.453   5.260  15.367  0.00  0.00    +0.000 OA
BRANCH  12  13
ATOM     13  C   UNL     1       6.789   4.578  14.160  0.00  0.00    +0.000 C 
BRANCH  13  14
ATOM     14  C   UNL     1       5.620   3.710  13.694  0.00  0.00    +0.000 C 
BRANCH  14  16
ATOM     15  C   UNL     1       4.442   3.229  11.486  0.00  0.00    +0.000 C 
ATOM     16  C   UNL     1       5.769   3.415  12.203  0.00  0.00    +0.000 C 
ENDBRANCH  14  16
ENDBRANCH  13  14
ENDBRANCH  12  13
ENDBRANCH   1  12
BRANCH   1  17
ATOM     17  O   UNL     1       7.830   4.833  17.290  0.00  0.00    +0.000 OA
BRANCH  17  18
ATOM     18  C   UNL     1       7.493   5.335  18.580  0.00  0.00    +0.000 C 
BRANCH  18  19
ATOM     19  C   UNL     1       8.093   6.726  18.766  0.00  0.00    +0.000 C 
BRANCH  19  20
ATOM     20  C   UNL     1       7.684   7.692  17.649  0.00  0.00    +0.000 C 
ATOM     21  C   UNL     1       8.194   9.101  17.908  0.00  0.00    +0.000 C 
ENDBRANCH  19  20
ENDBRANCH  18  19
ENDBRANCH  17  18
ENDBRANCH   1  17
TORSDOF 14
ENDMDL
MODEL 4
REMARK VINA RESULT:      -5.5      3.448      6.071
REMARK  Name = 
REMARK  16 active torsions:
REMARK  status: ('A' for Active; 'I' for Inactive)
REMARK    1  A    between atoms: C_1  and  C_2
REMARK    2  A    between atoms: C_2  and  C_3
REMARK    3  A    between atoms: C_3  and  C_4
REMARK    4  A    between atoms: C_4  and  O_5
REMARK    5  A    between atoms: O_5  and  C_6
REMARK    6  A    between atoms: C_6  and  O_7
REMARK    7  A    between atoms: C_6  and  P_12
REMARK    8  A    between atoms: O_7  and  C_8
REMARK    9  A    between atoms: C_8  and  C_9
REMARK   10  A    between atoms: C_9  and  C_10
REMARK   11  A    between atoms: C_10  and  C_11
REMARK   12  A    between atoms: P_12  and  O_14
REMARK   13  A    between atoms: P_12  and  C_15
REMARK   14  A    between atoms: C_15  and  C_16
REMARK   15  A    between atoms: C_16  and  C_17
REMARK   16  A    between atoms: C_17  and  N_18
REMARK                            x       y       z     vdW  Elec       q    Type
REMARK                         _______ _______ _______ _____ _____    ______ ____
ROOT
ATOM      1  C   UNL     1       3.451   4.226  18.330  0.00  0.00    +0.000 C 
ENDROOT
BRANCH   1   2
ATOM      2  P   UNL     1       5.222   4.415  17.910  0.00  0.00    +0.000 P 
ATOM      3  O   UNL     1       5.667   3.863  19.279  0.00  0.00    +0.000 OA
BRANCH   2   4
ATOM      4  O   UNL     1       5.145   3.102  16.895  0.00  0.00    +0.000 OA
ATOM      5  H   UNL     1       4.200   2.824  16.815  0.00  0.00    +0.000 HD
ENDBRANCH   2   4
BRANCH   2   6
ATOM      6  C   UNL     1       6.993   4.604  17.491  0.00  0.00    +0.000 C 
BRANCH   6   7
ATOM      7  C   UNL     1       7.458   6.054  17.410  0.00  0.00    +0.000 C 
BRANCH   7   8
ATOM      8  C   UNL     1       7.909   6.603  18.765  0.00  0.00    +0.000 C 
BRANCH   8   9
ATOM      9  N   UNL     1       8.240   5.535  19.702  0.00  0.00    +0.000 NA
ATOM     10  H   UNL     1       8.882   5.885  20.414  0.00  0.00    +0.000 HD
ATOM     11  H   UNL     1       8.777   4.819  19.203  0.00  0.00    +0.000 HD
ENDBRANCH   8   9
ENDBRANCH   7   8
ENDBRANCH   6   7
ENDBRANCH   2   6
ENDBRANCH   1   2
BRANCH   1  12
ATOM     12  O   UNL     1       2.736   5.358  17.775  0.00  0.00    +0.000 OA
BRANCH  12  13
ATOM     13  C   UNL     1       2.735   6.460  18.681  0.00  0.00    +0.000 C 
BRANCH  13  14
ATOM     14  C   UNL     1       2.517   7.772  17.928  0.00  0.00    +0.000 C 
BRANCH  14  16
ATOM     15  C   UNL     1       0.938   9.770  18.003  0.00  0.00    +0.000 C 
ATOM     16  C   UNL     1       1.711   8.731  18.799  0.00  0.00    +0.000 C 
ENDBRANCH  14  16
ENDBRANCH  13  14
ENDBRANCH  12  13
ENDBRANCH   1  12
BRANCH   1  17
ATOM     17  O   UNL     1       2.968   2.967  17.839  0.00  0.00    +0.000 OA
BRANCH  17  18
ATOM     18  C   UNL     1       2.375   2.157  18.849  0.00  0.00    +0.000 C 
BRANCH  18  19
ATOM     19  C   UNL     1       0.948   2.628  19.119  0.00  0.00    +0.000 C 
BRANCH  19  20
ATOM     20  C   UNL     1       0.816   3.347  20.465  0.00  0.00    +0.000 C 
ATOM     21  C   UNL     1       1.698   2.714  21.531  0.00  0.00    +0.000 C 
ENDBRANCH  19  20
ENDBRANCH  18  19
ENDBRANCH  17  18
ENDBRANCH   1  17
TORSDOF 14
ENDMDL
MODEL 5
REMARK VINA RESULT:      -5.4      2.234      5.039
REMARK  Name = 
REMARK  16 active torsions:
REMARK  status: ('A' for Active; 'I' for Inactive)
REMARK    1  A    between atoms: C_1  and  C_2
REMARK    2  A    between atoms: C_2  and  C_3
REMARK    3  A    between atoms: C_3  and  C_4
REMARK    4  A    between atoms: C_4  and  O_5
REMARK    5  A    between atoms: O_5  and  C_6
REMARK    6  A    between atoms: C_6  and  O_7
REMARK    7  A    between atoms: C_6  and  P_12
REMARK    8  A    between atoms: O_7  and  C_8
REMARK    9  A    between atoms: C_8  and  C_9
REMARK   10  A    between atoms: C_9  and  C_10
REMARK   11  A    between atoms: C_10  and  C_11
REMARK   12  A    between atoms: P_12  and  O_14
REMARK   13  A    between atoms: P_12  and  C_15
REMARK   14  A    between atoms: C_15  and  C_16
REMARK   15  A    between atoms: C_16  and  C_17
REMARK   16  A    between atoms: C_17  and  N_18
REMARK                            x       y       z     vdW  Elec       q    Type
REMARK                         _______ _______ _______ _____ _____    ______ ____
ROOT
ATOM      1  C   UNL     1       5.276   4.498  17.099  0.00  0.00    +0.000 C 
ENDROOT
BRANCH   1   2
ATOM      2  P   UNL     1       5.969   4.344  15.412  0.00  0.00    +0.000 P 
ATOM      3  O   UNL     1       5.746   5.841  15.119  0.00  0.00    +0.000 OA
BRANCH   2   4
ATOM      4  O   UNL     1       7.507   4.228  16.029  0.00  0.00    +0.000 OA
ATOM      5  H   UNL     1       7.509   3.534  16.734  0.00  0.00    +0.000 HD
ENDBRANCH   2   4
BRANCH   2   6
ATOM      6  C   UNL     1       6.662   4.190  13.725  0.00  0.00    +0.000 C 
BRANCH   6   7
ATOM      7  C   UNL     1       5.741   3.476  12.741  0.00  0.00    +0.000 C 
BRANCH   7   8
ATOM      8  C   UNL     1       6.512   2.703  11.670  0.00  0.00    +0.000 C 
BRANCH   8   9
ATOM      9  N   UNL     1       6.023   1.336  11.528  0.00  0.00    +0.000 NA
ATOM     10  H   UNL     1       6.523   0.866  10.773  0.00  0.00    +0.000 HD
ATOM     11  H   UNL     1       5.050   1.370  11.207  0.00  0.00    +0.000 HD
ENDBRANCH   8   9
ENDBRANCH   7   8
ENDBRANCH   6   7
ENDBRANCH   2   6
ENDBRANCH   1   2
BRANCH   1  12
ATOM     12  O   UNL     1       5.561   5.836  17.579  0.00  0.00    +0.000 OA
BRANCH  12  13
ATOM     13  C   UNL     1       6.318   5.797  18.787  0.00  0.00    +0.000 C 
BRANCH  13  14
ATOM     14  C   UNL     1       7.713   6.380  18.562  0.00  0.00    +0.000 C 
BRANCH  14  16
ATOM     15  C   UNL     1       8.149   8.827  18.002  0.00  0.00    +0.000 C 
ATOM     16  C   UNL     1       7.641   7.482  17.509  0.00  0.00    +0.000 C 
ENDBRANCH  14  16
ENDBRANCH  13  14
ENDBRANCH  12  13
ENDBRANCH   1  12
BRANCH   1  17
ATOM     17  O   UNL     1       3.871   4.202  17.075  0.00  0.00    +0.000 OA
BRANCH  17  18
ATOM     18  C   UNL     1       3.429   3.472  18.214  0.00  0.00    +0.000 C 
BRANCH  18  19
ATOM     19  C   UNL     1       2.451   2.382  17.783  0.00  0.00    +0.000 C 
BRANCH  19  20
ATOM     20  C   UNL     1       1.120   2.460  18.538  0.00  0.00    +0.000 C 
ATOM     21  C   UNL     1       1.270   3.179  19.870  0.00  0.00    +0.000 C 
ENDBRANCH  19  20
ENDBRANCH  18  19
ENDBRANCH  17  18
ENDBRANCH   1  17
TORSDOF 14
ENDMDL
MODEL 6
REMARK VINA RESULT:      -5.4      3.209      4.523
REMARK  Name = 
REMARK  16 active torsions:
REMARK  status: ('A' for Active; 'I' for Inactive)
REMARK    1  A    between atoms: C_1  and  C_2
REMARK    2  A    between atoms: C_2  and  C_3
REMARK    3  A    between atoms: C_3  and  C_4
REMARK    4  A    between atoms: C_4  and  O_5
REMARK    5  A    between atoms: O_5  and  C_6
REMARK    6  A    between atoms: C_6  and  O_7
REMARK    7  A    between atoms: C_6  and  P_12
REMARK    8  A    between atoms: O_7  and  C_8
REMARK    9  A    between atoms: C_8  and  C_9
REMARK   10  A    between atoms: C_9  and  C_10
REMARK   11  A    between atoms: C_10  and  C_11
REMARK   12  A    between atoms: P_12  and  O_14
REMARK   13  A    between atoms: P_12  and  C_15
REMARK   14  A    between atoms: C_15  and  C_16
REMARK   15  A    between atoms: C_16  and  C_17
REMARK   16  A    between atoms: C_17  and  N_18
REMARK                            x       y       z     vdW  Elec       q    Type
REMARK                         _______ _______ _______ _____ _____    ______ ____
ROOT
ATOM      1  C   UNL     1       5.116   4.938  19.118  0.00  0.00    +0.000 C 
ENDROOT
BRANCH   1   2
ATOM      2  P   UNL     1       4.007   3.491  19.280  0.00  0.00    +0.000 P 
ATOM      3  O   UNL     1       3.949   3.289  17.753  0.00  0.00    +0.000 OA
BRANCH   2   4
ATOM      4  O   UNL     1       5.271   2.552  19.813  0.00  0.00    +0.000 OA
ATOM      5  H   UNL     1       4.976   1.609  19.825  0.00  0.00    +0.000 HD
ENDBRANCH   2   4
BRANCH   2   6
ATOM      6  C   UNL     1       2.898   2.044  19.442  0.00  0.00    +0.000 C 
BRANCH   6   7
ATOM      7  C   UNL     1       1.659   2.113  18.555  0.00  0.00    +0.000 C 
BRANCH   7   8
ATOM      8  C   UNL     1       0.552   2.978  19.160  0.00  0.00    +0.000 C 
BRANCH   8   9
ATOM      9  N   UNL     1       0.615   3.003  20.617  0.00  0.00    +0.000 NA
ATOM     10  H   UNL     1      -0.285   3.296  20.998  0.00  0.00    +0.000 HD
ATOM     11  H   UNL     1       1.266   3.741  20.903  0.00  0.00    +0.000 HD
ENDBRANCH   8   9
ENDBRANCH   7   8
ENDBRANCH   6   7
ENDBRANCH   2   6
ENDBRANCH   1   2
BRANCH   1  12
ATOM     12  O   UNL     1       6.443   4.451  18.801  0.00  0.00    +0.000 OA
BRANCH  12  13
ATOM     13  C   UNL     1       7.068   5.269  17.814  0.00  0.00    +0.000 C 
BRANCH  13  14
ATOM     14  C   UNL     1       7.742   6.475  18.467  0.00  0.00    +0.000 C 
BRANCH  14  16
ATOM     15  C   UNL     1       8.295   8.934  18.094  0.00  0.00    +0.000 C 
ATOM     16  C   UNL     1       7.622   7.686  17.546  0.00  0.00    +0.000 C 
ENDBRANCH  14  16
ENDBRANCH  13  14
ENDBRANCH  12  13
ENDBRANCH   1  12
BRANCH   1  17
ATOM     17  O   UNL     1       4.599   5.836  18.124  0.00  0.00    +0.000 OA
BRANCH  17  18
ATOM     18  C   UNL     1       3.505   6.621  18.587  0.00  0.00    +0.000 C 
BRANCH  18  19
ATOM     19  C   UNL     1       3.273   7.795  17.639  0.00  0.00    +0.000 C 
BRANCH  19  20
ATOM     20  C   UNL     1       1.865   8.383  17.772  0.00  0.00    +0.000 C 
ATOM     21  C   UNL     1       1.901   9.887  17.993  0.00  0.00    +0.000 C 
ENDBRANCH  19  20
ENDBRANCH  18  19
ENDBRANCH  17  18
ENDBRANCH   1  17
TORSDOF 14
ENDMDL
MODEL 7
REMARK VINA RESULT:      -5.3      3.549      6.781
REMARK  Name = 
REMARK  16 active torsions:
REMARK  status: ('A' for Active; 'I' for Inactive)
REMARK    1  A    between atoms: C_1  and  C_2
REMARK    2  A    between atoms: C_2  and  C_3
REMARK    3  A    between atoms: C_3  and  C_4
REMARK    4  A    between atoms: C_4  and  O_5
REMARK    5  A    between atoms: O_5  and  C_6
REMARK    6  A    between atoms: C_6  and  O_7
REMARK    7  A    between atoms: C_6  and  P_12
REMARK    8  A    between atoms: O_7  and  C_8
REMARK    9  A    between atoms: C_8  and  C_9
REMARK   10  A    between atoms: C_9  and  C_10
REMARK   11  A    between atoms: C_10  and  C_11
REMARK   12  A    between atoms: P_12  and  O_14
REMARK   13  A    between atoms: P_12  and  C_15
REMARK   14  A    between atoms: C_15  and  C_16
REMARK   15  A    between atoms: C_16  and  C_17
REMARK   16  A    between atoms: C_17  and  N_18
REMARK                            x       y       z     vdW  Elec       q    Type
REMARK                         _______ _______ _______ _____ _____    ______ ____
ROOT
ATOM      1  C   UNL     1       3.490   4.756  18.429  0.00  0.00    +0.000 C 
ENDROOT
BRANCH   1   2
ATOM      2  P   UNL     1       5.281   4.731  18.053  0.00  0.00    +0.000 P 
ATOM      3  O   UNL     1       5.641   4.360  19.505  0.00  0.00    +0.000 OA
BRANCH   2   4
ATOM      4  O   UNL     1       5.115   3.288  17.245  0.00  0.00    +0.000 OA
ATOM      5  H   UNL     1       5.264   3.452  16.281  0.00  0.00    +0.000 HD
ENDBRANCH   2   4
BRANCH   2   6
ATOM      6  C   UNL     1       7.072   4.706  17.678  0.00  0.00    +0.000 C 
BRANCH   6   7
ATOM      7  C   UNL     1       7.911   5.572  18.612  0.00  0.00    +0.000 C 
BRANCH   7   8
ATOM      8  C   UNL     1       7.873   7.053  18.231  0.00  0.00    +0.000 C 
BRANCH   8   9
ATOM      9  N   UNL     1       7.719   7.242  16.793  0.00  0.00    +0.000 NA
ATOM     10  H   UNL     1       6.735   7.158  16.535  0.00  0.00    +0.000 HD
ATOM     11  H   UNL     1       8.176   6.461  16.311  0.00  0.00    +0.000 HD
ENDBRANCH   8   9
ENDBRANCH   7   8
ENDBRANCH   6   7
ENDBRANCH   2   6
ENDBRANCH   1   2
BRANCH   1  12
ATOM     12  O   UNL     1       3.005   3.391  18.389  0.00  0.00    +0.000 OA
BRANCH  12  13
ATOM     13  C   UNL     1       1.623   3.346  18.042  0.00  0.00    +0.000 C 
BRANCH  13  14
ATOM     14  C   UNL     1       0.786   2.888  19.236  0.00  0.00    +0.000 C 
BRANCH  14  16
ATOM     15  C   UNL     1       1.621   2.859  21.643  0.00  0.00    +0.000 C 
ATOM     16  C   UNL     1       1.693   2.220  20.266  0.00  0.00    +0.000 C 
ENDBRANCH  14  16
ENDBRANCH  13  14
ENDBRANCH  12  13
ENDBRANCH   1  12
BRANCH   1  17
ATOM     17  O   UNL     1       3.269   5.388  19.699  0.00  0.00    +0.000 OA
BRANCH  17  18
ATOM     18  C   UNL     1       2.519   6.595  19.606  0.00  0.00    +0.000 C 
BRANCH  18  19
ATOM     19  C   UNL     1       2.326   6.972  18.139  0.00  0.00    +0.000 C 
BRANCH  19  20
ATOM     20  C   UNL     1       2.593   8.458  17.880  0.00  0.00    +0.000 C 
ATOM     21  C   UNL     1       1.313   9.279  17.932  0.00  0.00    +0.000 C 
ENDBRANCH  19  20
ENDBRANCH  18  19
ENDBRANCH  17  18
ENDBRANCH   1  17
TORSDOF 14
ENDMDL
MODEL 8
REMARK VINA RESULT:      -5.3      2.189      5.403
REMARK  Name = 
REMARK  16 active torsions:
REMARK  status: ('A' for Active; 'I' for Inactive)
REMARK    1  A    between atoms: C_1  and  C_2
REMARK    2  A    between atoms: C_2  and  C_3
REMARK    3  A    between atoms: C_3  and  C_4
REMARK    4  A    between atoms: C_4  and  O_5
REMARK    5  A    between atoms: O_5  and  C_6
REMARK    6  A    between atoms: C_6  and  O_7
REMARK    7  A    between atoms: C_6  and  P_12
REMARK    8  A    between atoms: O_7  and  C_8
REMARK    9  A    between atoms: C_8  and  C_9
REMARK   10  A    between atoms: C_9  and  C_10
REMARK   11  A    between atoms: C_10  and  C_11
REMARK   12  A    between atoms: P_12  and  O_14
REMARK   13  A    between atoms: P_12  and  C_15
REMARK   14  A    between atoms: C_15  and  C_16
REMARK   15  A    between atoms: C_16  and  C_17
REMARK   16  A    between atoms: C_17  and  N_18
REMARK                            x       y       z     vdW  Elec       q    Type
REMARK                         _______ _______ _______ _____ _____    ______ ____
ROOT
ATOM      1  C   UNL     1       4.685   4.423  17.337  0.00  0.00    +0.000 C 
ENDROOT
BRANCH   1   2
ATOM      2  P   UNL     1       3.120   3.905  18.131  0.00  0.00    +0.000 P 
ATOM      3  O   UNL     1       3.867   3.159  19.255  0.00  0.00    +0.000 OA
BRANCH   2   4
ATOM      4  O   UNL     1       2.870   5.447  18.698  0.00  0.00    +0.000 OA
ATOM      5  H   UNL     1       3.507   6.053  18.246  0.00  0.00    +0.000 HD
ENDBRANCH   2   4
BRANCH   2   6
ATOM      6  C   UNL     1       1.555   3.386  18.926  0.00  0.00    +0.000 C 
BRANCH   6   7
ATOM      7  C   UNL     1       1.367   3.934  20.336  0.00  0.00    +0.000 C 
BRANCH   7   8
ATOM      8  C   UNL     1       1.311   2.830  21.393  0.00  0.00    +0.000 C 
BRANCH   8   9
ATOM      9  N   UNL     1       2.619   2.579  21.988  0.00  0.00    +0.000 NA
ATOM     10  H   UNL     1       2.528   2.493  23.001  0.00  0.00    +0.000 HD
ATOM     11  H   UNL     1       3.202   3.411  21.855  0.00  0.00    +0.000 HD
ENDBRANCH   8   9
ENDBRANCH   7   8
ENDBRANCH   6   7
ENDBRANCH   2   6
ENDBRANCH   1   2
BRANCH   1  12
ATOM     12  O   UNL     1       4.445   4.546  15.913  0.00  0.00    +0.000 OA
BRANCH  12  13
ATOM     13  C   UNL     1       5.617   4.987  15.231  0.00  0.00    +0.000 C 
BRANCH  13  14
ATOM     14  C   UNL     1       6.358   3.800  14.616  0.00  0.00    +0.000 C 
BRANCH  14  16
ATOM     15  C   UNL     1       5.483   3.291  12.277  0.00  0.00    +0.000 C 
ATOM     16  C   UNL     1       6.520   4.023  13.115  0.00  0.00    +0.000 C 
ENDBRANCH  14  16
ENDBRANCH  13  14
ENDBRANCH  12  13
ENDBRANCH   1  12
BRANCH   1  17
ATOM     17  O   UNL     1       5.149   5.645  17.931  0.00  0.00    +0.000 OA
BRANCH  17  18
ATOM     18  C   UNL     1       6.240   5.458  18.827  0.00  0.00    +0.000 C 
BRANCH  18  19
ATOM     19  C   UNL     1       7.524   5.992  18.198  0.00  0.00    +0.000 C 
BRANCH  19  20
ATOM     20  C   UNL     1       7.299   7.301  17.435  0.00  0.00    +0.000 C 
ATOM     21  C   UNL     1       8.162   8.428  17.982  0.00  0.00    +0.000 C 
ENDBRANCH  19  20
ENDBRANCH  18  19
ENDBRANCH  17  18
ENDBRANCH   1  17
TORSDOF 14
ENDMDL
MODEL 9
REMARK VINA RESULT:      -5.3      2.247      4.695
REMARK  Name = 
REMARK  16 active torsions:
REMARK  status: ('A' for Active; 'I' for Inactive)
REMARK    1  A    between atoms: C_1  and  C_2
REMARK    2  A    between atoms: C_2  and  C_3
REMARK    3  A    between atoms: C_3  and  C_4
REMARK    4  A    between atoms: C_4  and  O_5
REMARK    5  A    between atoms: O_5  and  C_6
REMARK    6  A    between atoms: C_6  and  O_7
REMARK    7  A    between atoms: C_6  and  P_12
REMARK    8  A    between atoms: O_7  and  C_8
REMARK    9  A    between atoms: C_8  and  C_9
REMARK   10  A    between atoms: C_9  and  C_10
REMARK   11  A    between atoms: C_10  and  C_11
REMARK   12  A    between atoms: P_12  and  O_14
REMARK   13  A    between atoms: P_12  and  C_15
REMARK   14  A    between atoms: C_15  and  C_16
REMARK   15  A    between atoms: C_16  and  C_17
REMARK   16  A    between atoms: C_17  and  N_18
REMARK                            x       y       z     vdW  Elec       q    Type
REMARK                         _______ _______ _______ _____ _____    ______ ____
ROOT
ATOM      1  C   UNL     1       5.136   5.291  17.910  0.00  0.00    +0.000 C 
ENDROOT
BRANCH   1   2
ATOM      2  P   UNL     1       5.928   4.793  16.337  0.00  0.00    +0.000 P 
ATOM      3  O   UNL     1       5.018   3.556  16.201  0.00  0.00    +0.000 OA
BRANCH   2   4
ATOM      4  O   UNL     1       5.150   6.019  15.530  0.00  0.00    +0.000 OA
ATOM      5  H   UNL     1       4.478   5.618  14.925  0.00  0.00    +0.000 HD
ENDBRANCH   2   4
BRANCH   2   6
ATOM      6  C   UNL     1       6.720   4.294  14.764  0.00  0.00    +0.000 C 
BRANCH   6   7
ATOM      7  C   UNL     1       5.730   3.960  13.653  0.00  0.00    +0.000 C 
BRANCH   7   8
ATOM      8  C   UNL     1       6.423   3.594  12.339  0.00  0.00    +0.000 C 
BRANCH   8   9
ATOM      9  N   UNL     1       6.189   2.203  11.969  0.00  0.00    +0.000 NA
ATOM     10  H   UNL     1       6.403   1.593  12.760  0.00  0.00    +0.000 HD
ATOM     11  H   UNL     1       6.871   1.937  11.251  0.00  0.00    +0.000 HD
ENDBRANCH   8   9
ENDBRANCH   7   8
ENDBRANCH   6   7
ENDBRANCH   2   6
ENDBRANCH   1   2
BRANCH   1  12
ATOM     12  O   UNL     1       6.183   5.520  18.885  0.00  0.00    +0.000 OA
BRANCH  12  13
ATOM     13  C   UNL     1       7.457   5.638  18.254  0.00  0.00    +0.000 C 
BRANCH  13  14
ATOM     14  C   UNL     1       8.144   6.936  18.675  0.00  0.00    +0.000 C 
BRANCH  14  16
ATOM     15  C   UNL     1       8.348   9.402  18.066  0.00  0.00    +0.000 C 
ATOM     16  C   UNL     1       7.829   8.032  17.661  0.00  0.00    +0.000 C 
ENDBRANCH  14  16
ENDBRANCH  13  14
ENDBRANCH  12  13
ENDBRANCH   1  12
BRANCH   1  17
ATOM     17  O   UNL     1       4.313   6.447  17.694  0.00  0.00    +0.000 OA
BRANCH  17  18
ATOM     18  C   UNL     1       2.996   6.307  18.216  0.00  0.00    +0.000 C 
BRANCH  18  19
ATOM     19  C   UNL     1       2.753   4.858  18.629  0.00  0.00    +0.000 C 
BRANCH  19  20
ATOM     20  C   UNL     1       1.602   4.214  17.850  0.00  0.00    +0.000 C 
ATOM     21  C   UNL     1       1.113   2.939  18.520  0.00  0.00    +0.000 C 
ENDBRANCH  19  20
ENDBRANCH  18  19
ENDBRANCH  17  18
ENDBRANCH   1  17
TORSDOF 14
ENDMDL
