MODEL 1
REMARK VINA RESULT:      -7.0      0.000      0.000
REMARK  Name = 
REMARK  8 active torsions:
REMARK  status: ('A' for Active; 'I' for Inactive)
REMARK    1  A    between atoms: C_1  and  C_2
REMARK    2  A    between atoms: C_2  and  N_3
REMARK    3  A    between atoms: N_3  and  C_4
REMARK    4  A    between atoms: N_3  and  S_15
REMARK    5  A    between atoms: C_4  and  C_5
REMARK    6  A    between atoms: N_7  and  C_8
REMARK    7  A    between atoms: C_8  and  C_9
REMARK    8  A    between atoms: S_15  and  C_18
REMARK                            x       y       z     vdW  Elec       q    Type
REMARK                         _______ _______ _______ _____ _____    ______ ____
ROOT
ATOM      1  N   UNL     1       6.620   6.447  18.298  0.00  0.00    +0.000 NA
ENDROOT
BRANCH   1   2
ATOM      2  S   UNL     1       6.814   4.726  18.123  0.00  0.00    +0.000 S 
ATOM      3  O   UNL     1       8.212   4.401  18.287  0.00  0.00    +0.000 OA
ATOM      4  O   UNL     1       5.789   4.110  18.935  0.00  0.00    +0.000 OA
BRANCH   2   5
ATOM      5  C   UNL     1       6.431   4.411  16.416  0.00  0.00    +0.000 A 
ATOM      6  C   UNL     1       7.332   4.802  15.419  0.00  0.00    +0.000 A 
ATOM      7  C   UNL     1       7.012   4.572  14.081  0.00  0.00    +0.000 A 
ATOM      8  C   UNL     1       5.807   3.946  13.750  0.00  0.00    +0.000 A 
ATOM      9 CL   UNL     1       5.412   3.674  12.098  0.00  0.00    +0.000 Cl
ATOM     10  C   UNL     1       4.918   3.543  14.747  0.00  0.00    +0.000 A 
ATOM     11  C   UNL     1       5.228   3.774  16.087  0.00  0.00    +0.000 A 
ENDBRANCH   2   5
ENDBRANCH   1   2
BRANCH   1  13
ATOM     12  C   UNL     1       7.721   8.626  17.646  0.00  0.00    +0.000 C 
ATOM     13  C   UNL     1       7.922   7.188  18.106  0.00  0.00    +0.000 C 
ENDBRANCH   1  13
BRANCH   1  14
ATOM     14  C   UNL     1       5.578   6.971  17.336  0.00  0.00    +0.000 C 
BRANCH  14  15
ATOM     15  C   UNL     1       4.135   7.088  17.791  0.00  0.00    +0.000 C 
ATOM     16  O   UNL     1       3.339   7.828  17.216  0.00  0.00    +0.000 OA
ATOM     17  N   UNL     1       3.832   6.428  18.954  0.00  0.00    +0.000 N 
ATOM     18  H   UNL     1       4.458   5.690  19.250  0.00  0.00    +0.000 HD
BRANCH  17  19
ATOM     19  C   UNL     1       2.483   6.361  19.474  0.00  0.00    +0.000 C 
BRANCH  19  20
ATOM     20  C   UNL     1       1.996   4.934  19.499  0.00  0.00    +0.000 A 
ATOM     21  C   UNL     1       1.805   4.246  18.301  0.00  0.00    +0.000 A 
ATOM     22  C   UNL     1       1.292   2.953  18.342  0.00  0.00    +0.000 A 
ATOM     23  C   UNL     1       0.981   2.385  19.572  0.00  0.00    +0.000 A 
ATOM     24  C   UNL     1       1.195   3.137  20.714  0.00  0.00    +0.000 A 
ATOM     25  N   UNL     1       1.685   4.395  20.707  0.00  0.00    +0.000 NA
ENDBRANCH  19  20
ENDBRANCH  17  19
ENDBRANCH  14  15
ENDBRANCH   1  14
TORSDOF 7
ENDMDL
MODEL 2
REMARK VINA RESULT:      -7.0      2.004      2.801
REMARK  Name = 
REMARK  8 active torsions:
REMARK  status: ('A' for Active; 'I' for Inactive)
REMARK    1  A    between atoms: C_1  and  C_2
REMARK    2  A    between atoms: C_2  and  N_3
REMARK    3  A    between atoms: N_3  and  C_4
REMARK    4  A    between atoms: N_3  and  S_15
REMARK    5  A    between atoms: C_4  and  C_5
REMARK    6  A    between atoms: N_7  and  C_8
REMARK    7  A    between atoms: C_8  and  C_9
REMARK    8  A    between atoms: S_15  and  C_18
REMARK                            x       y       z     vdW  Elec       q    Type
REMARK                         _______ _______ _______ _____ _____    ______ ____
ROOT
ATOM      1  N   UNL     1       6.851   6.188  16.618  0.00  0.00    +0.000 NA
ENDROOT
BRANCH   1   2
ATOM      2  S   UNL     1       5.428   5.878  15.666  0.00  0.00    +0.000 S 
ATOM      3  O   UNL     1       4.545   5.020  16.423  0.00  0.00    +0.000 OA
ATOM      4  O   UNL     1       4.990   7.155  15.150  0.00  0.00    +0.000 OA
BRANCH   2   5
ATOM      5  C   UNL     1       6.014   4.902  14.301  0.00  0.00    +0.000 A 
ATOM      6  C   UNL     1       7.273   5.167  13.749  0.00  0.00    +0.000 A 
ATOM      7  C   UNL     1       7.714   4.411  12.662  0.00  0.00    +0.000 A 
ATOM      8  C   UNL     1       6.906   3.395  12.146  0.00  0.00    +0.000 A 
ATOM      9 CL   UNL     1       7.450   2.473  10.799  0.00  0.00    +0.000 Cl
ATOM     10  C   UNL     1       5.659   3.123  12.709  0.00  0.00    +0.000 A 
ATOM     11  C   UNL     1       5.208   3.877  13.792  0.00  0.00    +0.000 A 
ENDBRANCH   2   5
ENDBRANCH   1   2
BRANCH   1  13
ATOM     12  C   UNL     1       7.934   8.229  17.639  0.00  0.00    +0.000 C 
ATOM     13  C   UNL     1       6.677   7.377  17.532  0.00  0.00    +0.000 C 
ENDBRANCH   1  13
BRANCH   1  14
ATOM     14  C   UNL     1       7.235   4.967  17.423  0.00  0.00    +0.000 C 
BRANCH  14  15
ATOM     15  C   UNL     1       6.586   4.730  18.774  0.00  0.00    +0.000 C 
ATOM     16  O   UNL     1       7.007   5.277  19.792  0.00  0.00    +0.000 OA
ATOM     17  N   UNL     1       5.608   3.770  18.794  0.00  0.00    +0.000 N 
ATOM     18  H   UNL     1       5.180   3.520  17.912  0.00  0.00    +0.000 HD
BRANCH  17  19
ATOM     19  C   UNL     1       4.827   3.489  19.980  0.00  0.00    +0.000 C 
BRANCH  19  20
ATOM     20  C   UNL     1       3.373   3.304  19.624  0.00  0.00    +0.000 A 
ATOM     21  C   UNL     1       2.388   3.942  20.377  0.00  0.00    +0.000 A 
ATOM     22  C   UNL     1       1.051   3.706  20.074  0.00  0.00    +0.000 A 
ATOM     23  C   UNL     1       0.733   2.840  19.034  0.00  0.00    +0.000 A 
ATOM     24  C   UNL     1       1.770   2.242  18.339  0.00  0.00    +0.000 A 
ATOM     25  N   UNL     1       3.076   2.446  18.613  0.00  0.00    +0.000 NA
ENDBRANCH  19  20
ENDBRANCH  17  19
ENDBRANCH  14  15
ENDBRANCH   1  14
TORSDOF 7
ENDMDL
MODEL 3
REMARK VINA RESULT:      -6.9      3.142      4.743
REMARK  Name = 
REMARK  8 active torsions:
REMARK  status: ('A' for Active; 'I' for Inactive)
REMARK    1  A    between atoms: C_1  and  C_2
REMARK    2  A    between atoms: C_2  and  N_3
REMARK    3  A    between atoms: N_3  and  C_4
REMARK    4  A    between atoms: N_3  and  S_15
REMARK    5  A    between atoms: C_4  and  C_5
REMARK    6  A    between atoms: N_7  and  C_8
REMARK    7  A    between atoms: C_8  and  C_9
REMARK    8  A    between atoms: S_15  and  C_18
REMARK                            x       y       z     vdW  Elec       q    Type
REMARK                         _______ _______ _______ _____ _____    ______ ____
ROOT
ATOM      1  N   UNL     1       3.363   4.703  18.835  0.00  0.00    +0.000 NA
ENDROOT
BRANCH   1   2
ATOM      2  S   UNL     1       5.053   4.318  18.989  0.00  0.00    +0.000 S 
ATOM      3  O   UNL     1       5.701   5.378  19.727  0.00  0.00    +0.000 OA
ATOM      4  O   UNL     1       5.126   2.939  19.417  0.00  0.00    +0.000 OA
BRANCH   2   5
ATOM      5  C   UNL     1       5.682   4.416  17.330  0.00  0.00    +0.000 A 
ATOM      6  C   UNL     1       7.034   4.707  17.117  0.00  0.00    +0.000 A 
ATOM      7  C   UNL     1       7.513   4.806  15.809  0.00  0.00    +0.000 A 
ATOM      8  C   UNL     1       6.646   4.603  14.733  0.00  0.00    +0.000 A 
ATOM      9 CL   UNL     1       7.240   4.736  13.123  0.00  0.00    +0.000 Cl
ATOM     10  C   UNL     1       5.302   4.296  14.949  0.00  0.00    +0.000 A 
ATOM     11  C   UNL     1       4.815   4.201  16.252  0.00  0.00    +0.000 A 
ENDBRANCH   2   5
ENDBRANCH   1   2
BRANCH   1  13
ATOM     12  C   UNL     1       1.468   3.051  18.582  0.00  0.00    +0.000 C 
ATOM     13  C   UNL     1       2.483   3.686  19.522  0.00  0.00    +0.000 C 
ENDBRANCH   1  13
BRANCH   1  14
ATOM     14  C   UNL     1       3.076   6.086  19.373  0.00  0.00    +0.000 C 
BRANCH  14  15
ATOM     15  C   UNL     1       2.908   7.243  18.406  0.00  0.00    +0.000 C 
ATOM     16  O   UNL     1       3.657   7.385  17.441  0.00  0.00    +0.000 OA
ATOM     17  N   UNL     1       1.970   8.176  18.764  0.00  0.00    +0.000 N 
ATOM     18  H   UNL     1       1.266   7.897  19.437  0.00  0.00    +0.000 HD
BRANCH  17  19
ATOM     19  C   UNL     1       1.621   9.289  17.908  0.00  0.00    +0.000 C 
BRANCH  19  20
ATOM     20  C   UNL     1       0.443  10.042  18.472  0.00  0.00    +0.000 A 
ATOM     21  C   UNL     1      -0.780  10.019  17.803  0.00  0.00    +0.000 A 
ATOM     22  C   UNL     1      -1.836  10.773  18.304  0.00  0.00    +0.000 A 
ATOM     23  C   UNL     1      -1.643  11.532  19.453  0.00  0.00    +0.000 A 
ATOM     24  C   UNL     1      -0.397  11.505  20.055  0.00  0.00    +0.000 A 
ATOM     25  N   UNL     1       0.648  10.788  19.590  0.00  0.00    +0.000 NA
ENDBRANCH  19  20
ENDBRANCH  17  19
ENDBRANCH  14  15
ENDBRANCH   1  14
TORSDOF 7
ENDMDL
MODEL 4
REMARK VINA RESULT:      -6.8      1.951      2.877
REMARK  Name = 
REMARK  8 active torsions:
REMARK  status: ('A' for Active; 'I' for Inactive)
REMARK    1  A    between atoms: C_1  and  C_2
REMARK    2  A    between atoms: C_2  and  N_3
REMARK    3  A    between atoms: N_3  and  C_4
REMARK    4  A    between atoms: N_3  and  S_15
REMARK    5  A    between atoms: C_4  and  C_5
REMARK    6  A    between atoms: N_7  and  C_8
REMARK    7  A    between atoms: C_8  and  C_9
REMARK    8  A    between atoms: S_15  and  C_18
REMARK                            x       y       z     vdW  Elec       q    Type
REMARK                         _______ _______ _______ _____ _____    ______ ____
ROOT
ATOM      1  N   UNL     1       6.840   6.177  16.554  0.00  0.00    +0.000 NA
ENDROOT
BRANCH   1   2
ATOM      2  S   UNL     1       5.396   5.835  15.645  0.00  0.00    +0.000 S 
ATOM      3  O   UNL     1       4.556   4.957  16.428  0.00  0.00    +0.000 OA
ATOM      4  O   UNL     1       4.913   7.102  15.144  0.00  0.00    +0.000 OA
BRANCH   2   5
ATOM      5  C   UNL     1       5.961   4.873  14.262  0.00  0.00    +0.000 A 
ATOM      6  C   UNL     1       5.136   3.879  13.725  0.00  0.00    +0.000 A 
ATOM      7  C   UNL     1       5.598   3.112  12.655  0.00  0.00    +0.000 A 
ATOM      8  C   UNL     1       6.868   3.351  12.124  0.00  0.00    +0.000 A 
ATOM      9 CL   UNL     1       7.438   2.396  10.810  0.00  0.00    +0.000 Cl
ATOM     10  C   UNL     1       7.682   4.354  12.651  0.00  0.00    +0.000 A 
ATOM     11  C   UNL     1       7.230   5.121  13.724  0.00  0.00    +0.000 A 
ENDBRANCH   2   5
ENDBRANCH   1   2
BRANCH   1  13
ATOM     12  C   UNL     1       7.959   8.168  17.634  0.00  0.00    +0.000 C 
ATOM     13  C   UNL     1       6.673   7.371  17.462  0.00  0.00    +0.000 C 
ENDBRANCH   1  13
BRANCH   1  14
ATOM     14  C   UNL     1       7.267   4.969  17.358  0.00  0.00    +0.000 C 
BRANCH  14  15
ATOM     15  C   UNL     1       6.621   4.704  18.705  0.00  0.00    +0.000 C 
ATOM     16  O   UNL     1       7.025   5.253  19.729  0.00  0.00    +0.000 OA
ATOM     17  N   UNL     1       5.668   3.720  18.714  0.00  0.00    +0.000 N 
ATOM     18  H   UNL     1       5.248   3.466  17.828  0.00  0.00    +0.000 HD
BRANCH  17  19
ATOM     19  C   UNL     1       4.890   3.408  19.895  0.00  0.00    +0.000 C 
BRANCH  19  20
ATOM     20  C   UNL     1       3.439   3.206  19.535  0.00  0.00    +0.000 A 
ATOM     21  C   UNL     1       3.084   2.215  18.621  0.00  0.00    +0.000 A 
ATOM     22  C   UNL     1       1.748   2.089  18.253  0.00  0.00    +0.000 A 
ATOM     23  C   UNL     1       0.808   2.954  18.800  0.00  0.00    +0.000 A 
ATOM     24  C   UNL     1       1.244   3.915  19.696  0.00  0.00    +0.000 A 
ATOM     25  N   UNL     1       2.532   4.066  20.068  0.00  0.00    +0.000 NA
ENDBRANCH  19  20
ENDBRANCH  17  19
ENDBRANCH  14  15
ENDBRANCH   1  14
TORSDOF 7
ENDMDL
MODEL 5
REMARK VINA RESULT:      -6.8      3.035      4.751
REMARK  Name = 
REMARK  8 active torsions:
REMARK  status: ('A' for Active; 'I' for Inactive)
REMARK    1  A    between atoms: C_1  and  C_2
REMARK    2  A    between atoms: C_2  and  N_3
REMARK    3  A    between atoms: N_3  and  C_4
REMARK    4  A    between atoms: N_3  and  S_15
REMARK    5  A    between atoms: C_4  and  C_5
REMARK    6  A    between atoms: N_7  and  C_8
REMARK    7  A    between atoms: C_8  and  C_9
REMARK    8  A    between atoms: S_15  and  C_18
REMARK                            x       y       z     vdW  Elec       q    Type
REMARK                         _______ _______ _______ _____ _____    ______ ____
ROOT
ATOM      1  N   UNL     1       3.101   4.070  18.949  0.00  0.00    +0.000 NA
ENDROOT
BRANCH   1   2
ATOM      2  S   UNL     1       4.824   4.039  19.193  0.00  0.00    +0.000 S 
ATOM      3  O   UNL     1       5.202   5.209  19.952  0.00  0.00    +0.000 OA
ATOM      4  O   UNL     1       5.154   2.704  19.637  0.00  0.00    +0.000 OA
BRANCH   2   5
ATOM      5  C   UNL     1       5.504   4.265  17.567  0.00  0.00    +0.000 A 
ATOM      6  C   UNL     1       6.870   4.528  17.417  0.00  0.00    +0.000 A 
ATOM      7  C   UNL     1       7.391   4.728  16.137  0.00  0.00    +0.000 A 
ATOM      8  C   UNL     1       6.551   4.652  15.024  0.00  0.00    +0.000 A 
ATOM      9 CL   UNL     1       7.195   4.909  13.449  0.00  0.00    +0.000 Cl
ATOM     10  C   UNL     1       5.192   4.373  15.175  0.00  0.00    +0.000 A 
ATOM     11  C   UNL     1       4.663   4.177  16.450  0.00  0.00    +0.000 A 
ENDBRANCH   2   5
ENDBRANCH   1   2
BRANCH   1  13
ATOM     12  C   UNL     1       1.562   2.674  20.386  0.00  0.00    +0.000 C 
ATOM     13  C   UNL     1       2.471   2.714  19.166  0.00  0.00    +0.000 C 
ENDBRANCH   1  13
BRANCH   1  14
ATOM     14  C   UNL     1       2.449   5.095  19.849  0.00  0.00    +0.000 C 
BRANCH  14  15
ATOM     15  C   UNL     1       2.227   6.505  19.335  0.00  0.00    +0.000 C 
ATOM     16  O   UNL     1       2.410   6.793  18.154  0.00  0.00    +0.000 OA
ATOM     17  N   UNL     1       1.953   7.443  20.297  0.00  0.00    +0.000 N 
ATOM     18  H   UNL     1       1.618   7.110  21.193  0.00  0.00    +0.000 HD
BRANCH  17  19
ATOM     19  C   UNL     1       1.624   8.813  19.967  0.00  0.00    +0.000 C 
BRANCH  19  20
ATOM     20  C   UNL     1       0.714   9.405  21.014  0.00  0.00    +0.000 A 
ATOM     21  C   UNL     1      -0.174  10.423  20.666  0.00  0.00    +0.000 A 
ATOM     22  C   UNL     1      -0.958  11.001  21.659  0.00  0.00    +0.000 A 
ATOM     23  C   UNL     1      -0.832  10.554  22.969  0.00  0.00    +0.000 A 
ATOM     24  C   UNL     1       0.077   9.544  23.233  0.00  0.00    +0.000 A 
ATOM     25  N   UNL     1       0.855   8.967  22.293  0.00  0.00    +0.000 NA
ENDBRANCH  19  20
ENDBRANCH  17  19
ENDBRANCH  14  15
ENDBRANCH   1  14
TORSDOF 7
ENDMDL
MODEL 6
REMARK VINA RESULT:      -6.8      3.219      4.940
REMARK  Name = 
REMARK  8 active torsions:
REMARK  status: ('A' for Active; 'I' for Inactive)
REMARK    1  A    between atoms: C_1  and  C_2
REMARK    2  A    between atoms: C_2  and  N_3
REMARK    3  A    between atoms: N_3  and  C_4
REMARK    4  A    between atoms: N_3  and  S_15
REMARK    5  A    between atoms: C_4  and  C_5
REMARK    6  A    between atoms: N_7  and  C_8
REMARK    7  A    between atoms: C_8  and  C_9
REMARK    8  A    between atoms: S_15  and  C_18
REMARK                            x       y       z     vdW  Elec       q    Type
REMARK                         _______ _______ _______ _____ _____    ______ ____
ROOT
ATOM      1  N   UNL     1       3.224   4.799  18.821  0.00  0.00    +0.000 NA
ENDROOT
BRANCH   1   2
ATOM      2  S   UNL     1       4.907   4.401  19.016  0.00  0.00    +0.000 S 
ATOM      3  O   UNL     1       5.548   5.465  19.755  0.00  0.00    +0.000 OA
ATOM      4  O   UNL     1       4.957   3.027  19.462  0.00  0.00    +0.000 OA
BRANCH   2   5
ATOM      5  C   UNL     1       5.571   4.473  17.370  0.00  0.00    +0.000 A 
ATOM      6  C   UNL     1       4.723   4.295  16.271  0.00  0.00    +0.000 A 
ATOM      7  C   UNL     1       5.258   4.329  14.983  0.00  0.00    +0.000 A 
ATOM      8  C   UNL     1       6.625   4.551  14.802  0.00  0.00    +0.000 A 
ATOM      9 CL   UNL     1       7.282   4.582  13.212  0.00  0.00    +0.000 Cl
ATOM     10  C   UNL     1       7.466   4.745  15.899  0.00  0.00    +0.000 A 
ATOM     11  C   UNL     1       6.940   4.708  17.190  0.00  0.00    +0.000 A 
ENDBRANCH   2   5
ENDBRANCH   1   2
BRANCH   1  13
ATOM     12  C   UNL     1       1.523   4.348  20.634  0.00  0.00    +0.000 C 
ATOM     13  C   UNL     1       2.319   3.778  19.468  0.00  0.00    +0.000 C 
ENDBRANCH   1  13
BRANCH   1  14
ATOM     14  C   UNL     1       2.930   6.176  19.372  0.00  0.00    +0.000 C 
BRANCH  14  15
ATOM     15  C   UNL     1       2.812   7.352  18.419  0.00  0.00    +0.000 C 
ATOM     16  O   UNL     1       3.547   7.457  17.438  0.00  0.00    +0.000 OA
ATOM     17  N   UNL     1       1.942   8.336  18.807  0.00  0.00    +0.000 N 
ATOM     18  H   UNL     1       1.238   8.095  19.493  0.00  0.00    +0.000 HD
BRANCH  17  19
ATOM     19  C   UNL     1       1.644   9.478  17.969  0.00  0.00    +0.000 C 
BRANCH  19  20
ATOM     20  C   UNL     1       0.490  10.265  18.538  0.00  0.00    +0.000 A 
ATOM     21  C   UNL     1       0.665  11.006  19.706  0.00  0.00    +0.000 A 
ATOM     22  C   UNL     1      -0.428  11.672  20.251  0.00  0.00    +0.000 A 
ATOM     23  C   UNL     1      -1.664  11.576  19.622  0.00  0.00    +0.000 A 
ATOM     24  C   UNL     1      -1.755  10.815  18.469  0.00  0.00    +0.000 A 
ATOM     25  N   UNL     1      -0.715  10.154  17.919  0.00  0.00    +0.000 NA
ENDBRANCH  19  20
ENDBRANCH  17  19
ENDBRANCH  14  15
ENDBRANCH   1  14
TORSDOF 7
ENDMDL
MODEL 7
REMARK VINA RESULT:      -6.8      3.531      5.429
REMARK  Name = 
REMARK  8 active torsions:
REMARK  status: ('A' for Active; 'I' for Inactive)
REMARK    1  A    between atoms: C_1  and  C_2
REMARK    2  A    between atoms: C_2  and  N_3
REMARK    3  A    between atoms: N_3  and  C_4
REMARK    4  A    between atoms: N_3  and  S_15
REMARK    5  A    between atoms: C_4  and  C_5
REMARK    6  A    between atoms: N_7  and  C_8
REMARK    7  A    between atoms: C_8  and  C_9
REMARK    8  A    between atoms: S_15  and  C_18
REMARK                            x       y       z     vdW  Elec       q    Type
REMARK                         _______ _______ _______ _____ _____    ______ ____
ROOT
ATOM      1  N   UNL     1       2.156   3.843  19.268  0.00  0.00    +0.000 NA
ENDROOT
BRANCH   1   2
ATOM      2  S   UNL     1       3.562   2.961  18.743  0.00  0.00    +0.000 S 
ATOM      3  O   UNL     1       4.116   2.261  19.879  0.00  0.00    +0.000 OA
ATOM      4  O   UNL     1       3.186   2.269  17.531  0.00  0.00    +0.000 OA
BRANCH   2   5
ATOM      5  C   UNL     1       4.740   4.221  18.317  0.00  0.00    +0.000 A 
ATOM      6  C   UNL     1       5.714   4.603  19.247  0.00  0.00    +0.000 A 
ATOM      7  C   UNL     1       6.620   5.610  18.912  0.00  0.00    +0.000 A 
ATOM      8  C   UNL     1       6.555   6.216  17.655  0.00  0.00    +0.000 A 
ATOM      9 CL   UNL     1       7.668   7.465  17.251  0.00  0.00    +0.000 Cl
ATOM     10  C   UNL     1       5.593   5.823  16.725  0.00  0.00    +0.000 A 
ATOM     11  C   UNL     1       4.681   4.820  17.053  0.00  0.00    +0.000 A 
ENDBRANCH   2   5
ENDBRANCH   1   2
BRANCH   1  13
ATOM     12  C   UNL     1       1.462   3.075  21.572  0.00  0.00    +0.000 C 
ATOM     13  C   UNL     1       1.212   2.983  20.073  0.00  0.00    +0.000 C 
ENDBRANCH   1  13
BRANCH   1  14
ATOM     14  C   UNL     1       2.556   5.064  20.067  0.00  0.00    +0.000 C 
BRANCH  14  15
ATOM     15  C   UNL     1       2.275   6.446  19.507  0.00  0.00    +0.000 C 
ATOM     16  O   UNL     1       2.463   6.707  18.320  0.00  0.00    +0.000 OA
ATOM     17  N   UNL     1       1.943   7.398  20.435  0.00  0.00    +0.000 N 
ATOM     18  H   UNL     1       1.611   7.077  21.336  0.00  0.00    +0.000 HD
BRANCH  17  19
ATOM     19  C   UNL     1       1.555   8.741  20.060  0.00  0.00    +0.000 C 
BRANCH  19  20
ATOM     20  C   UNL     1       0.650   9.343  21.106  0.00  0.00    +0.000 A 
ATOM     21  C   UNL     1      -0.155  10.434  20.781  0.00  0.00    +0.000 A 
ATOM     22  C   UNL     1      -0.933  11.015  21.777  0.00  0.00    +0.000 A 
ATOM     23  C   UNL     1      -0.883  10.498  23.066  0.00  0.00    +0.000 A 
ATOM     24  C   UNL     1      -0.054   9.417  23.307  0.00  0.00    +0.000 A 
ATOM     25  N   UNL     1       0.717   8.835  22.364  0.00  0.00    +0.000 NA
ENDBRANCH  19  20
ENDBRANCH  17  19
ENDBRANCH  14  15
ENDBRANCH   1  14
TORSDOF 7
ENDMDL
MODEL 8
REMARK VINA RESULT:      -6.7      3.227      4.876
REMARK  Name = 
REMARK  8 active torsions:
REMARK  status: ('A' for Active; 'I' for Inactive)
REMARK    1  A    between atoms: C_1  and  C_2
REMARK    2  A    between atoms: C_2  and  N_3
REMARK    3  A    between atoms: N_3  and  C_4
REMARK    4  A    between atoms: N_3  and  S_15
REMARK    5  A    between atoms: C_4  and  C_5
REMARK    6  A    between atoms: N_7  and  C_8
REMARK    7  A    between atoms: C_8  and  C_9
REMARK    8  A    between atoms: S_15  and  C_18
REMARK                            x       y       z     vdW  Elec       q    Type
REMARK                         _______ _______ _______ _____ _____    ______ ____
ROOT
ATOM      1  N   UNL     1       3.041   4.870  18.675  0.00  0.00    +0.000 NA
ENDROOT
BRANCH   1   2
ATOM      2  S   UNL     1       4.540   3.999  18.823  0.00  0.00    +0.000 S 
ATOM      3  O   UNL     1       5.338   4.626  19.851  0.00  0.00    +0.000 OA
ATOM      4  O   UNL     1       4.199   2.595  18.875  0.00  0.00    +0.000 OA
BRANCH   2   5
ATOM      5  C   UNL     1       5.382   4.306  17.289  0.00  0.00    +0.000 A 
ATOM      6  C   UNL     1       4.686   4.191  16.080  0.00  0.00    +0.000 A 
ATOM      7  C   UNL     1       5.362   4.411  14.879  0.00  0.00    +0.000 A 
ATOM      8  C   UNL     1       6.716   4.753  14.894  0.00  0.00    +0.000 A 
ATOM      9 CL   UNL     1       7.548   5.012  13.410  0.00  0.00    +0.000 Cl
ATOM     10  C   UNL     1       7.404   4.883  16.101  0.00  0.00    +0.000 A 
ATOM     11  C   UNL     1       6.737   4.660  17.306  0.00  0.00    +0.000 A 
ENDBRANCH   2   5
ENDBRANCH   1   2
BRANCH   1  13
ATOM     12  C   UNL     1       1.336   4.142  20.391  0.00  0.00    +0.000 C 
ATOM     13  C   UNL     1       1.844   3.997  18.963  0.00  0.00    +0.000 C 
ENDBRANCH   1  13
BRANCH   1  14
ATOM     14  C   UNL     1       3.031   6.080  19.583  0.00  0.00    +0.000 C 
BRANCH  14  15
ATOM     15  C   UNL     1       2.449   7.387  19.078  0.00  0.00    +0.000 C 
ATOM     16  O   UNL     1       2.701   7.807  17.951  0.00  0.00    +0.000 OA
ATOM     17  N   UNL     1       1.753   8.115  20.007  0.00  0.00    +0.000 N 
ATOM     18  H   UNL     1       1.415   7.627  20.828  0.00  0.00    +0.000 HD
BRANCH  17  19
ATOM     19  C   UNL     1       1.056   9.337  19.666  0.00  0.00    +0.000 C 
BRANCH  19  20
ATOM     20  C   UNL     1       0.277   9.851  20.851  0.00  0.00    +0.000 A 
ATOM     21  C   UNL     1      -0.157  11.176  20.873  0.00  0.00    +0.000 A 
ATOM     22  C   UNL     1      -0.816  11.649  22.003  0.00  0.00    +0.000 A 
ATOM     23  C   UNL     1      -1.019  10.792  23.079  0.00  0.00    +0.000 A 
ATOM     24  C   UNL     1      -0.551   9.493  22.980  0.00  0.00    +0.000 A 
ATOM     25  N   UNL     1       0.096   9.007  21.900  0.00  0.00    +0.000 NA
ENDBRANCH  19  20
ENDBRANCH  17  19
ENDBRANCH  14  15
ENDBRANCH   1  14
TORSDOF 7
ENDMDL
MODEL 9
REMARK VINA RESULT:      -6.7      3.130      4.847
REMARK  Name = 
REMARK  8 active torsions:
REMARK  status: ('A' for Active; 'I' for Inactive)
REMARK    1  A    between atoms: C_1  and  C_2
REMARK    2  A    between atoms: C_2  and  N_3
REMARK    3  A    between atoms: N_3  and  C_4
REMARK    4  A    between atoms: N_3  and  S_15
REMARK    5  A    between atoms: C_4  and  C_5
REMARK    6  A    between atoms: N_7  and  C_8
REMARK    7  A    between atoms: C_8  and  C_9
REMARK    8  A    between atoms: S_15  and  C_18
REMARK                            x       y       z     vdW  Elec       q    Type
REMARK                         _______ _______ _______ _____ _____    ______ ____
ROOT
ATOM      1  N   UNL     1       3.399   4.666  18.903  0.00  0.00    +0.000 NA
ENDROOT
BRANCH   1   2
ATOM      2  S   UNL     1       5.114   4.396  19.025  0.00  0.00    +0.000 S 
ATOM      3  O   UNL     1       5.708   5.516  19.718  0.00  0.00    +0.000 OA
ATOM      4  O   UNL     1       5.287   3.037  19.485  0.00  0.00    +0.000 OA
BRANCH   2   5
ATOM      5  C   UNL     1       5.696   4.489  17.348  0.00  0.00    +0.000 A 
ATOM      6  C   UNL     1       4.804   4.270  16.292  0.00  0.00    +0.000 A 
ATOM      7  C   UNL     1       5.276   4.321  14.979  0.00  0.00    +0.000 A 
ATOM      8  C   UNL     1       6.622   4.602  14.732  0.00  0.00    +0.000 A 
ATOM      9 CL   UNL     1       7.200   4.655  13.112  0.00  0.00    +0.000 Cl
ATOM     10  C   UNL     1       7.504   4.837  15.787  0.00  0.00    +0.000 A 
ATOM     11  C   UNL     1       7.043   4.782  17.102  0.00  0.00    +0.000 A 
ENDBRANCH   2   5
ENDBRANCH   1   2
BRANCH   1  13
ATOM     12  C   UNL     1       1.389   3.143  18.744  0.00  0.00    +0.000 C 
ATOM     13  C   UNL     1       2.601   3.567  19.562  0.00  0.00    +0.000 C 
ENDBRANCH   1  13
BRANCH   1  14
ATOM     14  C   UNL     1       3.023   6.006  19.494  0.00  0.00    +0.000 C 
BRANCH  14  15
ATOM     15  C   UNL     1       2.780   7.186  18.572  0.00  0.00    +0.000 C 
ATOM     16  O   UNL     1       3.423   7.331  17.533  0.00  0.00    +0.000 OA
ATOM     17  N   UNL     1       1.910   8.132  19.048  0.00  0.00    +0.000 N 
ATOM     18  H   UNL     1       1.277   7.856  19.788  0.00  0.00    +0.000 HD
BRANCH  17  19
ATOM     19  C   UNL     1       1.498   9.271  18.254  0.00  0.00    +0.000 C 
BRANCH  19  20
ATOM     20  C   UNL     1       0.497  10.108  19.011  0.00  0.00    +0.000 A 
ATOM     21  C   UNL     1      -0.587  10.670  18.337  0.00  0.00    +0.000 A 
ATOM     22  C   UNL     1      -1.462  11.492  19.039  0.00  0.00    +0.000 A 
ATOM     23  C   UNL     1      -1.230  11.737  20.388  0.00  0.00    +0.000 A 
ATOM     24  C   UNL     1      -0.128  11.146  20.981  0.00  0.00    +0.000 A 
ATOM     25  N   UNL     1       0.742  10.348  20.326  0.00  0.00    +0.000 NA
ENDBRANCH  19  20
ENDBRANCH  17  19
ENDBRANCH  14  15
ENDBRANCH   1  14
TORSDOF 7
ENDMDL
