MODEL 1
REMARK VINA RESULT:      -7.4      0.000      0.000
REMARK  Name = 
REMARK  4 active torsions:
REMARK  status: ('A' for Active; 'I' for Inactive)
REMARK    1  A    between atoms: C_2  and  O_3
REMARK    2  A    between atoms: C_2  and  C_4
REMARK    3  A    between atoms: C_4  and  C_6
REMARK    4  A    between atoms: C_9  and  C_10
REMARK                            x       y       z     vdW  Elec       q    Type
REMARK                         _______ _______ _______ _____ _____    ______ ____
ROOT
ATOM      1  C   UNL     1       4.843   5.181  16.486  0.00  0.00    +0.000 A 
ATOM      2  C   UNL     1       5.032   6.567  16.521  0.00  0.00    +0.000 A 
ATOM      3  C   UNL     1       4.172   7.387  17.264  0.00  0.00    +0.000 A 
ATOM      4  C   UNL     1       3.094   6.861  18.001  0.00  0.00    +0.000 A 
ATOM      5  C   UNL     1       2.929   5.466  17.953  0.00  0.00    +0.000 A 
ATOM      6  F   UNL     1       1.924   4.869  18.614  0.00  0.00    +0.000 F 
ATOM      7  C   UNL     1       3.785   4.637  17.221  0.00  0.00    +0.000 A 
ENDROOT
BRANCH   4   8
ATOM      8  C   UNL     1       2.217   7.751  18.802  0.00  0.00    +0.000 A 
ATOM      9  C   UNL     1       1.616   8.894  18.237  0.00  0.00    +0.000 A 
ATOM     10  C   UNL     1       0.849   9.778  19.006  0.00  0.00    +0.000 A 
ATOM     11  C   UNL     1       0.642   9.526  20.357  0.00  0.00    +0.000 A 
ATOM     12  C   UNL     1       1.197   8.390  20.936  0.00  0.00    +0.000 A 
ATOM     13  C   UNL     1       1.978   7.520  20.168  0.00  0.00    +0.000 A 
ENDBRANCH   4   8
BRANCH   1  14
ATOM     14  C   UNL     1       5.762   4.301  15.676  0.00  0.00    +0.000 C 
ATOM     15  F   UNL     1       5.611   2.975  16.009  0.00  0.00    +0.000 F 
BRANCH  14  17
ATOM     16  O   UNL     1       7.933   4.436  16.804  0.00  0.00    +0.000 OA
ATOM     17  C   UNL     1       7.231   4.689  15.834  0.00  0.00    +0.000 C 
BRANCH  17  18
ATOM     18  O   UNL     1       7.696   5.377  14.758  0.00  0.00    +0.000 OA
ATOM     19  H   UNL     1       6.953   5.784  14.258  0.00  0.00    +0.000 HD
ENDBRANCH  17  18
ENDBRANCH  14  17
ENDBRANCH   1  14
TORSDOF 4
ENDMDL
MODEL 2
REMARK VINA RESULT:      -7.3      1.010      1.214
REMARK  Name = 
REMARK  4 active torsions:
REMARK  status: ('A' for Active; 'I' for Inactive)
REMARK    1  A    between atoms: C_2  and  O_3
REMARK    2  A    between atoms: C_2  and  C_4
REMARK    3  A    between atoms: C_4  and  C_6
REMARK    4  A    between atoms: C_9  and  C_10
REMARK                            x       y       z     vdW  Elec       q    Type
REMARK                         _______ _______ _______ _____ _____    ______ ____
ROOT
ATOM      1  C   UNL     1       5.379   5.065  16.676  0.00  0.00    +0.000 A 
ATOM      2  C   UNL     1       5.631   6.432  16.837  0.00  0.00    +0.000 A 
ATOM      3  C   UNL     1       4.676   7.269  17.429  0.00  0.00    +0.000 A 
ATOM      4  C   UNL     1       3.437   6.781  17.883  0.00  0.00    +0.000 A 
ATOM      5  C   UNL     1       3.211   5.404  17.714  0.00  0.00    +0.000 A 
ATOM      6  F   UNL     1       2.055   4.843  18.106  0.00  0.00    +0.000 F 
ATOM      7  C   UNL     1       4.159   4.556  17.132  0.00  0.00    +0.000 A 
ENDROOT
BRANCH   4   8
ATOM      8  C   UNL     1       2.455   7.686  18.532  0.00  0.00    +0.000 A 
ATOM      9  C   UNL     1       1.848   8.742  17.822  0.00  0.00    +0.000 A 
ATOM     10  C   UNL     1       0.979   9.644  18.448  0.00  0.00    +0.000 A 
ATOM     11  C   UNL     1       0.677   9.498  19.797  0.00  0.00    +0.000 A 
ATOM     12  C   UNL     1       1.237   8.449  20.516  0.00  0.00    +0.000 A 
ATOM     13  C   UNL     1       2.118   7.560  19.892  0.00  0.00    +0.000 A 
ENDBRANCH   4   8
BRANCH   1  14
ATOM     14  C   UNL     1       6.403   4.167  16.028  0.00  0.00    +0.000 C 
ATOM     15  F   UNL     1       7.624   4.260  16.656  0.00  0.00    +0.000 F 
BRANCH  14  17
ATOM     16  O   UNL     1       5.905   4.011  13.632  0.00  0.00    +0.000 OA
ATOM     17  C   UNL     1       6.587   4.469  14.541  0.00  0.00    +0.000 C 
BRANCH  17  18
ATOM     18  O   UNL     1       7.623   5.319  14.317  0.00  0.00    +0.000 OA
ATOM     19  H   UNL     1       7.963   5.684  15.165  0.00  0.00    +0.000 HD
ENDBRANCH  17  18
ENDBRANCH  14  17
ENDBRANCH   1  14
TORSDOF 4
ENDMDL
MODEL 3
REMARK VINA RESULT:      -7.2      1.012      1.663
REMARK  Name = 
REMARK  4 active torsions:
REMARK  status: ('A' for Active; 'I' for Inactive)
REMARK    1  A    between atoms: C_2  and  O_3
REMARK    2  A    between atoms: C_2  and  C_4
REMARK    3  A    between atoms: C_4  and  C_6
REMARK    4  A    between atoms: C_9  and  C_10
REMARK                            x       y       z     vdW  Elec       q    Type
REMARK                         _______ _______ _______ _____ _____    ______ ____
ROOT
ATOM      1  C   UNL     1       5.346   5.020  16.636  0.00  0.00    +0.000 A 
ATOM      2  C   UNL     1       5.625   6.385  16.755  0.00  0.00    +0.000 A 
ATOM      3  C   UNL     1       4.700   7.255  17.347  0.00  0.00    +0.000 A 
ATOM      4  C   UNL     1       3.464   6.801  17.844  0.00  0.00    +0.000 A 
ATOM      5  C   UNL     1       3.209   5.425  17.717  0.00  0.00    +0.000 A 
ATOM      6  F   UNL     1       2.054   4.895  18.151  0.00  0.00    +0.000 F 
ATOM      7  C   UNL     1       4.128   4.545  17.135  0.00  0.00    +0.000 A 
ENDROOT
BRANCH   4   8
ATOM      8  C   UNL     1       2.515   7.741  18.492  0.00  0.00    +0.000 A 
ATOM      9  C   UNL     1       2.156   7.605  19.849  0.00  0.00    +0.000 A 
ATOM     10  C   UNL     1       1.205   8.441  20.445  0.00  0.00    +0.000 A 
ATOM     11  C   UNL     1       0.605   9.453  19.704  0.00  0.00    +0.000 A 
ATOM     12  C   UNL     1       0.960   9.631  18.372  0.00  0.00    +0.000 A 
ATOM     13  C   UNL     1       1.898   8.781  17.775  0.00  0.00    +0.000 A 
ENDBRANCH   4   8
BRANCH   1  14
ATOM     14  C   UNL     1       6.338   4.087  15.987  0.00  0.00    +0.000 C 
ATOM     15  F   UNL     1       7.557   4.126  16.624  0.00  0.00    +0.000 F 
BRANCH  14  17
ATOM     16  O   UNL     1       5.876   3.935  13.584  0.00  0.00    +0.000 OA
ATOM     17  C   UNL     1       6.542   4.392  14.504  0.00  0.00    +0.000 C 
BRANCH  17  18
ATOM     18  O   UNL     1       7.580   5.245  14.297  0.00  0.00    +0.000 OA
ATOM     19  H   UNL     1       8.031   5.455  15.145  0.00  0.00    +0.000 HD
ENDBRANCH  17  18
ENDBRANCH  14  17
ENDBRANCH   1  14
TORSDOF 4
ENDMDL
MODEL 4
REMARK VINA RESULT:      -7.2      2.982      3.833
REMARK  Name = 
REMARK  4 active torsions:
REMARK  status: ('A' for Active; 'I' for Inactive)
REMARK    1  A    between atoms: C_2  and  O_3
REMARK    2  A    between atoms: C_2  and  C_4
REMARK    3  A    between atoms: C_4  and  C_6
REMARK    4  A    between atoms: C_9  and  C_10
REMARK                            x       y       z     vdW  Elec       q    Type
REMARK                         _______ _______ _______ _____ _____    ______ ____
ROOT
ATOM      1  C   UNL     1       5.031   4.732  15.932  0.00  0.00    +0.000 A 
ATOM      2  C   UNL     1       4.529   5.697  16.812  0.00  0.00    +0.000 A 
ATOM      3  C   UNL     1       3.783   5.319  17.936  0.00  0.00    +0.000 A 
ATOM      4  C   UNL     1       3.509   3.970  18.228  0.00  0.00    +0.000 A 
ATOM      5  C   UNL     1       4.028   3.020  17.332  0.00  0.00    +0.000 A 
ATOM      6  F   UNL     1       3.813   1.708  17.517  0.00  0.00    +0.000 F 
ATOM      7  C   UNL     1       4.782   3.385  16.210  0.00  0.00    +0.000 A 
ENDROOT
BRANCH   4   8
ATOM      8  C   UNL     1       2.739   3.597  19.442  0.00  0.00    +0.000 A 
ATOM      9  C   UNL     1       3.351   2.939  20.528  0.00  0.00    +0.000 A 
ATOM     10  C   UNL     1       2.615   2.518  21.642  0.00  0.00    +0.000 A 
ATOM     11  C   UNL     1       1.250   2.767  21.709  0.00  0.00    +0.000 A 
ATOM     12  C   UNL     1       0.623   3.442  20.667  0.00  0.00    +0.000 A 
ATOM     13  C   UNL     1       1.359   3.845  19.547  0.00  0.00    +0.000 A 
ENDBRANCH   4   8
BRANCH   1  14
ATOM     14  C   UNL     1       5.824   5.141  14.715  0.00  0.00    +0.000 C 
ATOM     15  F   UNL     1       5.501   4.371  13.622  0.00  0.00    +0.000 F 
BRANCH  14  17
ATOM     16  O   UNL     1       7.876   4.589  15.938  0.00  0.00    +0.000 OA
ATOM     17  C   UNL     1       7.333   5.064  14.949  0.00  0.00    +0.000 C 
BRANCH  17  18
ATOM     18  O   UNL     1       8.036   5.603  13.919  0.00  0.00    +0.000 OA
ATOM     19  H   UNL     1       7.972   6.585  13.930  0.00  0.00    +0.000 HD
ENDBRANCH  17  18
ENDBRANCH  14  17
ENDBRANCH   1  14
TORSDOF 4
ENDMDL
MODEL 5
REMARK VINA RESULT:      -7.0      3.024      3.731
REMARK  Name = 
REMARK  4 active torsions:
REMARK  status: ('A' for Active; 'I' for Inactive)
REMARK    1  A    between atoms: C_2  and  O_3
REMARK    2  A    between atoms: C_2  and  C_4
REMARK    3  A    between atoms: C_4  and  C_6
REMARK    4  A    between atoms: C_9  and  C_10
REMARK                            x       y       z     vdW  Elec       q    Type
REMARK                         _______ _______ _______ _____ _____    ______ ____
ROOT
ATOM      1  C   UNL     1       5.044   4.658  15.916  0.00  0.00    +0.000 A 
ATOM      2  C   UNL     1       4.515   5.615  16.787  0.00  0.00    +0.000 A 
ATOM      3  C   UNL     1       3.758   5.228  17.901  0.00  0.00    +0.000 A 
ATOM      4  C   UNL     1       3.499   3.875  18.190  0.00  0.00    +0.000 A 
ATOM      5  C   UNL     1       4.045   2.932  17.302  0.00  0.00    +0.000 A 
ATOM      6  F   UNL     1       3.846   1.617  17.486  0.00  0.00    +0.000 F 
ATOM      7  C   UNL     1       4.809   3.307  16.192  0.00  0.00    +0.000 A 
ENDROOT
BRANCH   4   8
ATOM      8  C   UNL     1       2.717   3.492  19.393  0.00  0.00    +0.000 A 
ATOM      9  C   UNL     1       1.343   3.789  19.502  0.00  0.00    +0.000 A 
ATOM     10  C   UNL     1       0.619   3.497  20.664  0.00  0.00    +0.000 A 
ATOM     11  C   UNL     1       1.246   2.878  21.739  0.00  0.00    +0.000 A 
ATOM     12  C   UNL     1       2.592   2.546  21.650  0.00  0.00    +0.000 A 
ATOM     13  C   UNL     1       3.318   2.855  20.494  0.00  0.00    +0.000 A 
ENDBRANCH   4   8
BRANCH   1  14
ATOM     14  C   UNL     1       5.848   5.077  14.710  0.00  0.00    +0.000 C 
ATOM     15  F   UNL     1       5.583   4.276  13.624  0.00  0.00    +0.000 F 
BRANCH  14  17
ATOM     16  O   UNL     1       7.893   4.607  15.979  0.00  0.00    +0.000 OA
ATOM     17  C   UNL     1       7.353   5.066  14.980  0.00  0.00    +0.000 C 
BRANCH  17  18
ATOM     18  O   UNL     1       8.056   5.645  13.972  0.00  0.00    +0.000 OA
ATOM     19  H   UNL     1       8.622   6.372  14.316  0.00  0.00    +0.000 HD
ENDBRANCH  17  18
ENDBRANCH  14  17
ENDBRANCH   1  14
TORSDOF 4
ENDMDL
MODEL 6
REMARK VINA RESULT:      -7.0      2.896      3.884
REMARK  Name = 
REMARK  4 active torsions:
REMARK  status: ('A' for Active; 'I' for Inactive)
REMARK    1  A    between atoms: C_2  and  O_3
REMARK    2  A    between atoms: C_2  and  C_4
REMARK    3  A    between atoms: C_4  and  C_6
REMARK    4  A    between atoms: C_9  and  C_10
REMARK                            x       y       z     vdW  Elec       q    Type
REMARK                         _______ _______ _______ _____ _____    ______ ____
ROOT
ATOM      1  C   UNL     1       5.117   4.725  15.774  0.00  0.00    +0.000 A 
ATOM      2  C   UNL     1       4.764   3.401  16.054  0.00  0.00    +0.000 A 
ATOM      3  C   UNL     1       4.039   3.084  17.210  0.00  0.00    +0.000 A 
ATOM      4  C   UNL     1       3.638   4.070  18.131  0.00  0.00    +0.000 A 
ATOM      5  C   UNL     1       4.002   5.393  17.825  0.00  0.00    +0.000 A 
ATOM      6  F   UNL     1       3.675   6.405  18.645  0.00  0.00    +0.000 F 
ATOM      7  C   UNL     1       4.718   5.723  16.669  0.00  0.00    +0.000 A 
ENDROOT
BRANCH   4   8
ATOM      8  C   UNL     1       2.847   3.709  19.334  0.00  0.00    +0.000 A 
ATOM      9  C   UNL     1       3.424   2.999  20.408  0.00  0.00    +0.000 A 
ATOM     10  C   UNL     1       2.664   2.590  21.510  0.00  0.00    +0.000 A 
ATOM     11  C   UNL     1       1.311   2.903  21.579  0.00  0.00    +0.000 A 
ATOM     12  C   UNL     1       0.721   3.628  20.550  0.00  0.00    +0.000 A 
ATOM     13  C   UNL     1       1.479   4.019  19.441  0.00  0.00    +0.000 A 
ENDBRANCH   4   8
BRANCH   1  14
ATOM     14  C   UNL     1       5.908   5.064  14.534  0.00  0.00    +0.000 C 
ATOM     15  F   UNL     1       5.687   4.148  13.531  0.00  0.00    +0.000 F 
BRANCH  14  17
ATOM     16  O   UNL     1       8.233   5.691  14.079  0.00  0.00    +0.000 OA
ATOM     17  C   UNL     1       7.409   5.150  14.805  0.00  0.00    +0.000 C 
BRANCH  17  18
ATOM     18  O   UNL     1       7.754   4.539  15.968  0.00  0.00    +0.000 OA
ATOM     19  H   UNL     1       8.111   3.638  15.795  0.00  0.00    +0.000 HD
ENDBRANCH  17  18
ENDBRANCH  14  17
ENDBRANCH   1  14
TORSDOF 4
ENDMDL
MODEL 7
REMARK VINA RESULT:      -6.9      2.931      3.803
REMARK  Name = 
REMARK  4 active torsions:
REMARK  status: ('A' for Active; 'I' for Inactive)
REMARK    1  A    between atoms: C_2  and  O_3
REMARK    2  A    between atoms: C_2  and  C_4
REMARK    3  A    between atoms: C_4  and  C_6
REMARK    4  A    between atoms: C_9  and  C_10
REMARK                            x       y       z     vdW  Elec       q    Type
REMARK                         _______ _______ _______ _____ _____    ______ ____
ROOT
ATOM      1  C   UNL     1       5.100   4.735  15.791  0.00  0.00    +0.000 A 
ATOM      2  C   UNL     1       4.795   3.394  16.048  0.00  0.00    +0.000 A 
ATOM      3  C   UNL     1       4.073   3.032  17.193  0.00  0.00    +0.000 A 
ATOM      4  C   UNL     1       3.628   3.988  18.125  0.00  0.00    +0.000 A 
ATOM      5  C   UNL     1       3.943   5.329  17.841  0.00  0.00    +0.000 A 
ATOM      6  F   UNL     1       3.572   6.315  18.674  0.00  0.00    +0.000 F 
ATOM      7  C   UNL     1       4.656   5.703  16.697  0.00  0.00    +0.000 A 
ENDROOT
BRANCH   4   8
ATOM      8  C   UNL     1       2.841   3.580  19.316  0.00  0.00    +0.000 A 
ATOM      9  C   UNL     1       1.469   3.884  19.431  0.00  0.00    +0.000 A 
ATOM     10  C   UNL     1       0.741   3.568  20.584  0.00  0.00    +0.000 A 
ATOM     11  C   UNL     1       1.361   2.915  21.643  0.00  0.00    +0.000 A 
ATOM     12  C   UNL     1       2.705   2.574  21.546  0.00  0.00    +0.000 A 
ATOM     13  C   UNL     1       3.435   2.909  20.400  0.00  0.00    +0.000 A 
ENDBRANCH   4   8
BRANCH   1  14
ATOM     14  C   UNL     1       5.887   5.121  14.563  0.00  0.00    +0.000 C 
ATOM     15  F   UNL     1       5.640   4.263  13.516  0.00  0.00    +0.000 F 
BRANCH  14  17
ATOM     16  O   UNL     1       8.227   5.680  14.094  0.00  0.00    +0.000 OA
ATOM     17  C   UNL     1       7.392   5.163  14.825  0.00  0.00    +0.000 C 
BRANCH  17  18
ATOM     18  O   UNL     1       7.726   4.540  15.985  0.00  0.00    +0.000 OA
ATOM     19  H   UNL     1       6.949   4.482  16.585  0.00  0.00    +0.000 HD
ENDBRANCH  17  18
ENDBRANCH  14  17
ENDBRANCH   1  14
TORSDOF 4
ENDMDL
MODEL 8
REMARK VINA RESULT:      -6.9      3.912      6.579
REMARK  Name = 
REMARK  4 active torsions:
REMARK  status: ('A' for Active; 'I' for Inactive)
REMARK    1  A    between atoms: C_2  and  O_3
REMARK    2  A    between atoms: C_2  and  C_4
REMARK    3  A    between atoms: C_4  and  C_6
REMARK    4  A    between atoms: C_9  and  C_10
REMARK                            x       y       z     vdW  Elec       q    Type
REMARK                         _______ _______ _______ _____ _____    ______ ____
ROOT
ATOM      1  C   UNL     1       2.193   3.706  19.088  0.00  0.00    +0.000 A 
ATOM      2  C   UNL     1       2.910   2.647  18.522  0.00  0.00    +0.000 A 
ATOM      3  C   UNL     1       3.867   2.883  17.525  0.00  0.00    +0.000 A 
ATOM      4  C   UNL     1       4.147   4.179  17.055  0.00  0.00    +0.000 A 
ATOM      5  C   UNL     1       3.416   5.226  17.643  0.00  0.00    +0.000 A 
ATOM      6  F   UNL     1       3.602   6.499  17.255  0.00  0.00    +0.000 F 
ATOM      7  C   UNL     1       2.465   5.004  18.644  0.00  0.00    +0.000 A 
ENDROOT
BRANCH   4   8
ATOM      8  C   UNL     1       5.185   4.403  16.018  0.00  0.00    +0.000 A 
ATOM      9  C   UNL     1       5.016   3.941  14.696  0.00  0.00    +0.000 A 
ATOM     10  C   UNL     1       6.023   4.083  13.734  0.00  0.00    +0.000 A 
ATOM     11  C   UNL     1       7.217   4.713  14.063  0.00  0.00    +0.000 A 
ATOM     12  C   UNL     1       7.401   5.206  15.350  0.00  0.00    +0.000 A 
ATOM     13  C   UNL     1       6.400   5.046  16.314  0.00  0.00    +0.000 A 
ENDBRANCH   4   8
BRANCH   1  14
ATOM     14  C   UNL     1       1.155   3.448  20.152  0.00  0.00    +0.000 C 
ATOM     15  F   UNL     1       0.239   4.473  20.219  0.00  0.00    +0.000 F 
BRANCH  14  17
ATOM     16  O   UNL     1       1.601   2.271  22.256  0.00  0.00    +0.000 OA
ATOM     17  C   UNL     1       1.775   3.245  21.534  0.00  0.00    +0.000 C 
BRANCH  17  18
ATOM     18  O   UNL     1       2.558   4.293  21.902  0.00  0.00    +0.000 OA
ATOM     19  H   UNL     1       2.810   4.222  22.850  0.00  0.00    +0.000 HD
ENDBRANCH  17  18
ENDBRANCH  14  17
ENDBRANCH   1  14
TORSDOF 4
ENDMDL
MODEL 9
REMARK VINA RESULT:      -6.9      3.946      6.644
REMARK  Name = 
REMARK  4 active torsions:
REMARK  status: ('A' for Active; 'I' for Inactive)
REMARK    1  A    between atoms: C_2  and  O_3
REMARK    2  A    between atoms: C_2  and  C_4
REMARK    3  A    between atoms: C_4  and  C_6
REMARK    4  A    between atoms: C_9  and  C_10
REMARK                            x       y       z     vdW  Elec       q    Type
REMARK                         _______ _______ _______ _____ _____    ______ ____
ROOT
ATOM      1  C   UNL     1       2.203   3.681  19.124  0.00  0.00    +0.000 A 
ATOM      2  C   UNL     1       2.906   2.598  18.586  0.00  0.00    +0.000 A 
ATOM      3  C   UNL     1       3.870   2.797  17.588  0.00  0.00    +0.000 A 
ATOM      4  C   UNL     1       4.172   4.077  17.090  0.00  0.00    +0.000 A 
ATOM      5  C   UNL     1       3.455   5.149  17.650  0.00  0.00    +0.000 A 
ATOM      6  F   UNL     1       3.663   6.409  17.235  0.00  0.00    +0.000 F 
ATOM      7  C   UNL     1       2.496   4.964  18.652  0.00  0.00    +0.000 A 
ENDROOT
BRANCH   4   8
ATOM      8  C   UNL     1       5.218   4.261  16.053  0.00  0.00    +0.000 A 
ATOM      9  C   UNL     1       6.445   4.890  16.348  0.00  0.00    +0.000 A 
ATOM     10  C   UNL     1       7.403   5.133  15.357  0.00  0.00    +0.000 A 
ATOM     11  C   UNL     1       7.169   4.731  14.048  0.00  0.00    +0.000 A 
ATOM     12  C   UNL     1       5.982   4.082  13.731  0.00  0.00    +0.000 A 
ATOM     13  C   UNL     1       5.018   3.857  14.720  0.00  0.00    +0.000 A 
ENDBRANCH   4   8
BRANCH   1  14
ATOM     14  C   UNL     1       1.157   3.465  20.189  0.00  0.00    +0.000 C 
ATOM     15  F   UNL     1       0.285   4.526  20.262  0.00  0.00    +0.000 F 
BRANCH  14  17
ATOM     16  O   UNL     1       1.604   2.233  22.261  0.00  0.00    +0.000 OA
ATOM     17  C   UNL     1       1.769   3.230  21.570  0.00  0.00    +0.000 C 
BRANCH  17  18
ATOM     18  O   UNL     1       2.535   4.277  21.973  0.00  0.00    +0.000 OA
ATOM     19  H   UNL     1       1.973   5.005  22.322  0.00  0.00    +0.000 HD
ENDBRANCH  17  18
ENDBRANCH  14  17
ENDBRANCH   1  14
TORSDOF 4
ENDMDL
