MODEL 1
REMARK VINA RESULT:      -7.2      0.000      0.000
REMARK  Name = 
REMARK  7 active torsions:
REMARK  status: ('A' for Active; 'I' for Inactive)
REMARK    1  A    between atoms: C_1  and  C_2
REMARK    2  A    between atoms: C_5  and  O_6
REMARK    3  A    between atoms: O_6  and  C_7
REMARK    4  A    between atoms: C_7  and  C_8
REMARK    5  A    between atoms: N_10  and  C_11
REMARK    6  A    between atoms: N_10  and  C_12
REMARK    7  A    between atoms: C_12  and  C_13
REMARK                            x       y       z     vdW  Elec       q    Type
REMARK                         _______ _______ _______ _____ _____    ______ ____
ROOT
ATOM      1  C   UNL     1       6.167   5.646  18.669  0.00  0.00    +0.000 C 
ATOM      2  O   UNL     1       6.648   5.117  19.676  0.00  0.00    +0.000 OA
ATOM      3  N   UNL     1       4.803   5.900  18.556  0.00  0.00    +0.000 N 
ATOM      4  C   UNL     1       4.178   6.584  17.430  0.00  0.00    +0.000 C 
ENDROOT
BRANCH   1   5
ATOM      5  C   UNL     1       7.109   6.118  17.552  0.00  0.00    +0.000 C 
BRANCH   5   6
ATOM      6  O   UNL     1       7.703   5.052  16.824  0.00  0.00    +0.000 OA
BRANCH   6  11
ATOM      7  C   UNL     1       5.190   3.453  12.054  0.00  0.00    +0.000 C 
ATOM      8  C   UNL     1       5.818   3.823  13.365  0.00  0.00    +0.000 A 
ATOM      9  C   UNL     1       5.267   3.397  14.570  0.00  0.00    +0.000 A 
ATOM     10  C   UNL     1       5.869   3.785  15.770  0.00  0.00    +0.000 A 
ATOM     11  C   UNL     1       7.007   4.586  15.745  0.00  0.00    +0.000 A 
ATOM     12  C   UNL     1       7.487   4.957  14.494  0.00  0.00    +0.000 A 
ATOM     13  N   UNL     1       6.928   4.595  13.313  0.00  0.00    +0.000 NA
ENDBRANCH   6  11
ENDBRANCH   5   6
ENDBRANCH   1   5
BRANCH   3  14
ATOM     14  C   UNL     1       3.926   5.552  19.677  0.00  0.00    +0.000 C 
BRANCH  14  15
ATOM     15  C   UNL     1       2.952   4.422  19.412  0.00  0.00    +0.000 A 
ATOM     16  C   UNL     1       1.688   4.401  20.024  0.00  0.00    +0.000 A 
ATOM     17  C   UNL     1       0.747   3.422  19.695  0.00  0.00    +0.000 A 
ATOM     18  C   UNL     1       1.063   2.459  18.748  0.00  0.00    +0.000 A 
ATOM     19  F   UNL     1       0.154   1.532  18.416  0.00  0.00    +0.000 F 
ATOM     20  C   UNL     1       2.306   2.454  18.126  0.00  0.00    +0.000 A 
ATOM     21  C   UNL     1       3.249   3.432  18.457  0.00  0.00    +0.000 A 
ENDBRANCH  14  15
ENDBRANCH   3  14
TORSDOF 5
ENDMDL
MODEL 2
REMARK VINA RESULT:      -7.1      0.963      1.344
REMARK  Name = 
REMARK  7 active torsions:
REMARK  status: ('A' for Active; 'I' for Inactive)
REMARK    1  A    between atoms: C_1  and  C_2
REMARK    2  A    between atoms: C_5  and  O_6
REMARK    3  A    between atoms: O_6  and  C_7
REMARK    4  A    between atoms: C_7  and  C_8
REMARK    5  A    between atoms: N_10  and  C_11
REMARK    6  A    between atoms: N_10  and  C_12
REMARK    7  A    between atoms: C_12  and  C_13
REMARK                            x       y       z     vdW  Elec       q    Type
REMARK                         _______ _______ _______ _____ _____    ______ ____
ROOT
ATOM      1  C   UNL     1       6.425   5.439  17.732  0.00  0.00    +0.000 C 
ATOM      2  O   UNL     1       7.190   4.688  18.347  0.00  0.00    +0.000 OA
ATOM      3  N   UNL     1       5.124   5.676  18.169  0.00  0.00    +0.000 N 
ATOM      4  C   UNL     1       4.194   6.601  17.535  0.00  0.00    +0.000 C 
ENDROOT
BRANCH   1   5
ATOM      5  C   UNL     1       6.951   6.200  16.507  0.00  0.00    +0.000 C 
BRANCH   5   6
ATOM      6  O   UNL     1       7.727   5.394  15.630  0.00  0.00    +0.000 OA
BRANCH   6  11
ATOM      7  C   UNL     1       4.647   3.072  11.537  0.00  0.00    +0.000 C 
ATOM      8  C   UNL     1       5.515   3.725  12.572  0.00  0.00    +0.000 A 
ATOM      9  C   UNL     1       6.761   4.246  12.238  0.00  0.00    +0.000 A 
ATOM     10  C   UNL     1       7.549   4.823  13.238  0.00  0.00    +0.000 A 
ATOM     11  C   UNL     1       7.078   4.872  14.547  0.00  0.00    +0.000 A 
ATOM     12  C   UNL     1       5.819   4.331  14.782  0.00  0.00    +0.000 A 
ATOM     13  N   UNL     1       5.031   3.766  13.835  0.00  0.00    +0.000 NA
ENDBRANCH   6  11
ENDBRANCH   5   6
ENDBRANCH   1   5
BRANCH   3  14
ATOM     14  C   UNL     1       4.668   5.034  19.404  0.00  0.00    +0.000 C 
BRANCH  14  15
ATOM     15  C   UNL     1       3.478   4.110  19.255  0.00  0.00    +0.000 A 
ATOM     16  C   UNL     1       2.277   4.361  19.940  0.00  0.00    +0.000 A 
ATOM     17  C   UNL     1       1.144   3.574  19.716  0.00  0.00    +0.000 A 
ATOM     18  C   UNL     1       1.203   2.532  18.802  0.00  0.00    +0.000 A 
ATOM     19  F   UNL     1       0.111   1.790  18.571  0.00  0.00    +0.000 F 
ATOM     20  C   UNL     1       2.377   2.259  18.110  0.00  0.00    +0.000 A 
ATOM     21  C   UNL     1       3.512   3.044  18.335  0.00  0.00    +0.000 A 
ENDBRANCH  14  15
ENDBRANCH   3  14
TORSDOF 5
ENDMDL
MODEL 3
REMARK VINA RESULT:      -6.9      0.708      1.505
REMARK  Name = 
REMARK  7 active torsions:
REMARK  status: ('A' for Active; 'I' for Inactive)
REMARK    1  A    between atoms: C_1  and  C_2
REMARK    2  A    between atoms: C_5  and  O_6
REMARK    3  A    between atoms: O_6  and  C_7
REMARK    4  A    between atoms: C_7  and  C_8
REMARK    5  A    between atoms: N_10  and  C_11
REMARK    6  A    between atoms: N_10  and  C_12
REMARK    7  A    between atoms: C_12  and  C_13
REMARK                            x       y       z     vdW  Elec       q    Type
REMARK                         _______ _______ _______ _____ _____    ______ ____
ROOT
ATOM      1  C   UNL     1       6.162   5.759  18.642  0.00  0.00    +0.000 C 
ATOM      2  O   UNL     1       6.449   5.262  19.736  0.00  0.00    +0.000 OA
ATOM      3  N   UNL     1       4.866   6.172  18.343  0.00  0.00    +0.000 N 
ATOM      4  C   UNL     1       4.472   6.829  17.103  0.00  0.00    +0.000 C 
ENDROOT
BRANCH   1   5
ATOM      5  C   UNL     1       7.280   6.011  17.621  0.00  0.00    +0.000 C 
BRANCH   5   6
ATOM      6  O   UNL     1       7.715   4.834  16.955  0.00  0.00    +0.000 OA
BRANCH   6  11
ATOM      7  C   UNL     1       5.118   3.448  12.163  0.00  0.00    +0.000 C 
ATOM      8  C   UNL     1       5.846   3.878  13.402  0.00  0.00    +0.000 A 
ATOM      9  C   UNL     1       6.927   4.752  13.332  0.00  0.00    +0.000 A 
ATOM     10  C   UNL     1       7.594   5.107  14.508  0.00  0.00    +0.000 A 
ATOM     11  C   UNL     1       7.168   4.589  15.727  0.00  0.00    +0.000 A 
ATOM     12  C   UNL     1       6.076   3.729  15.698  0.00  0.00    +0.000 A 
ATOM     13  N   UNL     1       5.408   3.367  14.575  0.00  0.00    +0.000 NA
ENDBRANCH   6  11
ENDBRANCH   5   6
ENDBRANCH   1   5
BRANCH   3  14
ATOM     14  C   UNL     1       3.828   6.033  19.368  0.00  0.00    +0.000 C 
BRANCH  14  15
ATOM     15  C   UNL     1       2.813   4.936  19.120  0.00  0.00    +0.000 A 
ATOM     16  C   UNL     1       2.884   4.134  17.969  0.00  0.00    +0.000 A 
ATOM     17  C   UNL     1       2.018   3.051  17.795  0.00  0.00    +0.000 A 
ATOM     18  C   UNL     1       1.078   2.761  18.772  0.00  0.00    +0.000 A 
ATOM     19  F   UNL     1       0.260   1.710  18.616  0.00  0.00    +0.000 F 
ATOM     20  C   UNL     1       0.984   3.537  19.921  0.00  0.00    +0.000 A 
ATOM     21  C   UNL     1       1.848   4.622  20.095  0.00  0.00    +0.000 A 
ENDBRANCH  14  15
ENDBRANCH   3  14
TORSDOF 5
ENDMDL
MODEL 4
REMARK VINA RESULT:      -6.8      2.486      6.045
REMARK  Name = 
REMARK  7 active torsions:
REMARK  status: ('A' for Active; 'I' for Inactive)
REMARK    1  A    between atoms: C_1  and  C_2
REMARK    2  A    between atoms: C_5  and  O_6
REMARK    3  A    between atoms: O_6  and  C_7
REMARK    4  A    between atoms: C_7  and  C_8
REMARK    5  A    between atoms: N_10  and  C_11
REMARK    6  A    between atoms: N_10  and  C_12
REMARK    7  A    between atoms: C_12  and  C_13
REMARK                            x       y       z     vdW  Elec       q    Type
REMARK                         _______ _______ _______ _____ _____    ______ ____
ROOT
ATOM      1  C   UNL     1       7.167   5.009  17.522  0.00  0.00    +0.000 C 
ATOM      2  O   UNL     1       8.119   4.223  17.466  0.00  0.00    +0.000 OA
ATOM      3  N   UNL     1       6.797   5.789  16.430  0.00  0.00    +0.000 N 
ATOM      4  C   UNL     1       5.646   6.682  16.402  0.00  0.00    +0.000 C 
ENDROOT
BRANCH   1   5
ATOM      5  C   UNL     1       6.315   5.060  18.798  0.00  0.00    +0.000 C 
BRANCH   5   6
ATOM      6  O   UNL     1       5.860   3.784  19.227  0.00  0.00    +0.000 OA
BRANCH   6  11
ATOM      7  C   UNL     1       0.450   2.318  18.767  0.00  0.00    +0.000 C 
ATOM      8  C   UNL     1       1.883   2.757  18.826  0.00  0.00    +0.000 A 
ATOM      9  C   UNL     1       2.482   3.397  17.745  0.00  0.00    +0.000 A 
ATOM     10  C   UNL     1       3.827   3.766  17.831  0.00  0.00    +0.000 A 
ATOM     11  C   UNL     1       4.546   3.494  18.991  0.00  0.00    +0.000 A 
ATOM     12  C   UNL     1       3.861   2.856  20.019  0.00  0.00    +0.000 A 
ATOM     13  N   UNL     1       2.557   2.487  19.967  0.00  0.00    +0.000 NA
ENDBRANCH   6  11
ENDBRANCH   5   6
ENDBRANCH   1   5
BRANCH   3  14
ATOM     14  C   UNL     1       7.546   5.649  15.178  0.00  0.00    +0.000 C 
BRANCH  14  15
ATOM     15  C   UNL     1       6.848   4.859  14.090  0.00  0.00    +0.000 A 
ATOM     16  C   UNL     1       7.490   4.590  12.869  0.00  0.00    +0.000 A 
ATOM     17  C   UNL     1       6.893   3.768  11.910  0.00  0.00    +0.000 A 
ATOM     18  C   UNL     1       5.651   3.206  12.167  0.00  0.00    +0.000 A 
ATOM     19  F   UNL     1       5.086   2.400  11.257  0.00  0.00    +0.000 F 
ATOM     20  C   UNL     1       4.991   3.455  13.365  0.00  0.00    +0.000 A 
ATOM     21  C   UNL     1       5.587   4.280  14.324  0.00  0.00    +0.000 A 
ENDBRANCH  14  15
ENDBRANCH   3  14
TORSDOF 5
ENDMDL
MODEL 5
REMARK VINA RESULT:      -6.8      0.836      1.195
REMARK  Name = 
REMARK  7 active torsions:
REMARK  status: ('A' for Active; 'I' for Inactive)
REMARK    1  A    between atoms: C_1  and  C_2
REMARK    2  A    between atoms: C_5  and  O_6
REMARK    3  A    between atoms: O_6  and  C_7
REMARK    4  A    between atoms: C_7  and  C_8
REMARK    5  A    between atoms: N_10  and  C_11
REMARK    6  A    between atoms: N_10  and  C_12
REMARK    7  A    between atoms: C_12  and  C_13
REMARK                            x       y       z     vdW  Elec       q    Type
REMARK                         _______ _______ _______ _____ _____    ______ ____
ROOT
ATOM      1  C   UNL     1       5.928   5.854  18.545  0.00  0.00    +0.000 C 
ATOM      2  O   UNL     1       5.973   5.375  19.682  0.00  0.00    +0.000 OA
ATOM      3  N   UNL     1       4.749   6.370  18.014  0.00  0.00    +0.000 N 
ATOM      4  C   UNL     1       4.639   7.012  16.710  0.00  0.00    +0.000 C 
ENDROOT
BRANCH   1   5
ATOM      5  C   UNL     1       7.225   5.967  17.730  0.00  0.00    +0.000 C 
BRANCH   5   6
ATOM      6  O   UNL     1       7.606   4.751  17.101  0.00  0.00    +0.000 OA
BRANCH   6  11
ATOM      7  C   UNL     1       5.210   3.471  12.177  0.00  0.00    +0.000 C 
ATOM      8  C   UNL     1       5.887   3.873  13.454  0.00  0.00    +0.000 A 
ATOM      9  C   UNL     1       6.983   4.730  13.445  0.00  0.00    +0.000 A 
ATOM     10  C   UNL     1       7.601   5.059  14.655  0.00  0.00    +0.000 A 
ATOM     11  C   UNL     1       7.112   4.532  15.846  0.00  0.00    +0.000 A 
ATOM     12  C   UNL     1       6.009   3.690  15.755  0.00  0.00    +0.000 A 
ATOM     13  N   UNL     1       5.387   3.354  14.599  0.00  0.00    +0.000 NA
ENDBRANCH   6  11
ENDBRANCH   5   6
ENDBRANCH   1   5
BRANCH   3  14
ATOM     14  C   UNL     1       3.541   6.363  18.843  0.00  0.00    +0.000 C 
BRANCH  14  15
ATOM     15  C   UNL     1       2.757   5.067  18.838  0.00  0.00    +0.000 A 
ATOM     16  C   UNL     1       1.863   4.760  19.877  0.00  0.00    +0.000 A 
ATOM     17  C   UNL     1       1.057   3.620  19.818  0.00  0.00    +0.000 A 
ATOM     18  C   UNL     1       1.137   2.781  18.716  0.00  0.00    +0.000 A 
ATOM     19  F   UNL     1       0.349   1.698  18.647  0.00  0.00    +0.000 F 
ATOM     20  C   UNL     1       2.011   3.059  17.672  0.00  0.00    +0.000 A 
ATOM     21  C   UNL     1       2.820   4.198  17.732  0.00  0.00    +0.000 A 
ENDBRANCH  14  15
ENDBRANCH   3  14
TORSDOF 5
ENDMDL
MODEL 6
REMARK VINA RESULT:      -6.7      5.904      8.049
REMARK  Name = 
REMARK  7 active torsions:
REMARK  status: ('A' for Active; 'I' for Inactive)
REMARK    1  A    between atoms: C_1  and  C_2
REMARK    2  A    between atoms: C_5  and  O_6
REMARK    3  A    between atoms: O_6  and  C_7
REMARK    4  A    between atoms: C_7  and  C_8
REMARK    5  A    between atoms: N_10  and  C_11
REMARK    6  A    between atoms: N_10  and  C_12
REMARK    7  A    between atoms: C_12  and  C_13
REMARK                            x       y       z     vdW  Elec       q    Type
REMARK                         _______ _______ _______ _____ _____    ______ ____
ROOT
ATOM      1  C   UNL     1       1.410   8.947  18.944  0.00  0.00    +0.000 C 
ATOM      2  O   UNL     1       1.825   8.896  17.781  0.00  0.00    +0.000 OA
ATOM      3  N   UNL     1       1.821   8.031  19.908  0.00  0.00    +0.000 N 
ATOM      4  C   UNL     1       1.428   8.074  21.311  0.00  0.00    +0.000 C 
ENDROOT
BRANCH   1   5
ATOM      5  C   UNL     1       0.489  10.104  19.357  0.00  0.00    +0.000 C 
BRANCH   5   6
ATOM      6  O   UNL     1      -0.014  10.848  18.256  0.00  0.00    +0.000 OA
BRANCH   6  11
ATOM      7  C   UNL     1      -5.620  11.123  17.912  0.00  0.00    +0.000 C 
ATOM      8  C   UNL     1      -4.125  11.008  17.935  0.00  0.00    +0.000 A 
ATOM      9  C   UNL     1      -3.464  10.088  17.127  0.00  0.00    +0.000 A 
ATOM     10  C   UNL     1      -2.071   9.995  17.198  0.00  0.00    +0.000 A 
ATOM     11  C   UNL     1      -1.367  10.822  18.068  0.00  0.00    +0.000 A 
ATOM     12  C   UNL     1      -2.113  11.713  18.831  0.00  0.00    +0.000 A 
ATOM     13  N   UNL     1      -3.464  11.828  18.783  0.00  0.00    +0.000 NA
ENDBRANCH   6  11
ENDBRANCH   5   6
ENDBRANCH   1   5
BRANCH   3  14
ATOM     14  C   UNL     1       2.790   6.999  19.533  0.00  0.00    +0.000 C 
BRANCH  14  15
ATOM     15  C   UNL     1       2.215   5.614  19.320  0.00  0.00    +0.000 A 
ATOM     16  C   UNL     1       1.650   4.895  20.387  0.00  0.00    +0.000 A 
ATOM     17  C   UNL     1       1.019   3.667  20.171  0.00  0.00    +0.000 A 
ATOM     18  C   UNL     1       0.946   3.151  18.886  0.00  0.00    +0.000 A 
ATOM     19  F   UNL     1       0.322   1.983  18.674  0.00  0.00    +0.000 F 
ATOM     20  C   UNL     1       1.496   3.839  17.811  0.00  0.00    +0.000 A 
ATOM     21  C   UNL     1       2.130   5.067  18.026  0.00  0.00    +0.000 A 
ENDBRANCH  14  15
ENDBRANCH   3  14
TORSDOF 5
ENDMDL
MODEL 7
REMARK VINA RESULT:      -6.6      5.767      7.091
REMARK  Name = 
REMARK  7 active torsions:
REMARK  status: ('A' for Active; 'I' for Inactive)
REMARK    1  A    between atoms: C_1  and  C_2
REMARK    2  A    between atoms: C_5  and  O_6
REMARK    3  A    between atoms: O_6  and  C_7
REMARK    4  A    between atoms: C_7  and  C_8
REMARK    5  A    between atoms: N_10  and  C_11
REMARK    6  A    between atoms: N_10  and  C_12
REMARK    7  A    between atoms: C_12  and  C_13
REMARK                            x       y       z     vdW  Elec       q    Type
REMARK                         _______ _______ _______ _____ _____    ______ ____
ROOT
ATOM      1  C   UNL     1       1.712   9.133  18.533  0.00  0.00    +0.000 C 
ATOM      2  O   UNL     1       2.031   9.508  17.401  0.00  0.00    +0.000 OA
ATOM      3  N   UNL     1       0.846   9.874  19.333  0.00  0.00    +0.000 N 
ATOM      4  C   UNL     1       0.372   9.458  20.647  0.00  0.00    +0.000 C 
ENDROOT
BRANCH   1   5
ATOM      5  C   UNL     1       2.209   7.770  19.036  0.00  0.00    +0.000 C 
BRANCH   5   6
ATOM      6  O   UNL     1       3.028   7.085  18.098  0.00  0.00    +0.000 OA
BRANCH   6  11
ATOM      7  C   UNL     1       3.523   1.496  18.476  0.00  0.00    +0.000 C 
ATOM      8  C   UNL     1       3.312   2.977  18.370  0.00  0.00    +0.000 A 
ATOM      9  C   UNL     1       2.099   3.498  17.928  0.00  0.00    +0.000 A 
ATOM     10  C   UNL     1       1.952   4.884  17.819  0.00  0.00    +0.000 A 
ATOM     11  C   UNL     1       3.013   5.720  18.156  0.00  0.00    +0.000 A 
ATOM     12  C   UNL     1       4.182   5.107  18.592  0.00  0.00    +0.000 A 
ATOM     13  N   UNL     1       4.355   3.768  18.710  0.00  0.00    +0.000 NA
ENDBRANCH   6  11
ENDBRANCH   5   6
ENDBRANCH   1   5
BRANCH   3  14
ATOM     14  C   UNL     1       0.285  11.117  18.800  0.00  0.00    +0.000 C 
BRANCH  14  15
ATOM     15  C   UNL     1      -1.171  11.048  18.385  0.00  0.00    +0.000 A 
ATOM     16  C   UNL     1      -1.623  10.052  17.503  0.00  0.00    +0.000 A 
ATOM     17  C   UNL     1      -2.983   9.918  17.209  0.00  0.00    +0.000 A 
ATOM     18  C   UNL     1      -3.900  10.776  17.798  0.00  0.00    +0.000 A 
ATOM     19  F   UNL     1      -5.206  10.635  17.533  0.00  0.00    +0.000 F 
ATOM     20  C   UNL     1      -3.482  11.771  18.674  0.00  0.00    +0.000 A 
ATOM     21  C   UNL     1      -2.121  11.908  18.967  0.00  0.00    +0.000 A 
ENDBRANCH  14  15
ENDBRANCH   3  14
TORSDOF 5
ENDMDL
MODEL 8
REMARK VINA RESULT:      -6.6      5.475      7.909
REMARK  Name = 
REMARK  7 active torsions:
REMARK  status: ('A' for Active; 'I' for Inactive)
REMARK    1  A    between atoms: C_1  and  C_2
REMARK    2  A    between atoms: C_5  and  O_6
REMARK    3  A    between atoms: O_6  and  C_7
REMARK    4  A    between atoms: C_7  and  C_8
REMARK    5  A    between atoms: N_10  and  C_11
REMARK    6  A    between atoms: N_10  and  C_12
REMARK    7  A    between atoms: C_12  and  C_13
REMARK                            x       y       z     vdW  Elec       q    Type
REMARK                         _______ _______ _______ _____ _____    ______ ____
ROOT
ATOM      1  C   UNL     1       2.179   8.431  18.419  0.00  0.00    +0.000 C 
ATOM      2  O   UNL     1       2.889   8.036  17.489  0.00  0.00    +0.000 OA
ATOM      3  N   UNL     1       2.076   7.723  19.614  0.00  0.00    +0.000 N 
ATOM      4  C   UNL     1       1.316   8.165  20.776  0.00  0.00    +0.000 C 
ENDROOT
BRANCH   1   5
ATOM      5  C   UNL     1       1.464   9.784  18.290  0.00  0.00    +0.000 C 
BRANCH   5   6
ATOM      6  O   UNL     1       0.158   9.683  17.741  0.00  0.00    +0.000 OA
BRANCH   6  11
ATOM      7  C   UNL     1      -3.419  13.068  20.457  0.00  0.00    +0.000 C 
ATOM      8  C   UNL     1      -2.515  12.166  19.670  0.00  0.00    +0.000 A 
ATOM      9  C   UNL     1      -2.969  11.517  18.526  0.00  0.00    +0.000 A 
ATOM     10  C   UNL     1      -2.102  10.665  17.836  0.00  0.00    +0.000 A 
ATOM     11  C   UNL     1      -0.802  10.482  18.296  0.00  0.00    +0.000 A 
ATOM     12  C   UNL     1      -0.437  11.177  19.444  0.00  0.00    +0.000 A 
ATOM     13  N   UNL     1      -1.254  12.011  20.134  0.00  0.00    +0.000 NA
ENDBRANCH   6  11
ENDBRANCH   5   6
ENDBRANCH   1   5
BRANCH   3  14
ATOM     14  C   UNL     1       2.854   6.491  19.772  0.00  0.00    +0.000 C 
BRANCH  14  15
ATOM     15  C   UNL     1       2.114   5.210  19.446  0.00  0.00    +0.000 A 
ATOM     16  C   UNL     1       2.143   4.670  18.149  0.00  0.00    +0.000 A 
ATOM     17  C   UNL     1       1.556   3.432  17.874  0.00  0.00    +0.000 A 
ATOM     18  C   UNL     1       0.940   2.723  18.895  0.00  0.00    +0.000 A 
ATOM     19  F   UNL     1       0.396   1.526  18.637  0.00  0.00    +0.000 F 
ATOM     20  C   UNL     1       0.896   3.232  20.188  0.00  0.00    +0.000 A 
ATOM     21  C   UNL     1       1.480   4.473  20.463  0.00  0.00    +0.000 A 
ENDBRANCH  14  15
ENDBRANCH   3  14
TORSDOF 5
ENDMDL
MODEL 9
REMARK VINA RESULT:      -6.6      3.168      4.147
REMARK  Name = 
REMARK  7 active torsions:
REMARK  status: ('A' for Active; 'I' for Inactive)
REMARK    1  A    between atoms: C_1  and  C_2
REMARK    2  A    between atoms: C_5  and  O_6
REMARK    3  A    between atoms: O_6  and  C_7
REMARK    4  A    between atoms: C_7  and  C_8
REMARK    5  A    between atoms: N_10  and  C_11
REMARK    6  A    between atoms: N_10  and  C_12
REMARK    7  A    between atoms: C_12  and  C_13
REMARK                            x       y       z     vdW  Elec       q    Type
REMARK                         _______ _______ _______ _____ _____    ______ ____
ROOT
ATOM      1  C   UNL     1       4.080   4.870  19.077  0.00  0.00    +0.000 C 
ATOM      2  O   UNL     1       4.910   5.500  19.740  0.00  0.00    +0.000 OA
ATOM      3  N   UNL     1       2.711   5.020  19.284  0.00  0.00    +0.000 N 
ATOM      4  C   UNL     1       1.677   4.364  18.494  0.00  0.00    +0.000 C 
ENDROOT
BRANCH   1   5
ATOM      5  C   UNL     1       4.567   3.969  17.933  0.00  0.00    +0.000 C 
BRANCH   5   6
ATOM      6  O   UNL     1       5.945   4.137  17.628  0.00  0.00    +0.000 OA
BRANCH   6  11
ATOM      7  C   UNL     1       7.609   5.189  12.360  0.00  0.00    +0.000 C 
ATOM      8  C   UNL     1       7.129   4.842  13.738  0.00  0.00    +0.000 A 
ATOM      9  C   UNL     1       6.125   3.898  13.931  0.00  0.00    +0.000 A 
ATOM     10  C   UNL     1       5.689   3.622  15.230  0.00  0.00    +0.000 A 
ATOM     11  C   UNL     1       6.263   4.289  16.308  0.00  0.00    +0.000 A 
ATOM     12  C   UNL     1       7.263   5.211  16.017  0.00  0.00    +0.000 A 
ATOM     13  N   UNL     1       7.709   5.499  14.769  0.00  0.00    +0.000 NA
ENDBRANCH   6  11
ENDBRANCH   5   6
ENDBRANCH   1   5
BRANCH   3  14
ATOM     14  C   UNL     1       2.253   5.970  20.301  0.00  0.00    +0.000 C 
BRANCH  14  15
ATOM     15  C   UNL     1       1.981   7.374  19.802  0.00  0.00    +0.000 A 
ATOM     16  C   UNL     1       2.321   7.753  18.493  0.00  0.00    +0.000 A 
ATOM     17  C   UNL     1       1.970   9.011  17.996  0.00  0.00    +0.000 A 
ATOM     18  C   UNL     1       1.273   9.898  18.804  0.00  0.00    +0.000 A 
ATOM     19  F   UNL     1       0.917  11.096  18.322  0.00  0.00    +0.000 F 
ATOM     20  C   UNL     1       0.924   9.551  20.104  0.00  0.00    +0.000 A 
ATOM     21  C   UNL     1       1.277   8.293  20.603  0.00  0.00    +0.000 A 
ENDBRANCH  14  15
ENDBRANCH   3  14
TORSDOF 5
ENDMDL
