MODEL 1
REMARK VINA RESULT:      -8.2      0.000      0.000
REMARK  Name = 
REMARK  5 active torsions:
REMARK  status: ('A' for Active; 'I' for Inactive)
REMARK    1  A    between atoms: C_3  and  C_4
REMARK    2  A    between atoms: C_4  and  O_5
REMARK    3  A    between atoms: O_5  and  C_6
REMARK    4  A    between atoms: C_9  and  C_10
REMARK    5  A    between atoms: C_20  and  C_21
REMARK                            x       y       z     vdW  Elec       q    Type
REMARK                         _______ _______ _______ _____ _____    ______ ____
ROOT
ATOM      1  F   UNL     1       4.893   6.602  14.940  0.00  0.00    +0.000 F 
ATOM      2  C   UNL     1       5.650   6.035  15.895  0.00  0.00    +0.000 A 
ATOM      3  C   UNL     1       5.440   6.404  17.227  0.00  0.00    +0.000 A 
ATOM      4  C   UNL     1       6.208   5.785  18.225  0.00  0.00    +0.000 A 
ATOM      5  C   UNL     1       7.163   4.826  17.891  0.00  0.00    +0.000 A 
ATOM      6  C   UNL     1       7.364   4.476  16.554  0.00  0.00    +0.000 A 
ATOM      7  C   UNL     1       6.612   5.080  15.536  0.00  0.00    +0.000 A 
ENDROOT
BRANCH   7   8
ATOM      8  C   UNL     1       6.838   4.704  14.145  0.00  0.00    +0.000 A 
ATOM      9  N   UNL     1       7.613   5.303  13.257  0.00  0.00    +0.000 NA
ATOM     10  N   UNL     1       7.492   4.591  12.089  0.00  0.00    +0.000 NA
ATOM     11  N   UNL     1       6.657   3.574  12.235  0.00  0.00    +0.000 NA
ATOM     12  N   UNL     1       6.253   3.640  13.508  0.00  0.00    +0.000 N 
ATOM     13  H   UNL     1       5.598   2.959  13.871  0.00  0.00    +0.000 HD
ENDBRANCH   7   8
BRANCH   3  14
ATOM     14  C   UNL     1       4.343   7.370  17.602  0.00  0.00    +0.000 C 
BRANCH  14  15
ATOM     15  O   UNL     1       3.082   6.718  17.444  0.00  0.00    +0.000 OA
BRANCH  15  16
ATOM     16  C   UNL     1       2.757   5.741  18.349  0.00  0.00    +0.000 A 
ATOM     17  C   UNL     1       2.499   6.238  19.637  0.00  0.00    +0.000 A 
ATOM     18  C   UNL     1       2.248   5.379  20.714  0.00  0.00    +0.000 A 
ATOM     19  C   UNL     1       2.258   3.994  20.525  0.00  0.00    +0.000 A 
ATOM     20  C   UNL     1       2.515   3.497  19.239  0.00  0.00    +0.000 A 
ATOM     21  C   UNL     1       2.778   4.353  18.161  0.00  0.00    +0.000 A 
ATOM     22 CL   UNL     1       3.212   3.559  16.691  0.00  0.00    +0.000 Cl
BRANCH  19  23
ATOM     23  C   UNL     1       2.038   3.024  21.659  0.00  0.00    +0.000 C 
ATOM     24  F   UNL     1       0.794   2.473  21.677  0.00  0.00    +0.000 F 
ATOM     25  F   UNL     1       2.912   1.981  21.623  0.00  0.00    +0.000 F 
ATOM     26  F   UNL     1       2.206   3.609  22.877  0.00  0.00    +0.000 F 
ENDBRANCH  19  23
ENDBRANCH  15  16
ENDBRANCH  14  15
ENDBRANCH   3  14
TORSDOF 5
ENDMDL
MODEL 2
REMARK VINA RESULT:      -8.1      4.442      5.765
REMARK  Name = 
REMARK  5 active torsions:
REMARK  status: ('A' for Active; 'I' for Inactive)
REMARK    1  A    between atoms: C_3  and  C_4
REMARK    2  A    between atoms: C_4  and  O_5
REMARK    3  A    between atoms: O_5  and  C_6
REMARK    4  A    between atoms: C_9  and  C_10
REMARK    5  A    between atoms: C_20  and  C_21
REMARK                            x       y       z     vdW  Elec       q    Type
REMARK                         _______ _______ _______ _____ _____    ______ ____
ROOT
ATOM      1  F   UNL     1       4.579   5.795  19.799  0.00  0.00    +0.000 F 
ATOM      2  C   UNL     1       3.774   5.047  19.025  0.00  0.00    +0.000 A 
ATOM      3  C   UNL     1       2.419   4.952  19.359  0.00  0.00    +0.000 A 
ATOM      4  C   UNL     1       1.574   4.199  18.530  0.00  0.00    +0.000 A 
ATOM      5  C   UNL     1       2.080   3.556  17.401  0.00  0.00    +0.000 A 
ATOM      6  C   UNL     1       3.437   3.656  17.088  0.00  0.00    +0.000 A 
ATOM      7  C   UNL     1       4.305   4.401  17.900  0.00  0.00    +0.000 A 
ENDROOT
BRANCH   7   8
ATOM      8  C   UNL     1       5.720   4.492  17.560  0.00  0.00    +0.000 A 
ATOM      9  N   UNL     1       6.257   4.837  16.403  0.00  0.00    +0.000 NA
ATOM     10  N   UNL     1       7.619   4.767  16.567  0.00  0.00    +0.000 NA
ATOM     11  N   UNL     1       7.931   4.382  17.794  0.00  0.00    +0.000 NA
ATOM     12  N   UNL     1       6.758   4.213  18.412  0.00  0.00    +0.000 N 
ATOM     13  H   UNL     1       6.729   3.914  19.379  0.00  0.00    +0.000 HD
ENDBRANCH   7   8
BRANCH   3  14
ATOM     14  C   UNL     1       1.850   5.724  20.524  0.00  0.00    +0.000 C 
BRANCH  14  15
ATOM     15  O   UNL     1       2.452   7.018  20.557  0.00  0.00    +0.000 OA
BRANCH  15  16
ATOM     16  C   UNL     1       1.696   8.078  20.126  0.00  0.00    +0.000 A 
ATOM     17  C   UNL     1       0.749   8.509  21.070  0.00  0.00    +0.000 A 
ATOM     18  C   UNL     1      -0.178   9.514  20.767  0.00  0.00    +0.000 A 
ATOM     19  C   UNL     1      -0.182  10.108  19.501  0.00  0.00    +0.000 A 
ATOM     20  C   UNL     1       0.764   9.680  18.559  0.00  0.00    +0.000 A 
ATOM     21  C   UNL     1       1.686   8.665  18.854  0.00  0.00    +0.000 A 
ATOM     22 CL   UNL     1       2.673   8.173  17.527  0.00  0.00    +0.000 Cl
BRANCH  19  23
ATOM     23  C   UNL     1      -1.186  11.163  19.110  0.00  0.00    +0.000 C 
ATOM     24  F   UNL     1      -1.695  11.854  20.166  0.00  0.00    +0.000 F 
ATOM     25  F   UNL     1      -0.656  12.094  18.270  0.00  0.00    +0.000 F 
ATOM     26  F   UNL     1      -2.258  10.637  18.456  0.00  0.00    +0.000 F 
ENDBRANCH  19  23
ENDBRANCH  15  16
ENDBRANCH  14  15
ENDBRANCH   3  14
TORSDOF 5
ENDMDL
MODEL 3
REMARK VINA RESULT:      -8.1      4.647      5.779
REMARK  Name = 
REMARK  5 active torsions:
REMARK  status: ('A' for Active; 'I' for Inactive)
REMARK    1  A    between atoms: C_3  and  C_4
REMARK    2  A    between atoms: C_4  and  O_5
REMARK    3  A    between atoms: O_5  and  C_6
REMARK    4  A    between atoms: C_9  and  C_10
REMARK    5  A    between atoms: C_20  and  C_21
REMARK                            x       y       z     vdW  Elec       q    Type
REMARK                         _______ _______ _______ _____ _____    ______ ____
ROOT
ATOM      1  F   UNL     1       4.737   6.130  19.352  0.00  0.00    +0.000 F 
ATOM      2  C   UNL     1       3.920   5.256  18.740  0.00  0.00    +0.000 A 
ATOM      3  C   UNL     1       2.566   5.243  19.090  0.00  0.00    +0.000 A 
ATOM      4  C   UNL     1       1.709   4.354  18.425  0.00  0.00    +0.000 A 
ATOM      5  C   UNL     1       2.201   3.499  17.440  0.00  0.00    +0.000 A 
ATOM      6  C   UNL     1       3.557   3.521  17.109  0.00  0.00    +0.000 A 
ATOM      7  C   UNL     1       4.438   4.399  17.759  0.00  0.00    +0.000 A 
ENDROOT
BRANCH   7   8
ATOM      8  C   UNL     1       5.852   4.406  17.403  0.00  0.00    +0.000 A 
ATOM      9  N   UNL     1       6.389   4.606  16.212  0.00  0.00    +0.000 NA
ATOM     10  N   UNL     1       7.749   4.510  16.375  0.00  0.00    +0.000 NA
ATOM     11  N   UNL     1       8.061   4.250  17.635  0.00  0.00    +0.000 NA
ATOM     12  N   UNL     1       6.888   4.188  18.274  0.00  0.00    +0.000 N 
ATOM     13  H   UNL     1       6.859   3.996  19.268  0.00  0.00    +0.000 HD
ENDBRANCH   7   8
BRANCH   3  14
ATOM     14  C   UNL     1       2.012   6.231  20.086  0.00  0.00    +0.000 C 
BRANCH  14  15
ATOM     15  O   UNL     1       2.128   7.547  19.543  0.00  0.00    +0.000 OA
BRANCH  15  16
ATOM     16  C   UNL     1       1.451   8.555  20.179  0.00  0.00    +0.000 A 
ATOM     17  C   UNL     1       0.875   8.159  21.398  0.00  0.00    +0.000 A 
ATOM     18  C   UNL     1       0.063   9.028  22.137  0.00  0.00    +0.000 A 
ATOM     19  C   UNL     1      -0.198  10.318  21.666  0.00  0.00    +0.000 A 
ATOM     20  C   UNL     1       0.377  10.715  20.450  0.00  0.00    +0.000 A 
ATOM     21  C   UNL     1       1.181   9.844  19.700  0.00  0.00    +0.000 A 
ATOM     22 CL   UNL     1       1.680  10.456  18.167  0.00  0.00    +0.000 Cl
BRANCH  19  23
ATOM     23  C   UNL     1      -1.101  11.277  22.401  0.00  0.00    +0.000 C 
ATOM     24  F   UNL     1      -0.467  12.394  22.849  0.00  0.00    +0.000 F 
ATOM     25  F   UNL     1      -2.132  11.713  21.626  0.00  0.00    +0.000 F 
ATOM     26  F   UNL     1      -1.675  10.707  23.497  0.00  0.00    +0.000 F 
ENDBRANCH  19  23
ENDBRANCH  15  16
ENDBRANCH  14  15
ENDBRANCH   3  14
TORSDOF 5
ENDMDL
MODEL 4
REMARK VINA RESULT:      -7.9      1.239      1.907
REMARK  Name = 
REMARK  5 active torsions:
REMARK  status: ('A' for Active; 'I' for Inactive)
REMARK    1  A    between atoms: C_3  and  C_4
REMARK    2  A    between atoms: C_4  and  O_5
REMARK    3  A    between atoms: O_5  and  C_6
REMARK    4  A    between atoms: C_9  and  C_10
REMARK    5  A    between atoms: C_20  and  C_21
REMARK                            x       y       z     vdW  Elec       q    Type
REMARK                         _______ _______ _______ _____ _____    ______ ____
ROOT
ATOM      1  F   UNL     1       4.846   6.643  14.986  0.00  0.00    +0.000 F 
ATOM      2  C   UNL     1       5.668   6.140  15.923  0.00  0.00    +0.000 A 
ATOM      3  C   UNL     1       5.538   6.586  17.242  0.00  0.00    +0.000 A 
ATOM      4  C   UNL     1       6.374   6.035  18.224  0.00  0.00    +0.000 A 
ATOM      5  C   UNL     1       7.318   5.066  17.887  0.00  0.00    +0.000 A 
ATOM      6  C   UNL     1       7.439   4.639  16.563  0.00  0.00    +0.000 A 
ATOM      7  C   UNL     1       6.618   5.174  15.561  0.00  0.00    +0.000 A 
ENDROOT
BRANCH   7   8
ATOM      8  C   UNL     1       6.761   4.719  14.182  0.00  0.00    +0.000 A 
ATOM      9  N   UNL     1       6.146   3.709  13.593  0.00  0.00    +0.000 NA
ATOM     10  N   UNL     1       6.611   3.667  12.302  0.00  0.00    +0.000 NA
ATOM     11  N   UNL     1       7.502   4.622  12.085  0.00  0.00    +0.000 NA
ATOM     12  N   UNL     1       7.594   5.276  13.247  0.00  0.00    +0.000 N 
ATOM     13  H   UNL     1       8.223   6.064  13.340  0.00  0.00    +0.000 HD
ENDBRANCH   7   8
BRANCH   3  14
ATOM     14  C   UNL     1       4.454   7.563  17.627  0.00  0.00    +0.000 C 
BRANCH  14  15
ATOM     15  O   UNL     1       3.191   6.900  17.558  0.00  0.00    +0.000 OA
BRANCH  15  16
ATOM     16  C   UNL     1       2.914   5.965  18.522  0.00  0.00    +0.000 A 
ATOM     17  C   UNL     1       3.123   4.644  18.094  0.00  0.00    +0.000 A 
ATOM     18  C   UNL     1       2.798   3.553  18.909  0.00  0.00    +0.000 A 
ATOM     19  C   UNL     1       2.247   3.762  20.177  0.00  0.00    +0.000 A 
ATOM     20  C   UNL     1       2.039   5.081  20.606  0.00  0.00    +0.000 A 
ATOM     21  C   UNL     1       2.352   6.176  19.787  0.00  0.00    +0.000 A 
ATOM     22 CL   UNL     1       1.895   7.713  20.425  0.00  0.00    +0.000 Cl
BRANCH  19  23
ATOM     23  C   UNL     1       1.839   2.622  21.076  0.00  0.00    +0.000 C 
ATOM     24  F   UNL     1       2.821   2.214  21.925  0.00  0.00    +0.000 F 
ATOM     25  F   UNL     1       0.771   2.939  21.859  0.00  0.00    +0.000 F 
ATOM     26  F   UNL     1       1.470   1.517  20.371  0.00  0.00    +0.000 F 
ENDBRANCH  19  23
ENDBRANCH  15  16
ENDBRANCH  14  15
ENDBRANCH   3  14
TORSDOF 5
ENDMDL
MODEL 5
REMARK VINA RESULT:      -7.9      5.793      8.324
REMARK  Name = 
REMARK  5 active torsions:
REMARK  status: ('A' for Active; 'I' for Inactive)
REMARK    1  A    between atoms: C_3  and  C_4
REMARK    2  A    between atoms: C_4  and  O_5
REMARK    3  A    between atoms: O_5  and  C_6
REMARK    4  A    between atoms: C_9  and  C_10
REMARK    5  A    between atoms: C_20  and  C_21
REMARK                            x       y       z     vdW  Elec       q    Type
REMARK                         _______ _______ _______ _____ _____    ______ ____
ROOT
ATOM      1  F   UNL     1       1.511   7.078  21.197  0.00  0.00    +0.000 F 
ATOM      2  C   UNL     1       1.567   7.962  20.187  0.00  0.00    +0.000 A 
ATOM      3  C   UNL     1       2.116   7.557  18.967  0.00  0.00    +0.000 A 
ATOM      4  C   UNL     1       2.141   8.471  17.903  0.00  0.00    +0.000 A 
ATOM      5  C   UNL     1       1.632   9.759  18.065  0.00  0.00    +0.000 A 
ATOM      6  C   UNL     1       1.094  10.149  19.293  0.00  0.00    +0.000 A 
ATOM      7  C   UNL     1       1.058   9.256  20.374  0.00  0.00    +0.000 A 
ENDROOT
BRANCH   7   8
ATOM      8  C   UNL     1       0.495   9.681  21.651  0.00  0.00    +0.000 A 
ATOM      9  N   UNL     1       0.937   9.405  22.865  0.00  0.00    +0.000 NA
ATOM     10  N   UNL     1       0.076  10.016  23.743  0.00  0.00    +0.000 NA
ATOM     11  N   UNL     1      -0.886  10.657  23.098  0.00  0.00    +0.000 NA
ATOM     12  N   UNL     1      -0.628  10.453  21.802  0.00  0.00    +0.000 N 
ATOM     13  H   UNL     1      -1.233  10.848  21.093  0.00  0.00    +0.000 HD
ENDBRANCH   7   8
BRANCH   3  14
ATOM     14  C   UNL     1       2.580   6.136  18.758  0.00  0.00    +0.000 C 
BRANCH  14  15
ATOM     15  O   UNL     1       4.004   6.128  18.645  0.00  0.00    +0.000 OA
BRANCH  15  16
ATOM     16  C   UNL     1       4.547   5.523  17.541  0.00  0.00    +0.000 A 
ATOM     17  C   UNL     1       4.907   6.428  16.529  0.00  0.00    +0.000 A 
ATOM     18  C   UNL     1       5.384   5.985  15.290  0.00  0.00    +0.000 A 
ATOM     19  C   UNL     1       5.506   4.616  15.033  0.00  0.00    +0.000 A 
ATOM     20  C   UNL     1       5.149   3.712  16.043  0.00  0.00    +0.000 A 
ATOM     21  C   UNL     1       4.659   4.151  17.281  0.00  0.00    +0.000 A 
ATOM     22 CL   UNL     1       4.137   2.895  18.343  0.00  0.00    +0.000 Cl
BRANCH  19  23
ATOM     23  C   UNL     1       5.973   4.085  13.700  0.00  0.00    +0.000 C 
ATOM     24  F   UNL     1       6.497   2.831  13.762  0.00  0.00    +0.000 F 
ATOM     25  F   UNL     1       4.966   4.029  12.785  0.00  0.00    +0.000 F 
ATOM     26  F   UNL     1       6.939   4.868  13.144  0.00  0.00    +0.000 F 
ENDBRANCH  19  23
ENDBRANCH  15  16
ENDBRANCH  14  15
ENDBRANCH   3  14
TORSDOF 5
ENDMDL
MODEL 6
REMARK VINA RESULT:      -7.9      4.696      6.103
REMARK  Name = 
REMARK  5 active torsions:
REMARK  status: ('A' for Active; 'I' for Inactive)
REMARK    1  A    between atoms: C_3  and  C_4
REMARK    2  A    between atoms: C_4  and  O_5
REMARK    3  A    between atoms: O_5  and  C_6
REMARK    4  A    between atoms: C_9  and  C_10
REMARK    5  A    between atoms: C_20  and  C_21
REMARK                            x       y       z     vdW  Elec       q    Type
REMARK                         _______ _______ _______ _____ _____    ______ ____
ROOT
ATOM      1  F   UNL     1       4.810   5.994  19.518  0.00  0.00    +0.000 F 
ATOM      2  C   UNL     1       3.976   5.204  18.820  0.00  0.00    +0.000 A 
ATOM      3  C   UNL     1       2.617   5.203  19.149  0.00  0.00    +0.000 A 
ATOM      4  C   UNL     1       1.743   4.404  18.397  0.00  0.00    +0.000 A 
ATOM      5  C   UNL     1       2.225   3.624  17.347  0.00  0.00    +0.000 A 
ATOM      6  C   UNL     1       3.586   3.631  17.037  0.00  0.00    +0.000 A 
ATOM      7  C   UNL     1       4.483   4.419  17.774  0.00  0.00    +0.000 A 
ENDROOT
BRANCH   7   8
ATOM      8  C   UNL     1       5.902   4.412  17.439  0.00  0.00    +0.000 A 
ATOM      9  N   UNL     1       6.458   4.592  16.254  0.00  0.00    +0.000 NA
ATOM     10  N   UNL     1       7.815   4.489  16.438  0.00  0.00    +0.000 NA
ATOM     11  N   UNL     1       8.106   4.245  17.706  0.00  0.00    +0.000 NA
ATOM     12  N   UNL     1       6.924   4.199  18.328  0.00  0.00    +0.000 N 
ATOM     13  H   UNL     1       6.879   4.022  19.324  0.00  0.00    +0.000 HD
ENDBRANCH   7   8
BRANCH   3  14
ATOM     14  C   UNL     1       2.077   6.118  20.221  0.00  0.00    +0.000 C 
BRANCH  14  15
ATOM     15  O   UNL     1       2.530   7.447  19.963  0.00  0.00    +0.000 OA
BRANCH  15  16
ATOM     16  C   UNL     1       1.578   8.400  19.706  0.00  0.00    +0.000 A 
ATOM     17  C   UNL     1       1.476   8.732  18.345  0.00  0.00    +0.000 A 
ATOM     18  C   UNL     1       0.628   9.757  17.906  0.00  0.00    +0.000 A 
ATOM     19  C   UNL     1      -0.135  10.481  18.828  0.00  0.00    +0.000 A 
ATOM     20  C   UNL     1      -0.035  10.149  20.186  0.00  0.00    +0.000 A 
ATOM     21  C   UNL     1       0.822   9.132  20.631  0.00  0.00    +0.000 A 
ATOM     22 CL   UNL     1       0.921   8.963  22.345  0.00  0.00    +0.000 Cl
BRANCH  19  23
ATOM     23  C   UNL     1      -1.030  11.622  18.412  0.00  0.00    +0.000 C 
ATOM     24  F   UNL     1      -1.980  11.937  19.334  0.00  0.00    +0.000 F 
ATOM     25  F   UNL     1      -0.332  12.768  18.183  0.00  0.00    +0.000 F 
ATOM     26  F   UNL     1      -1.702  11.356  17.258  0.00  0.00    +0.000 F 
ENDBRANCH  19  23
ENDBRANCH  15  16
ENDBRANCH  14  15
ENDBRANCH   3  14
TORSDOF 5
ENDMDL
MODEL 7
REMARK VINA RESULT:      -7.9      2.731      3.453
REMARK  Name = 
REMARK  5 active torsions:
REMARK  status: ('A' for Active; 'I' for Inactive)
REMARK    1  A    between atoms: C_3  and  C_4
REMARK    2  A    between atoms: C_4  and  O_5
REMARK    3  A    between atoms: O_5  and  C_6
REMARK    4  A    between atoms: C_9  and  C_10
REMARK    5  A    between atoms: C_20  and  C_21
REMARK                            x       y       z     vdW  Elec       q    Type
REMARK                         _______ _______ _______ _____ _____    ______ ____
ROOT
ATOM      1  F   UNL     1       5.069   3.328  16.321  0.00  0.00    +0.000 F 
ATOM      2  C   UNL     1       5.781   4.238  17.008  0.00  0.00    +0.000 A 
ATOM      3  C   UNL     1       5.554   4.374  18.381  0.00  0.00    +0.000 A 
ATOM      4  C   UNL     1       6.323   5.300  19.101  0.00  0.00    +0.000 A 
ATOM      5  C   UNL     1       7.290   6.071  18.456  0.00  0.00    +0.000 A 
ATOM      6  C   UNL     1       7.497   5.927  17.083  0.00  0.00    +0.000 A 
ATOM      7  C   UNL     1       6.741   5.010  16.338  0.00  0.00    +0.000 A 
ENDROOT
BRANCH   7   8
ATOM      8  C   UNL     1       6.969   4.875  14.903  0.00  0.00    +0.000 A 
ATOM      9  N   UNL     1       6.359   4.065  14.057  0.00  0.00    +0.000 NA
ATOM     10  N   UNL     1       6.918   4.293  12.824  0.00  0.00    +0.000 NA
ATOM     11  N   UNL     1       7.861   5.220  12.893  0.00  0.00    +0.000 NA
ATOM     12  N   UNL     1       7.893   5.584  14.179  0.00  0.00    +0.000 N 
ATOM     13  H   UNL     1       8.545   6.292  14.493  0.00  0.00    +0.000 HD
ENDBRANCH   7   8
BRANCH   3  14
ATOM     14  C   UNL     1       4.578   3.475  19.099  0.00  0.00    +0.000 C 
BRANCH  14  15
ATOM     15  O   UNL     1       3.255   3.791  18.663  0.00  0.00    +0.000 OA
BRANCH  15  16
ATOM     16  C   UNL     1       2.622   4.842  19.275  0.00  0.00    +0.000 A 
ATOM     17  C   UNL     1       2.773   6.059  18.592  0.00  0.00    +0.000 A 
ATOM     18  C   UNL     1       2.279   7.258  19.120  0.00  0.00    +0.000 A 
ATOM     19  C   UNL     1       1.626   7.266  20.356  0.00  0.00    +0.000 A 
ATOM     20  C   UNL     1       1.473   6.050  21.038  0.00  0.00    +0.000 A 
ATOM     21  C   UNL     1       1.976   4.849  20.519  0.00  0.00    +0.000 A 
ATOM     22 CL   UNL     1       1.821   3.485  21.563  0.00  0.00    +0.000 Cl
BRANCH  19  23
ATOM     23  C   UNL     1       1.115   8.536  20.989  0.00  0.00    +0.000 C 
ATOM     24  F   UNL     1      -0.176   8.456  21.415  0.00  0.00    +0.000 F 
ATOM     25  F   UNL     1       1.848   8.902  22.076  0.00  0.00    +0.000 F 
ATOM     26  F   UNL     1       1.162   9.593  20.134  0.00  0.00    +0.000 F 
ENDBRANCH  19  23
ENDBRANCH  15  16
ENDBRANCH  14  15
ENDBRANCH   3  14
TORSDOF 5
ENDMDL
MODEL 8
REMARK VINA RESULT:      -7.8      3.593      4.538
REMARK  Name = 
REMARK  5 active torsions:
REMARK  status: ('A' for Active; 'I' for Inactive)
REMARK    1  A    between atoms: C_3  and  C_4
REMARK    2  A    between atoms: C_4  and  O_5
REMARK    3  A    between atoms: O_5  and  C_6
REMARK    4  A    between atoms: C_9  and  C_10
REMARK    5  A    between atoms: C_20  and  C_21
REMARK                            x       y       z     vdW  Elec       q    Type
REMARK                         _______ _______ _______ _____ _____    ______ ____
ROOT
ATOM      1  F   UNL     1       5.544   5.792  19.222  0.00  0.00    +0.000 F 
ATOM      2  C   UNL     1       5.852   5.315  18.004  0.00  0.00    +0.000 A 
ATOM      3  C   UNL     1       5.200   4.167  17.546  0.00  0.00    +0.000 A 
ATOM      4  C   UNL     1       5.498   3.691  16.260  0.00  0.00    +0.000 A 
ATOM      5  C   UNL     1       6.431   4.351  15.461  0.00  0.00    +0.000 A 
ATOM      6  C   UNL     1       7.078   5.492  15.938  0.00  0.00    +0.000 A 
ATOM      7  C   UNL     1       6.801   5.988  17.220  0.00  0.00    +0.000 A 
ENDROOT
BRANCH   7   8
ATOM      8  C   UNL     1       7.489   7.180  17.704  0.00  0.00    +0.000 A 
ATOM      9  N   UNL     1       7.418   8.409  17.225  0.00  0.00    +0.000 NA
ATOM     10  N   UNL     1       8.247   9.180  18.003  0.00  0.00    +0.000 NA
ATOM     11  N   UNL     1       8.829   8.454  18.944  0.00  0.00    +0.000 NA
ATOM     12  N   UNL     1       8.360   7.215  18.762  0.00  0.00    +0.000 N 
ATOM     13  H   UNL     1       8.662   6.462  19.368  0.00  0.00    +0.000 HD
ENDBRANCH   7   8
BRANCH   3  14
ATOM     14  C   UNL     1       4.121   3.506  18.369  0.00  0.00    +0.000 C 
BRANCH  14  15
ATOM     15  O   UNL     1       2.858   4.066  18.007  0.00  0.00    +0.000 OA
BRANCH  15  16
ATOM     16  C   UNL     1       2.344   5.044  18.819  0.00  0.00    +0.000 A 
ATOM     17  C   UNL     1       2.497   6.339  18.296  0.00  0.00    +0.000 A 
ATOM     18  C   UNL     1       2.122   7.471  19.032  0.00  0.00    +0.000 A 
ATOM     19  C   UNL     1       1.590   7.329  20.317  0.00  0.00    +0.000 A 
ATOM     20  C   UNL     1       1.436   6.037  20.838  0.00  0.00    +0.000 A 
ATOM     21  C   UNL     1       1.821   4.902  20.110  0.00  0.00    +0.000 A 
ATOM     22 CL   UNL     1       1.691   3.411  20.968  0.00  0.00    +0.000 Cl
BRANCH  19  23
ATOM     23  C   UNL     1       1.211   8.517  21.166  0.00  0.00    +0.000 C 
ATOM     24  F   UNL     1       2.011   8.690  22.254  0.00  0.00    +0.000 F 
ATOM     25  F   UNL     1       1.262   9.686  20.471  0.00  0.00    +0.000 F 
ATOM     26  F   UNL     1      -0.059   8.423  21.647  0.00  0.00    +0.000 F 
ENDBRANCH  19  23
ENDBRANCH  15  16
ENDBRANCH  14  15
ENDBRANCH   3  14
TORSDOF 5
ENDMDL
MODEL 9
REMARK VINA RESULT:      -7.8      2.644      3.372
REMARK  Name = 
REMARK  5 active torsions:
REMARK  status: ('A' for Active; 'I' for Inactive)
REMARK    1  A    between atoms: C_3  and  C_4
REMARK    2  A    between atoms: C_4  and  O_5
REMARK    3  A    between atoms: O_5  and  C_6
REMARK    4  A    between atoms: C_9  and  C_10
REMARK    5  A    between atoms: C_20  and  C_21
REMARK                            x       y       z     vdW  Elec       q    Type
REMARK                         _______ _______ _______ _____ _____    ______ ____
ROOT
ATOM      1  F   UNL     1       4.900   3.502  16.225  0.00  0.00    +0.000 F 
ATOM      2  C   UNL     1       5.688   4.323  16.941  0.00  0.00    +0.000 A 
ATOM      3  C   UNL     1       5.450   4.456  18.312  0.00  0.00    +0.000 A 
ATOM      4  C   UNL     1       6.296   5.286  19.063  0.00  0.00    +0.000 A 
ATOM      5  C   UNL     1       7.347   5.966  18.450  0.00  0.00    +0.000 A 
ATOM      6  C   UNL     1       7.564   5.827  17.078  0.00  0.00    +0.000 A 
ATOM      7  C   UNL     1       6.733   5.005  16.302  0.00  0.00    +0.000 A 
ENDROOT
BRANCH   7   8
ATOM      8  C   UNL     1       6.973   4.874  14.869  0.00  0.00    +0.000 A 
ATOM      9  N   UNL     1       6.379   4.056  14.018  0.00  0.00    +0.000 NA
ATOM     10  N   UNL     1       6.944   4.293  12.789  0.00  0.00    +0.000 NA
ATOM     11  N   UNL     1       7.874   5.231  12.866  0.00  0.00    +0.000 NA
ATOM     12  N   UNL     1       7.892   5.595  14.152  0.00  0.00    +0.000 N 
ATOM     13  H   UNL     1       8.533   6.311  14.470  0.00  0.00    +0.000 HD
ENDBRANCH   7   8
BRANCH   3  14
ATOM     14  C   UNL     1       4.375   3.648  18.996  0.00  0.00    +0.000 C 
BRANCH  14  15
ATOM     15  O   UNL     1       3.099   4.165  18.617  0.00  0.00    +0.000 OA
BRANCH  15  16
ATOM     16  C   UNL     1       2.670   5.309  19.239  0.00  0.00    +0.000 A 
ATOM     17  C   UNL     1       1.910   5.064  20.395  0.00  0.00    +0.000 A 
ATOM     18  C   UNL     1       1.305   6.109  21.104  0.00  0.00    +0.000 A 
ATOM     19  C   UNL     1       1.442   7.429  20.665  0.00  0.00    +0.000 A 
ATOM     20  C   UNL     1       2.201   7.674  19.512  0.00  0.00    +0.000 A 
ATOM     21  C   UNL     1       2.799   6.630  18.792  0.00  0.00    +0.000 A 
ATOM     22 CL   UNL     1       3.571   7.109  17.325  0.00  0.00    +0.000 Cl
BRANCH  19  23
ATOM     23  C   UNL     1       0.775   8.584  21.368  0.00  0.00    +0.000 C 
ATOM     24  F   UNL     1      -0.513   8.335  21.732  0.00  0.00    +0.000 F 
ATOM     25  F   UNL     1       1.427   8.941  22.509  0.00  0.00    +0.000 F 
ATOM     26  F   UNL     1       0.735   9.704  20.595  0.00  0.00    +0.000 F 
ENDBRANCH  19  23
ENDBRANCH  15  16
ENDBRANCH  14  15
ENDBRANCH   3  14
TORSDOF 5
ENDMDL
