MODEL 1
REMARK VINA RESULT:      -7.5      0.000      0.000
REMARK  Name = 
REMARK  5 active torsions:
REMARK  status: ('A' for Active; 'I' for Inactive)
REMARK    1  A    between atoms: C_2  and  C_3
REMARK    2  A    between atoms: C_3  and  N_4
REMARK    3  A    between atoms: N_4  and  C_5
REMARK    4  A    between atoms: N_4  and  C_6
REMARK    5  A    between atoms: N_15  and  C_16
REMARK                            x       y       z     vdW  Elec       q    Type
REMARK                         _______ _______ _______ _____ _____    ______ ____
ROOT
ATOM      1  C   UNL     1      -1.340  11.920  20.429  0.00  0.00    +0.000 A 
ATOM      2  C   UNL     1      -1.922  12.576  21.539  0.00  0.00    +0.000 A 
ATOM      3  C   UNL     1      -1.703  12.139  22.830  0.00  0.00    +0.000 A 
ATOM      4  N   UNL     1      -0.939  11.097  23.159  0.00  0.00    +0.000 NA
ATOM      5  C   UNL     1      -0.358  10.485  22.109  0.00  0.00    +0.000 A 
ATOM      6  S   UNL     1       0.620   9.123  22.415  0.00  0.00    +0.000 S 
ATOM      7  C   UNL     1       0.972   8.954  20.776  0.00  0.00    +0.000 A 
ATOM      8  C   UNL     1       1.798   7.899  20.257  0.00  0.00    +0.000 A 
ATOM      9  O   UNL     1       2.276   6.999  20.941  0.00  0.00    +0.000 OA
ATOM     10  N   UNL     1       2.010   8.030  18.879  0.00  0.00    +0.000 N 
ATOM     11  C   UNL     1       1.469   9.092  18.175  0.00  0.00    +0.000 A 
ATOM     12  N   UNL     1       0.703  10.034  18.639  0.00  0.00    +0.000 NA
ATOM     13  C   UNL     1       0.412   9.944  20.014  0.00  0.00    +0.000 A 
ATOM     14  C   UNL     1      -0.467  10.828  20.751  0.00  0.00    +0.000 A 
ENDROOT
BRANCH  10  15
ATOM     15  C   UNL     1       2.806   7.070  18.198  0.00  0.00    +0.000 A 
ATOM     16  C   UNL     1       2.441   5.717  18.204  0.00  0.00    +0.000 A 
ATOM     17  C   UNL     1       3.213   4.776  17.519  0.00  0.00    +0.000 A 
ATOM     18  C   UNL     1       4.374   5.180  16.864  0.00  0.00    +0.000 A 
ATOM     19 BR   UNL     1       5.437   3.905  15.961  0.00  0.00    +0.000 Br
ATOM     20  C   UNL     1       4.760   6.521  16.872  0.00  0.00    +0.000 A 
ATOM     21  C   UNL     1       3.965   7.469  17.520  0.00  0.00    +0.000 A 
ENDBRANCH  10  15
BRANCH   1  22
ATOM     22  N   UNL     1      -1.673  12.358  19.136  0.00  0.00    +0.000 N 
ATOM     23  C   UNL     1      -0.646  13.078  18.397  0.00  0.00    +0.000 C 
BRANCH  22  24
ATOM     24  C   UNL     1      -2.802  11.795  18.392  0.00  0.00    +0.000 C 
BRANCH  24  26
ATOM     25  C   UNL     1      -2.215   9.946  16.779  0.00  0.00    +0.000 C 
ATOM     26  C   UNL     1      -2.378  11.248  17.054  0.00  0.00    +0.000 C 
ENDBRANCH  24  26
ENDBRANCH  22  24
ENDBRANCH   1  22
TORSDOF 4
ENDMDL
MODEL 2
REMARK VINA RESULT:      -7.4      0.325      1.004
REMARK  Name = 
REMARK  5 active torsions:
REMARK  status: ('A' for Active; 'I' for Inactive)
REMARK    1  A    between atoms: C_2  and  C_3
REMARK    2  A    between atoms: C_3  and  N_4
REMARK    3  A    between atoms: N_4  and  C_5
REMARK    4  A    between atoms: N_4  and  C_6
REMARK    5  A    between atoms: N_15  and  C_16
REMARK                            x       y       z     vdW  Elec       q    Type
REMARK                         _______ _______ _______ _____ _____    ______ ____
ROOT
ATOM      1  C   UNL     1      -1.334  11.784  20.240  0.00  0.00    +0.000 A 
ATOM      2  C   UNL     1      -1.931  12.444  21.339  0.00  0.00    +0.000 A 
ATOM      3  C   UNL     1      -1.705  12.032  22.637  0.00  0.00    +0.000 A 
ATOM      4  N   UNL     1      -0.922  11.009  22.983  0.00  0.00    +0.000 NA
ATOM      5  C   UNL     1      -0.327  10.394  21.943  0.00  0.00    +0.000 A 
ATOM      6  S   UNL     1       0.677   9.056  22.271  0.00  0.00    +0.000 S 
ATOM      7  C   UNL     1       1.035   8.869  20.635  0.00  0.00    +0.000 A 
ATOM      8  C   UNL     1       1.883   7.823  20.133  0.00  0.00    +0.000 A 
ATOM      9  O   UNL     1       2.377   6.943  20.831  0.00  0.00    +0.000 OA
ATOM     10  N   UNL     1       2.095   7.938  18.753  0.00  0.00    +0.000 N 
ATOM     11  C   UNL     1       1.534   8.979  18.033  0.00  0.00    +0.000 A 
ATOM     12  N   UNL     1       0.749   9.912  18.482  0.00  0.00    +0.000 NA
ATOM     13  C   UNL     1       0.457   9.836  19.858  0.00  0.00    +0.000 A 
ATOM     14  C   UNL     1      -0.441  10.714  20.580  0.00  0.00    +0.000 A 
ENDROOT
BRANCH  10  15
ATOM     15  C   UNL     1       2.911   6.984  18.088  0.00  0.00    +0.000 A 
ATOM     16  C   UNL     1       4.087   7.389  17.440  0.00  0.00    +0.000 A 
ATOM     17  C   UNL     1       4.899   6.448  16.803  0.00  0.00    +0.000 A 
ATOM     18  C   UNL     1       4.515   5.110  16.776  0.00  0.00    +0.000 A 
ATOM     19 BR   UNL     1       5.597   3.839  15.889  0.00  0.00    +0.000 Br
ATOM     20  C   UNL     1       3.335   4.700  17.396  0.00  0.00    +0.000 A 
ATOM     21  C   UNL     1       2.545   5.633  18.072  0.00  0.00    +0.000 A 
ENDBRANCH  10  15
BRANCH   1  22
ATOM     22  N   UNL     1      -1.673  12.197  18.941  0.00  0.00    +0.000 N 
ATOM     23  C   UNL     1      -0.715  13.043  18.244  0.00  0.00    +0.000 C 
BRANCH  22  24
ATOM     24  C   UNL     1      -2.702  11.514  18.152  0.00  0.00    +0.000 C 
BRANCH  24  26
ATOM     25  C   UNL     1      -2.924  10.479  15.862  0.00  0.00    +0.000 C 
ATOM     26  C   UNL     1      -2.195  11.112  16.791  0.00  0.00    +0.000 C 
ENDBRANCH  24  26
ENDBRANCH  22  24
ENDBRANCH   1  22
TORSDOF 4
ENDMDL
MODEL 3
REMARK VINA RESULT:      -7.4      3.419      7.905
REMARK  Name = 
REMARK  5 active torsions:
REMARK  status: ('A' for Active; 'I' for Inactive)
REMARK    1  A    between atoms: C_2  and  C_3
REMARK    2  A    between atoms: C_3  and  N_4
REMARK    3  A    between atoms: N_4  and  C_5
REMARK    4  A    between atoms: N_4  and  C_6
REMARK    5  A    between atoms: N_15  and  C_16
REMARK                            x       y       z     vdW  Elec       q    Type
REMARK                         _______ _______ _______ _____ _____    ______ ____
ROOT
ATOM      1  C   UNL     1       4.631   5.375  17.745  0.00  0.00    +0.000 A 
ATOM      2  C   UNL     1       5.028   4.027  17.909  0.00  0.00    +0.000 A 
ATOM      3  C   UNL     1       4.494   3.235  18.906  0.00  0.00    +0.000 A 
ATOM      4  N   UNL     1       3.575   3.638  19.785  0.00  0.00    +0.000 NA
ATOM      5  C   UNL     1       3.171   4.911  19.616  0.00  0.00    +0.000 A 
ATOM      6  S   UNL     1       2.016   5.537  20.702  0.00  0.00    +0.000 S 
ATOM      7  C   UNL     1       2.006   7.021  19.903  0.00  0.00    +0.000 A 
ATOM      8  C   UNL     1       1.204   8.135  20.331  0.00  0.00    +0.000 A 
ATOM      9  O   UNL     1       0.502   8.132  21.337  0.00  0.00    +0.000 OA
ATOM     10  N   UNL     1       1.306   9.220  19.451  0.00  0.00    +0.000 N 
ATOM     11  C   UNL     1       2.091   9.141  18.314  0.00  0.00    +0.000 A 
ATOM     12  N   UNL     1       2.833   8.142  17.939  0.00  0.00    +0.000 NA
ATOM     13  C   UNL     1       2.814   7.028  18.799  0.00  0.00    +0.000 A 
ATOM     14  C   UNL     1       3.602   5.823  18.638  0.00  0.00    +0.000 A 
ENDROOT
BRANCH  10  15
ATOM     15  C   UNL     1       0.578  10.410  19.721  0.00  0.00    +0.000 A 
ATOM     16  C   UNL     1      -0.685  10.612  19.146  0.00  0.00    +0.000 A 
ATOM     17  C   UNL     1      -1.408  11.774  19.427  0.00  0.00    +0.000 A 
ATOM     18  C   UNL     1      -0.852  12.753  20.247  0.00  0.00    +0.000 A 
ATOM     19 BR   UNL     1      -1.816  14.338  20.604  0.00  0.00    +0.000 Br
ATOM     20  C   UNL     1       0.414  12.573  20.805  0.00  0.00    +0.000 A 
ATOM     21  C   UNL     1       1.120  11.392  20.560  0.00  0.00    +0.000 A 
ENDBRANCH  10  15
BRANCH   1  22
ATOM     22  N   UNL     1       5.275   6.152  16.768  0.00  0.00    +0.000 N 
ATOM     23  C   UNL     1       6.364   7.008  17.214  0.00  0.00    +0.000 C 
BRANCH  22  24
ATOM     24  C   UNL     1       5.170   5.846  15.339  0.00  0.00    +0.000 C 
BRANCH  24  26
ATOM     25  C   UNL     1       6.290   3.888  14.207  0.00  0.00    +0.000 C 
ATOM     26  C   UNL     1       6.360   5.067  14.841  0.00  0.00    +0.000 C 
ENDBRANCH  24  26
ENDBRANCH  22  24
ENDBRANCH   1  22
TORSDOF 4
ENDMDL
MODEL 4
REMARK VINA RESULT:      -7.2      3.436      7.918
REMARK  Name = 
REMARK  5 active torsions:
REMARK  status: ('A' for Active; 'I' for Inactive)
REMARK    1  A    between atoms: C_2  and  C_3
REMARK    2  A    between atoms: C_3  and  N_4
REMARK    3  A    between atoms: N_4  and  C_5
REMARK    4  A    between atoms: N_4  and  C_6
REMARK    5  A    between atoms: N_15  and  C_16
REMARK                            x       y       z     vdW  Elec       q    Type
REMARK                         _______ _______ _______ _____ _____    ______ ____
ROOT
ATOM      1  C   UNL     1       4.725   5.206  17.873  0.00  0.00    +0.000 A 
ATOM      2  C   UNL     1       5.097   3.854  18.062  0.00  0.00    +0.000 A 
ATOM      3  C   UNL     1       4.513   3.076  19.040  0.00  0.00    +0.000 A 
ATOM      4  N   UNL     1       3.562   3.495  19.876  0.00  0.00    +0.000 NA
ATOM      5  C   UNL     1       3.181   4.773  19.683  0.00  0.00    +0.000 A 
ATOM      6  S   UNL     1       1.989   5.419  20.715  0.00  0.00    +0.000 S 
ATOM      7  C   UNL     1       2.031   6.898  19.908  0.00  0.00    +0.000 A 
ATOM      8  C   UNL     1       1.226   8.024  20.294  0.00  0.00    +0.000 A 
ATOM      9  O   UNL     1       0.481   8.036  21.269  0.00  0.00    +0.000 OA
ATOM     10  N   UNL     1       1.378   9.102  19.413  0.00  0.00    +0.000 N 
ATOM     11  C   UNL     1       2.210   9.007  18.310  0.00  0.00    +0.000 A 
ATOM     12  N   UNL     1       2.955   7.996  17.973  0.00  0.00    +0.000 NA
ATOM     13  C   UNL     1       2.885   6.888  18.839  0.00  0.00    +0.000 A 
ATOM     14  C   UNL     1       3.665   5.673  18.719  0.00  0.00    +0.000 A 
ENDROOT
BRANCH  10  15
ATOM     15  C   UNL     1       0.655  10.303  19.644  0.00  0.00    +0.000 A 
ATOM     16  C   UNL     1      -0.565  10.530  18.991  0.00  0.00    +0.000 A 
ATOM     17  C   UNL     1      -1.286  11.702  19.234  0.00  0.00    +0.000 A 
ATOM     18  C   UNL     1      -0.767  12.666  20.095  0.00  0.00    +0.000 A 
ATOM     19 BR   UNL     1      -1.726  14.266  20.401  0.00  0.00    +0.000 Br
ATOM     20  C   UNL     1       0.457  12.461  20.731  0.00  0.00    +0.000 A 
ATOM     21  C   UNL     1       1.157  11.270  20.524  0.00  0.00    +0.000 A 
ENDBRANCH  10  15
BRANCH   1  22
ATOM     22  N   UNL     1       5.419   5.969  16.920  0.00  0.00    +0.000 N 
ATOM     23  C   UNL     1       5.091   5.739  15.521  0.00  0.00    +0.000 C 
BRANCH  22  24
ATOM     24  C   UNL     1       6.122   7.205  17.276  0.00  0.00    +0.000 C 
BRANCH  24  26
ATOM     25  C   UNL     1       7.938   6.358  18.810  0.00  0.00    +0.000 C 
ATOM     26  C   UNL     1       7.554   6.945  17.668  0.00  0.00    +0.000 C 
ENDBRANCH  24  26
ENDBRANCH  22  24
ENDBRANCH   1  22
TORSDOF 4
ENDMDL
MODEL 5
REMARK VINA RESULT:      -7.1      3.762      8.416
REMARK  Name = 
REMARK  5 active torsions:
REMARK  status: ('A' for Active; 'I' for Inactive)
REMARK    1  A    between atoms: C_2  and  C_3
REMARK    2  A    between atoms: C_3  and  N_4
REMARK    3  A    between atoms: N_4  and  C_5
REMARK    4  A    between atoms: N_4  and  C_6
REMARK    5  A    between atoms: N_15  and  C_16
REMARK                            x       y       z     vdW  Elec       q    Type
REMARK                         _______ _______ _______ _____ _____    ______ ____
ROOT
ATOM      1  C   UNL     1       4.404   3.652  17.591  0.00  0.00    +0.000 A 
ATOM      2  C   UNL     1       5.330   3.234  16.607  0.00  0.00    +0.000 A 
ATOM      3  C   UNL     1       5.864   4.122  15.696  0.00  0.00    +0.000 A 
ATOM      4  N   UNL     1       5.582   5.425  15.652  0.00  0.00    +0.000 NA
ATOM      5  C   UNL     1       4.724   5.836  16.605  0.00  0.00    +0.000 A 
ATOM      6  S   UNL     1       4.275   7.480  16.625  0.00  0.00    +0.000 S 
ATOM      7  C   UNL     1       3.302   7.243  17.980  0.00  0.00    +0.000 A 
ATOM      8  C   UNL     1       2.528   8.294  18.582  0.00  0.00    +0.000 A 
ATOM      9  O   UNL     1       2.459   9.437  18.142  0.00  0.00    +0.000 OA
ATOM     10  N   UNL     1       1.877   7.862  19.745  0.00  0.00    +0.000 N 
ATOM     11  C   UNL     1       2.028   6.565  20.205  0.00  0.00    +0.000 A 
ATOM     12  N   UNL     1       2.710   5.608  19.648  0.00  0.00    +0.000 NA
ATOM     13  C   UNL     1       3.360   5.958  18.449  0.00  0.00    +0.000 A 
ATOM     14  C   UNL     1       4.122   5.058  17.608  0.00  0.00    +0.000 A 
ENDROOT
BRANCH  10  15
ATOM     15  C   UNL     1       1.065   8.774  20.472  0.00  0.00    +0.000 A 
ATOM     16  C   UNL     1       0.279   9.717  19.793  0.00  0.00    +0.000 A 
ATOM     17  C   UNL     1      -0.534  10.600  20.507  0.00  0.00    +0.000 A 
ATOM     18  C   UNL     1      -0.530  10.571  21.899  0.00  0.00    +0.000 A 
ATOM     19 BR   UNL     1      -1.607  11.785  22.868  0.00  0.00    +0.000 Br
ATOM     20  C   UNL     1       0.266   9.653  22.586  0.00  0.00    +0.000 A 
ATOM     21  C   UNL     1       1.046   8.740  21.872  0.00  0.00    +0.000 A 
ENDBRANCH  10  15
BRANCH   1  22
ATOM     22  N   UNL     1       3.831   2.684  18.432  0.00  0.00    +0.000 N 
ATOM     23  C   UNL     1       4.439   2.500  19.741  0.00  0.00    +0.000 C 
BRANCH  22  24
ATOM     24  C   UNL     1       2.475   2.172  18.216  0.00  0.00    +0.000 C 
BRANCH  24  26
ATOM     25  C   UNL     1       0.610   2.933  19.736  0.00  0.00    +0.000 C 
ATOM     26  C   UNL     1       1.671   2.151  19.490  0.00  0.00    +0.000 C 
ENDBRANCH  24  26
ENDBRANCH  22  24
ENDBRANCH   1  22
TORSDOF 4
ENDMDL
MODEL 6
REMARK VINA RESULT:      -7.1      0.917      2.034
REMARK  Name = 
REMARK  5 active torsions:
REMARK  status: ('A' for Active; 'I' for Inactive)
REMARK    1  A    between atoms: C_2  and  C_3
REMARK    2  A    between atoms: C_3  and  N_4
REMARK    3  A    between atoms: N_4  and  C_5
REMARK    4  A    between atoms: N_4  and  C_6
REMARK    5  A    between atoms: N_15  and  C_16
REMARK                            x       y       z     vdW  Elec       q    Type
REMARK                         _______ _______ _______ _____ _____    ______ ____
ROOT
ATOM      1  C   UNL     1      -0.869  11.684  20.033  0.00  0.00    +0.000 A 
ATOM      2  C   UNL     1      -1.532  12.280  21.131  0.00  0.00    +0.000 A 
ATOM      3  C   UNL     1      -1.466  11.732  22.396  0.00  0.00    +0.000 A 
ATOM      4  N   UNL     1      -0.787  10.628  22.711  0.00  0.00    +0.000 NA
ATOM      5  C   UNL     1      -0.129  10.072  21.677  0.00  0.00    +0.000 A 
ATOM      6  S   UNL     1       0.752   8.641  21.963  0.00  0.00    +0.000 S 
ATOM      7  C   UNL     1       1.263   8.583  20.358  0.00  0.00    +0.000 A 
ATOM      8  C   UNL     1       2.091   7.531  19.837  0.00  0.00    +0.000 A 
ATOM      9  O   UNL     1       2.456   6.556  20.487  0.00  0.00    +0.000 OA
ATOM     10  N   UNL     1       2.450   7.760  18.502  0.00  0.00    +0.000 N 
ATOM     11  C   UNL     1       2.031   8.901  17.840  0.00  0.00    +0.000 A 
ATOM     12  N   UNL     1       1.263   9.842  18.303  0.00  0.00    +0.000 NA
ATOM     13  C   UNL     1       0.828   9.658  19.630  0.00  0.00    +0.000 A 
ATOM     14  C   UNL     1      -0.082  10.526  20.348  0.00  0.00    +0.000 A 
ENDROOT
BRANCH  10  15
ATOM     15  C   UNL     1       3.269   6.816  17.826  0.00  0.00    +0.000 A 
ATOM     16  C   UNL     1       4.409   7.241  17.129  0.00  0.00    +0.000 A 
ATOM     17  C   UNL     1       5.225   6.311  16.480  0.00  0.00    +0.000 A 
ATOM     18  C   UNL     1       4.878   4.962  16.491  0.00  0.00    +0.000 A 
ATOM     19 BR   UNL     1       5.964   3.706  15.589  0.00  0.00    +0.000 Br
ATOM     20  C   UNL     1       3.733   4.531  17.161  0.00  0.00    +0.000 A 
ATOM     21  C   UNL     1       2.941   5.455  17.847  0.00  0.00    +0.000 A 
ENDBRANCH  10  15
BRANCH   1  22
ATOM     22  N   UNL     1      -1.046  12.240  18.756  0.00  0.00    +0.000 N 
ATOM     23  C   UNL     1      -2.152  11.730  17.959  0.00  0.00    +0.000 C 
BRANCH  22  24
ATOM     24  C   UNL     1      -0.450  13.525  18.378  0.00  0.00    +0.000 C 
BRANCH  24  26
ATOM     25  C   UNL     1       1.728  14.603  19.056  0.00  0.00    +0.000 C 
ATOM     26  C   UNL     1       1.039  13.544  18.609  0.00  0.00    +0.000 C 
ENDBRANCH  24  26
ENDBRANCH  22  24
ENDBRANCH   1  22
TORSDOF 4
ENDMDL
MODEL 7
REMARK VINA RESULT:      -7.0      3.770      8.359
REMARK  Name = 
REMARK  5 active torsions:
REMARK  status: ('A' for Active; 'I' for Inactive)
REMARK    1  A    between atoms: C_2  and  C_3
REMARK    2  A    between atoms: C_3  and  N_4
REMARK    3  A    between atoms: N_4  and  C_5
REMARK    4  A    between atoms: N_4  and  C_6
REMARK    5  A    between atoms: N_15  and  C_16
REMARK                            x       y       z     vdW  Elec       q    Type
REMARK                         _______ _______ _______ _____ _____    ______ ____
ROOT
ATOM      1  C   UNL     1       3.644   3.863  18.168  0.00  0.00    +0.000 A 
ATOM      2  C   UNL     1       4.589   3.393  17.226  0.00  0.00    +0.000 A 
ATOM      3  C   UNL     1       5.220   4.251  16.349  0.00  0.00    +0.000 A 
ATOM      4  N   UNL     1       5.022   5.569  16.301  0.00  0.00    +0.000 NA
ATOM      5  C   UNL     1       4.145   6.028  17.215  0.00  0.00    +0.000 A 
ATOM      6  S   UNL     1       3.797   7.696  17.226  0.00  0.00    +0.000 S 
ATOM      7  C   UNL     1       2.747   7.513  18.531  0.00  0.00    +0.000 A 
ATOM      8  C   UNL     1       2.012   8.607  19.104  0.00  0.00    +0.000 A 
ATOM      9  O   UNL     1       2.034   9.754  18.670  0.00  0.00    +0.000 OA
ATOM     10  N   UNL     1       1.280   8.211  20.231  0.00  0.00    +0.000 N 
ATOM     11  C   UNL     1       1.329   6.905  20.688  0.00  0.00    +0.000 A 
ATOM     12  N   UNL     1       1.976   5.911  20.157  0.00  0.00    +0.000 NA
ATOM     13  C   UNL     1       2.704   6.225  18.993  0.00  0.00    +0.000 A 
ATOM     14  C   UNL     1       3.449   5.284  18.182  0.00  0.00    +0.000 A 
ENDROOT
BRANCH  10  15
ATOM     15  C   UNL     1       0.491   9.168  20.925  0.00  0.00    +0.000 A 
ATOM     16  C   UNL     1      -0.215  10.150  20.215  0.00  0.00    +0.000 A 
ATOM     17  C   UNL     1      -1.006  11.078  20.897  0.00  0.00    +0.000 A 
ATOM     18  C   UNL     1      -1.057  11.053  22.288  0.00  0.00    +0.000 A 
ATOM     19 BR   UNL     1      -2.102  12.327  23.213  0.00  0.00    +0.000 Br
ATOM     20  C   UNL     1      -0.338  10.096  23.005  0.00  0.00    +0.000 A 
ATOM     21  C   UNL     1       0.418   9.140  22.323  0.00  0.00    +0.000 A 
ENDBRANCH  10  15
BRANCH   1  22
ATOM     22  N   UNL     1       2.973   2.928  18.973  0.00  0.00    +0.000 N 
ATOM     23  C   UNL     1       1.978   2.087  18.324  0.00  0.00    +0.000 C 
BRANCH  22  24
ATOM     24  C   UNL     1       3.495   2.509  20.277  0.00  0.00    +0.000 C 
BRANCH  24  26
ATOM     25  C   UNL     1       1.439   2.661  21.731  0.00  0.00    +0.000 C 
ATOM     26  C   UNL     1       2.678   3.062  21.416  0.00  0.00    +0.000 C 
ENDBRANCH  24  26
ENDBRANCH  22  24
ENDBRANCH   1  22
TORSDOF 4
ENDMDL
MODEL 8
REMARK VINA RESULT:      -6.9      3.780      8.386
REMARK  Name = 
REMARK  5 active torsions:
REMARK  status: ('A' for Active; 'I' for Inactive)
REMARK    1  A    between atoms: C_2  and  C_3
REMARK    2  A    between atoms: C_3  and  N_4
REMARK    3  A    between atoms: N_4  and  C_5
REMARK    4  A    between atoms: N_4  and  C_6
REMARK    5  A    between atoms: N_15  and  C_16
REMARK                            x       y       z     vdW  Elec       q    Type
REMARK                         _______ _______ _______ _____ _____    ______ ____
ROOT
ATOM      1  C   UNL     1       4.586   3.764  17.383  0.00  0.00    +0.000 A 
ATOM      2  C   UNL     1       5.509   3.389  16.378  0.00  0.00    +0.000 A 
ATOM      3  C   UNL     1       6.004   4.309  15.475  0.00  0.00    +0.000 A 
ATOM      4  N   UNL     1       5.685   5.603  15.458  0.00  0.00    +0.000 NA
ATOM      5  C   UNL     1       4.829   5.974  16.430  0.00  0.00    +0.000 A 
ATOM      6  S   UNL     1       4.335   7.604  16.485  0.00  0.00    +0.000 S 
ATOM      7  C   UNL     1       3.389   7.315  17.850  0.00  0.00    +0.000 A 
ATOM      8  C   UNL     1       2.595   8.334  18.481  0.00  0.00    +0.000 A 
ATOM      9  O   UNL     1       2.487   9.482  18.062  0.00  0.00    +0.000 OA
ATOM     10  N   UNL     1       1.974   7.864  19.646  0.00  0.00    +0.000 N 
ATOM     11  C   UNL     1       2.169   6.564  20.081  0.00  0.00    +0.000 A 
ATOM     12  N   UNL     1       2.868   5.637  19.497  0.00  0.00    +0.000 NA
ATOM     13  C   UNL     1       3.490   6.025  18.295  0.00  0.00    +0.000 A 
ATOM     14  C   UNL     1       4.265   5.162  17.428  0.00  0.00    +0.000 A 
ENDROOT
BRANCH  10  15
ATOM     15  C   UNL     1       1.147   8.740  20.400  0.00  0.00    +0.000 A 
ATOM     16  C   UNL     1       1.170   8.702  21.801  0.00  0.00    +0.000 A 
ATOM     17  C   UNL     1       0.372   9.577  22.542  0.00  0.00    +0.000 A 
ATOM     18  C   UNL     1      -0.482  10.458  21.884  0.00  0.00    +0.000 A 
ATOM     19 BR   UNL     1      -1.585  11.622  22.885  0.00  0.00    +0.000 Br
ATOM     20  C   UNL     1      -0.531  10.488  20.490  0.00  0.00    +0.000 A 
ATOM     21  C   UNL     1       0.300   9.644  19.748  0.00  0.00    +0.000 A 
ENDBRANCH  10  15
BRANCH   1  22
ATOM     22  N   UNL     1       4.053   2.766  18.215  0.00  0.00    +0.000 N 
ATOM     23  C   UNL     1       4.505   2.746  19.598  0.00  0.00    +0.000 C 
BRANCH  22  24
ATOM     24  C   UNL     1       2.825   2.044  17.873  0.00  0.00    +0.000 C 
BRANCH  24  26
ATOM     25  C   UNL     1       0.638   2.479  19.053  0.00  0.00    +0.000 C 
ATOM     26  C   UNL     1       1.591   2.850  18.186  0.00  0.00    +0.000 C 
ENDBRANCH  24  26
ENDBRANCH  22  24
ENDBRANCH   1  22
TORSDOF 4
ENDMDL
MODEL 9
REMARK VINA RESULT:      -6.9      3.506      7.841
REMARK  Name = 
REMARK  5 active torsions:
REMARK  status: ('A' for Active; 'I' for Inactive)
REMARK    1  A    between atoms: C_2  and  C_3
REMARK    2  A    between atoms: C_3  and  N_4
REMARK    3  A    between atoms: N_4  and  C_5
REMARK    4  A    between atoms: N_4  and  C_6
REMARK    5  A    between atoms: N_15  and  C_16
REMARK                            x       y       z     vdW  Elec       q    Type
REMARK                         _______ _______ _______ _____ _____    ______ ____
ROOT
ATOM      1  C   UNL     1       4.266   4.648  18.033  0.00  0.00    +0.000 A 
ATOM      2  C   UNL     1       4.418   3.319  18.494  0.00  0.00    +0.000 A 
ATOM      3  C   UNL     1       3.780   2.875  19.635  0.00  0.00    +0.000 A 
ATOM      4  N   UNL     1       2.974   3.620  20.393  0.00  0.00    +0.000 NA
ATOM      5  C   UNL     1       2.802   4.878  19.944  0.00  0.00    +0.000 A 
ATOM      6  S   UNL     1       1.810   5.924  20.852  0.00  0.00    +0.000 S 
ATOM      7  C   UNL     1       2.043   7.175  19.746  0.00  0.00    +0.000 A 
ATOM      8  C   UNL     1       1.468   8.482  19.910  0.00  0.00    +0.000 A 
ATOM      9  O   UNL     1       0.806   8.826  20.883  0.00  0.00    +0.000 OA
ATOM     10  N   UNL     1       1.737   9.312  18.813  0.00  0.00    +0.000 N 
ATOM     11  C   UNL     1       2.462   8.845  17.730  0.00  0.00    +0.000 A 
ATOM     12  N   UNL     1       3.001   7.671  17.592  0.00  0.00    +0.000 NA
ATOM     13  C   UNL     1       2.807   6.793  18.677  0.00  0.00    +0.000 A 
ATOM     14  C   UNL     1       3.360   5.460  18.793  0.00  0.00    +0.000 A 
ENDROOT
BRANCH  10  15
ATOM     15  C   UNL     1       1.244  10.644  18.807  0.00  0.00    +0.000 A 
ATOM     16  C   UNL     1      -0.130  10.890  18.939  0.00  0.00    +0.000 A 
ATOM     17  C   UNL     1      -0.613  12.201  18.952  0.00  0.00    +0.000 A 
ATOM     18  C   UNL     1       0.272  13.264  18.789  0.00  0.00    +0.000 A 
ATOM     19 BR   UNL     1      -0.383  15.037  18.775  0.00  0.00    +0.000 Br
ATOM     20  C   UNL     1       1.638  13.030  18.631  0.00  0.00    +0.000 A 
ATOM     21  C   UNL     1       2.127  11.722  18.663  0.00  0.00    +0.000 A 
ENDBRANCH  10  15
BRANCH   1  22
ATOM     22  N   UNL     1       5.010   5.063  16.916  0.00  0.00    +0.000 N 
ATOM     23  C   UNL     1       6.164   5.913  17.168  0.00  0.00    +0.000 C 
BRANCH  22  24
ATOM     24  C   UNL     1       4.916   4.379  15.623  0.00  0.00    +0.000 C 
BRANCH  24  26
ATOM     25  C   UNL     1       6.410   3.963  13.633  0.00  0.00    +0.000 C 
ATOM     26  C   UNL     1       6.138   4.613  14.773  0.00  0.00    +0.000 C 
ENDBRANCH  24  26
ENDBRANCH  22  24
ENDBRANCH   1  22
TORSDOF 4
ENDMDL
