MODEL 1
REMARK VINA RESULT:      -7.7      0.000      0.000
REMARK  Name = 
REMARK  5 active torsions:
REMARK  status: ('A' for Active; 'I' for Inactive)
REMARK    1  A    between atoms: C_1  and  C_2
REMARK    2  A    between atoms: C_2  and  S_3
REMARK    3  A    between atoms: S_3  and  C_6
REMARK    4  A    between atoms: N_12  and  C_13
REMARK    5  A    between atoms: C_16  and  N_17
REMARK                            x       y       z     vdW  Elec       q    Type
REMARK                         _______ _______ _______ _____ _____    ______ ____
ROOT
ATOM      1  C   UNL     1       3.540   4.657  19.068  0.00  0.00    +0.000 A 
ATOM      2  C   UNL     1       4.223   4.902  17.865  0.00  0.00    +0.000 A 
ATOM      3  C   UNL     1       4.079   6.121  17.186  0.00  0.00    +0.000 A 
ATOM      4  C   UNL     1       3.227   7.044  17.780  0.00  0.00    +0.000 A 
ATOM      5  O   UNL     1       2.905   8.293  17.334  0.00  0.00    +0.000 OA
ATOM      6  C   UNL     1       2.031   8.771  18.280  0.00  0.00    +0.000 A 
ATOM      7  N   UNL     1       1.608  10.031  18.088  0.00  0.00    +0.000 N 
ATOM      8  N   UNL     1       1.789   7.928  19.264  0.00  0.00    +0.000 NA
ATOM      9  C   UNL     1       2.538   6.829  18.962  0.00  0.00    +0.000 A 
ATOM     10  C   UNL     1       2.684   5.614  19.638  0.00  0.00    +0.000 A 
ATOM     11  H   UNL     1       1.985  10.539  17.299  0.00  0.00    +0.000 HD
ENDROOT
BRANCH   7  12
ATOM     12  C   UNL     1       0.702  10.750  18.884  0.00  0.00    +0.000 A 
ATOM     13  C   UNL     1      -0.663  10.676  18.595  0.00  0.00    +0.000 A 
ATOM     14  C   UNL     1      -1.605  11.399  19.341  0.00  0.00    +0.000 A 
ATOM     15  C   UNL     1      -1.228  12.232  20.399  0.00  0.00    +0.000 A 
ATOM     16  C   UNL     1       0.144  12.337  20.654  0.00  0.00    +0.000 A 
ATOM     17  C   UNL     1       1.092  11.618  19.908  0.00  0.00    +0.000 A 
BRANCH  15  18
ATOM     18  N   UNL     1      -2.155  12.906  21.162  0.00  0.00    +0.000 N 
ATOM     19  C   UNL     1      -2.029  13.063  22.619  0.00  0.00    +0.000 C 
ATOM     20  C   UNL     1      -3.237  12.447  23.339  0.00  0.00    +0.000 C 
ATOM     21  O   UNL     1      -4.481  12.944  22.817  0.00  0.00    +0.000 OA
ATOM     22  C   UNL     1      -4.583  12.649  21.413  0.00  0.00    +0.000 C 
ATOM     23  C   UNL     1      -3.453  13.315  20.610  0.00  0.00    +0.000 C 
ENDBRANCH  15  18
ENDBRANCH   7  12
BRANCH   1  24
ATOM     24  S   UNL     1       3.668   3.060  19.848  0.00  0.00    +0.000 S 
ATOM     25  O   UNL     1       2.881   3.116  21.066  0.00  0.00    +0.000 OA
ATOM     26  O   UNL     1       5.085   2.736  19.890  0.00  0.00    +0.000 OA
BRANCH  24  28
ATOM     27  C   UNL     1       1.411   2.326  18.502  0.00  0.00    +0.000 C 
ATOM     28  C   UNL     1       2.860   1.931  18.728  0.00  0.00    +0.000 C 
ENDBRANCH  24  28
ENDBRANCH   1  24
TORSDOF 4
ENDMDL
MODEL 2
REMARK VINA RESULT:      -7.6      0.927      1.382
REMARK  Name = 
REMARK  5 active torsions:
REMARK  status: ('A' for Active; 'I' for Inactive)
REMARK    1  A    between atoms: C_1  and  C_2
REMARK    2  A    between atoms: C_2  and  S_3
REMARK    3  A    between atoms: S_3  and  C_6
REMARK    4  A    between atoms: N_12  and  C_13
REMARK    5  A    between atoms: C_16  and  N_17
REMARK                            x       y       z     vdW  Elec       q    Type
REMARK                         _______ _______ _______ _____ _____    ______ ____
ROOT
ATOM      1  C   UNL     1       3.513   5.033  18.730  0.00  0.00    +0.000 A 
ATOM      2  C   UNL     1       4.269   5.393  17.602  0.00  0.00    +0.000 A 
ATOM      3  C   UNL     1       4.153   6.669  17.031  0.00  0.00    +0.000 A 
ATOM      4  C   UNL     1       3.253   7.527  17.650  0.00  0.00    +0.000 A 
ATOM      5  O   UNL     1       2.944   8.810  17.301  0.00  0.00    +0.000 OA
ATOM      6  C   UNL     1       2.005   9.192  18.228  0.00  0.00    +0.000 A 
ATOM      7  N   UNL     1       1.579  10.461  18.126  0.00  0.00    +0.000 N 
ATOM      8  N   UNL     1       1.711   8.259  19.113  0.00  0.00    +0.000 NA
ATOM      9  C   UNL     1       2.492   7.198  18.760  0.00  0.00    +0.000 A 
ATOM     10  C   UNL     1       2.610   5.926  19.329  0.00  0.00    +0.000 A 
ATOM     11  H   UNL     1       1.999  11.043  17.414  0.00  0.00    +0.000 HD
ENDROOT
BRANCH   7  12
ATOM     12  C   UNL     1       0.615  11.097  18.925  0.00  0.00    +0.000 A 
ATOM     13  C   UNL     1       0.971  11.527  20.206  0.00  0.00    +0.000 A 
ATOM     14  C   UNL     1       0.037  12.139  21.054  0.00  0.00    +0.000 A 
ATOM     15  C   UNL     1      -1.292  12.341  20.667  0.00  0.00    +0.000 A 
ATOM     16  C   UNL     1      -1.653  11.867  19.401  0.00  0.00    +0.000 A 
ATOM     17  C   UNL     1      -0.723  11.250  18.549  0.00  0.00    +0.000 A 
BRANCH  15  18
ATOM     18  N   UNL     1      -2.198  12.984  21.480  0.00  0.00    +0.000 N 
ATOM     19  C   UNL     1      -2.091  12.992  22.946  0.00  0.00    +0.000 C 
ATOM     20  C   UNL     1      -3.342  12.372  23.586  0.00  0.00    +0.000 C 
ATOM     21  O   UNL     1      -4.549  12.981  23.098  0.00  0.00    +0.000 OA
ATOM     22  C   UNL     1      -4.640  12.830  21.671  0.00  0.00    +0.000 C 
ATOM     23  C   UNL     1      -3.464  13.512  20.952  0.00  0.00    +0.000 C 
ENDBRANCH  15  18
ENDBRANCH   7  12
BRANCH   1  24
ATOM     24  S   UNL     1       3.612   3.371  19.366  0.00  0.00    +0.000 S 
ATOM     25  O   UNL     1       5.006   3.119  19.682  0.00  0.00    +0.000 OA
ATOM     26  O   UNL     1       2.897   2.528  18.422  0.00  0.00    +0.000 OA
BRANCH  24  28
ATOM     27  C   UNL     1       1.370   2.691  20.765  0.00  0.00    +0.000 C 
ATOM     28  C   UNL     1       2.703   3.407  20.900  0.00  0.00    +0.000 C 
ENDBRANCH  24  28
ENDBRANCH   1  24
TORSDOF 4
ENDMDL
MODEL 3
REMARK VINA RESULT:      -7.5      2.554      3.510
REMARK  Name = 
REMARK  5 active torsions:
REMARK  status: ('A' for Active; 'I' for Inactive)
REMARK    1  A    between atoms: C_1  and  C_2
REMARK    2  A    between atoms: C_2  and  S_3
REMARK    3  A    between atoms: S_3  and  C_6
REMARK    4  A    between atoms: N_12  and  C_13
REMARK    5  A    between atoms: C_16  and  N_17
REMARK                            x       y       z     vdW  Elec       q    Type
REMARK                         _______ _______ _______ _____ _____    ______ ____
ROOT
ATOM      1  C   UNL     1       4.964   5.481  17.137  0.00  0.00    +0.000 A 
ATOM      2  C   UNL     1       4.932   4.320  17.928  0.00  0.00    +0.000 A 
ATOM      3  C   UNL     1       4.145   4.257  19.087  0.00  0.00    +0.000 A 
ATOM      4  C   UNL     1       3.419   5.403  19.386  0.00  0.00    +0.000 A 
ATOM      5  O   UNL     1       2.586   5.613  20.447  0.00  0.00    +0.000 OA
ATOM      6  C   UNL     1       2.137   6.899  20.269  0.00  0.00    +0.000 A 
ATOM      7  N   UNL     1       1.240   7.326  21.174  0.00  0.00    +0.000 N 
ATOM      8  N   UNL     1       2.620   7.495  19.197  0.00  0.00    +0.000 NA
ATOM      9  C   UNL     1       3.434   6.562  18.628  0.00  0.00    +0.000 A 
ATOM     10  C   UNL     1       4.219   6.622  17.471  0.00  0.00    +0.000 A 
ATOM     11  H   UNL     1       0.939   6.670  21.882  0.00  0.00    +0.000 HD
ENDROOT
BRANCH   7  12
ATOM     12  C   UNL     1       0.643   8.594  21.240  0.00  0.00    +0.000 A 
ATOM     13  C   UNL     1       0.211   9.078  22.478  0.00  0.00    +0.000 A 
ATOM     14  C   UNL     1      -0.419  10.325  22.593  0.00  0.00    +0.000 A 
ATOM     15  C   UNL     1      -0.656  11.139  21.480  0.00  0.00    +0.000 A 
ATOM     16  C   UNL     1      -0.263  10.628  20.237  0.00  0.00    +0.000 A 
ATOM     17  C   UNL     1       0.366   9.379  20.117  0.00  0.00    +0.000 A 
BRANCH  15  18
ATOM     18  N   UNL     1      -1.232  12.384  21.596  0.00  0.00    +0.000 N 
ATOM     19  C   UNL     1      -0.854  13.345  22.643  0.00  0.00    +0.000 C 
ATOM     20  C   UNL     1      -2.067  13.709  23.510  0.00  0.00    +0.000 C 
ATOM     21  O   UNL     1      -3.183  14.143  22.713  0.00  0.00    +0.000 OA
ATOM     22  C   UNL     1      -3.569  13.106  21.795  0.00  0.00    +0.000 C 
ATOM     23  C   UNL     1      -2.428  12.751  20.826  0.00  0.00    +0.000 C 
ENDBRANCH  15  18
ENDBRANCH   7  12
BRANCH   1  24
ATOM     24  S   UNL     1       6.054   5.559  15.728  0.00  0.00    +0.000 S 
ATOM     25  O   UNL     1       7.370   5.910  16.228  0.00  0.00    +0.000 OA
ATOM     26  O   UNL     1       5.386   6.389  14.739  0.00  0.00    +0.000 OA
BRANCH  24  28
ATOM     27  C   UNL     1       6.135   3.864  13.592  0.00  0.00    +0.000 C 
ATOM     28  C   UNL     1       6.133   3.888  15.110  0.00  0.00    +0.000 C 
ENDBRANCH  24  28
ENDBRANCH   1  24
TORSDOF 4
ENDMDL
MODEL 4
REMARK VINA RESULT:      -7.5      2.534      3.796
REMARK  Name = 
REMARK  5 active torsions:
REMARK  status: ('A' for Active; 'I' for Inactive)
REMARK    1  A    between atoms: C_1  and  C_2
REMARK    2  A    between atoms: C_2  and  S_3
REMARK    3  A    between atoms: S_3  and  C_6
REMARK    4  A    between atoms: N_12  and  C_13
REMARK    5  A    between atoms: C_16  and  N_17
REMARK                            x       y       z     vdW  Elec       q    Type
REMARK                         _______ _______ _______ _____ _____    ______ ____
ROOT
ATOM      1  C   UNL     1       4.274   5.615  17.474  0.00  0.00    +0.000 A 
ATOM      2  C   UNL     1       4.122   4.438  18.226  0.00  0.00    +0.000 A 
ATOM      3  C   UNL     1       3.299   4.406  19.361  0.00  0.00    +0.000 A 
ATOM      4  C   UNL     1       2.664   5.599  19.678  0.00  0.00    +0.000 A 
ATOM      5  O   UNL     1       1.820   5.847  20.723  0.00  0.00    +0.000 OA
ATOM      6  C   UNL     1       1.486   7.171  20.576  0.00  0.00    +0.000 A 
ATOM      7  N   UNL     1       0.603   7.644  21.471  0.00  0.00    +0.000 N 
ATOM      8  N   UNL     1       2.048   7.757  19.537  0.00  0.00    +0.000 NA
ATOM      9  C   UNL     1       2.798   6.775  18.959  0.00  0.00    +0.000 A 
ATOM     10  C   UNL     1       3.617   6.805  17.826  0.00  0.00    +0.000 A 
ATOM     11  H   UNL     1       0.227   6.995  22.149  0.00  0.00    +0.000 HD
ENDROOT
BRANCH   7  12
ATOM     12  C   UNL     1       0.111   8.956  21.562  0.00  0.00    +0.000 A 
ATOM     13  C   UNL     1      -0.247   9.461  22.815  0.00  0.00    +0.000 A 
ATOM     14  C   UNL     1      -0.772  10.753  22.956  0.00  0.00    +0.000 A 
ATOM     15  C   UNL     1      -0.970  11.595  21.857  0.00  0.00    +0.000 A 
ATOM     16  C   UNL     1      -0.653  11.066  20.600  0.00  0.00    +0.000 A 
ATOM     17  C   UNL     1      -0.130   9.771  20.453  0.00  0.00    +0.000 A 
BRANCH  15  18
ATOM     18  N   UNL     1      -1.441  12.880  21.998  0.00  0.00    +0.000 N 
ATOM     19  C   UNL     1      -1.275  13.911  20.962  0.00  0.00    +0.000 C 
ATOM     20  C   UNL     1      -0.492  15.112  21.510  0.00  0.00    +0.000 C 
ATOM     21  O   UNL     1      -1.068  15.615  22.728  0.00  0.00    +0.000 OA
ATOM     22  C   UNL     1      -1.088  14.584  23.730  0.00  0.00    +0.000 C 
ATOM     23  C   UNL     1      -1.937  13.379  23.288  0.00  0.00    +0.000 C 
ENDBRANCH  15  18
ENDBRANCH   7  12
BRANCH   1  24
ATOM     24  S   UNL     1       5.406   5.644  16.098  0.00  0.00    +0.000 S 
ATOM     25  O   UNL     1       5.184   6.891  15.390  0.00  0.00    +0.000 OA
ATOM     26  O   UNL     1       5.262   4.366  15.421  0.00  0.00    +0.000 OA
BRANCH  24  28
ATOM     27  C   UNL     1       7.315   7.100  17.396  0.00  0.00    +0.000 C 
ATOM     28  C   UNL     1       7.029   5.718  16.835  0.00  0.00    +0.000 C 
ENDBRANCH  24  28
ENDBRANCH   1  24
TORSDOF 4
ENDMDL
MODEL 5
REMARK VINA RESULT:      -7.4      0.898      1.011
REMARK  Name = 
REMARK  5 active torsions:
REMARK  status: ('A' for Active; 'I' for Inactive)
REMARK    1  A    between atoms: C_1  and  C_2
REMARK    2  A    between atoms: C_2  and  S_3
REMARK    3  A    between atoms: S_3  and  C_6
REMARK    4  A    between atoms: N_12  and  C_13
REMARK    5  A    between atoms: C_16  and  N_17
REMARK                            x       y       z     vdW  Elec       q    Type
REMARK                         _______ _______ _______ _____ _____    ______ ____
ROOT
ATOM      1  C   UNL     1       3.538   4.706  18.551  0.00  0.00    +0.000 A 
ATOM      2  C   UNL     1       4.297   5.082  17.430  0.00  0.00    +0.000 A 
ATOM      3  C   UNL     1       4.214   6.379  16.903  0.00  0.00    +0.000 A 
ATOM      4  C   UNL     1       3.343   7.241  17.557  0.00  0.00    +0.000 A 
ATOM      5  O   UNL     1       3.068   8.543  17.254  0.00  0.00    +0.000 OA
ATOM      6  C   UNL     1       2.146   8.919  18.200  0.00  0.00    +0.000 A 
ATOM      7  N   UNL     1       1.755  10.203  18.143  0.00  0.00    +0.000 N 
ATOM      8  N   UNL     1       1.831   7.966  19.054  0.00  0.00    +0.000 NA
ATOM      9  C   UNL     1       2.579   6.896  18.660  0.00  0.00    +0.000 A 
ATOM     10  C   UNL     1       2.665   5.603  19.185  0.00  0.00    +0.000 A 
ATOM     11  H   UNL     1       2.187  10.797  17.448  0.00  0.00    +0.000 HD
ENDROOT
BRANCH   7  12
ATOM     12  C   UNL     1       0.814  10.838  18.969  0.00  0.00    +0.000 A 
ATOM     13  C   UNL     1      -0.499  10.988  18.513  0.00  0.00    +0.000 A 
ATOM     14  C   UNL     1      -1.468  11.642  19.286  0.00  0.00    +0.000 A 
ATOM     15  C   UNL     1      -1.171  12.182  20.542  0.00  0.00    +0.000 A 
ATOM     16  C   UNL     1       0.156  12.069  20.972  0.00  0.00    +0.000 A 
ATOM     17  C   UNL     1       1.131  11.418  20.201  0.00  0.00    +0.000 A 
BRANCH  15  18
ATOM     18  N   UNL     1      -2.133  12.782  21.323  0.00  0.00    +0.000 N 
ATOM     19  C   UNL     1      -2.019  12.895  22.784  0.00  0.00    +0.000 C 
ATOM     20  C   UNL     1      -3.197  12.196  23.477  0.00  0.00    +0.000 C 
ATOM     21  O   UNL     1      -4.463  12.649  22.966  0.00  0.00    +0.000 OA
ATOM     22  C   UNL     1      -4.546  12.397  21.553  0.00  0.00    +0.000 C 
ATOM     23  C   UNL     1      -3.448  13.145  20.778  0.00  0.00    +0.000 C 
ENDBRANCH  15  18
ENDBRANCH   7  12
BRANCH   1  24
ATOM     24  S   UNL     1       3.594   3.021  19.130  0.00  0.00    +0.000 S 
ATOM     25  O   UNL     1       4.718   2.921  20.042  0.00  0.00    +0.000 OA
ATOM     26  O   UNL     1       3.516   2.178  17.948  0.00  0.00    +0.000 OA
BRANCH  24  28
ATOM     27  C   UNL     1       2.395   2.792  21.570  0.00  0.00    +0.000 C 
ATOM     28  C   UNL     1       2.100   2.808  20.081  0.00  0.00    +0.000 C 
ENDBRANCH  24  28
ENDBRANCH   1  24
TORSDOF 4
ENDMDL
MODEL 6
REMARK VINA RESULT:      -7.4      0.754      1.186
REMARK  Name = 
REMARK  5 active torsions:
REMARK  status: ('A' for Active; 'I' for Inactive)
REMARK    1  A    between atoms: C_1  and  C_2
REMARK    2  A    between atoms: C_2  and  S_3
REMARK    3  A    between atoms: S_3  and  C_6
REMARK    4  A    between atoms: N_12  and  C_13
REMARK    5  A    between atoms: C_16  and  N_17
REMARK                            x       y       z     vdW  Elec       q    Type
REMARK                         _______ _______ _______ _____ _____    ______ ____
ROOT
ATOM      1  C   UNL     1       3.499   4.669  19.100  0.00  0.00    +0.000 A 
ATOM      2  C   UNL     1       4.216   4.913  17.917  0.00  0.00    +0.000 A 
ATOM      3  C   UNL     1       4.102   6.138  17.242  0.00  0.00    +0.000 A 
ATOM      4  C   UNL     1       3.246   7.066  17.819  0.00  0.00    +0.000 A 
ATOM      5  O   UNL     1       2.948   8.321  17.372  0.00  0.00    +0.000 OA
ATOM      6  C   UNL     1       2.055   8.803  18.299  0.00  0.00    +0.000 A 
ATOM      7  N   UNL     1       1.650  10.069  18.104  0.00  0.00    +0.000 N 
ATOM      8  N   UNL     1       1.779   7.957  19.271  0.00  0.00    +0.000 NA
ATOM      9  C   UNL     1       2.523   6.852  18.981  0.00  0.00    +0.000 A 
ATOM     10  C   UNL     1       2.639   5.631  19.654  0.00  0.00    +0.000 A 
ATOM     11  H   UNL     1       2.053  10.577  17.328  0.00  0.00    +0.000 HD
ENDROOT
BRANCH   7  12
ATOM     12  C   UNL     1       0.732  10.793  18.880  0.00  0.00    +0.000 A 
ATOM     13  C   UNL     1      -0.634  10.664  18.613  0.00  0.00    +0.000 A 
ATOM     14  C   UNL     1      -1.589  11.388  19.340  0.00  0.00    +0.000 A 
ATOM     15  C   UNL     1      -1.227  12.277  20.356  0.00  0.00    +0.000 A 
ATOM     16  C   UNL     1       0.145  12.436  20.588  0.00  0.00    +0.000 A 
ATOM     17  C   UNL     1       1.105  11.716  19.861  0.00  0.00    +0.000 A 
BRANCH  15  18
ATOM     18  N   UNL     1      -2.165  12.954  21.102  0.00  0.00    +0.000 N 
ATOM     19  C   UNL     1      -2.647  14.298  20.753  0.00  0.00    +0.000 C 
ATOM     20  C   UNL     1      -2.364  15.289  21.891  0.00  0.00    +0.000 C 
ATOM     21  O   UNL     1      -2.866  14.814  23.151  0.00  0.00    +0.000 OA
ATOM     22  C   UNL     1      -2.262  13.551  23.481  0.00  0.00    +0.000 C 
ATOM     23  C   UNL     1      -2.582  12.476  22.428  0.00  0.00    +0.000 C 
ENDBRANCH  15  18
ENDBRANCH   7  12
BRANCH   1  24
ATOM     24  S   UNL     1       3.591   3.066  19.873  0.00  0.00    +0.000 S 
ATOM     25  O   UNL     1       2.845   3.149  21.115  0.00  0.00    +0.000 OA
ATOM     26  O   UNL     1       4.995   2.688  19.870  0.00  0.00    +0.000 OA
BRANCH  24  28
ATOM     27  C   UNL     1       1.251   2.389  18.643  0.00  0.00    +0.000 C 
ATOM     28  C   UNL     1       2.705   1.972  18.778  0.00  0.00    +0.000 C 
ENDBRANCH  24  28
ENDBRANCH   1  24
TORSDOF 4
ENDMDL
MODEL 7
REMARK VINA RESULT:      -7.4      1.037      1.540
REMARK  Name = 
REMARK  5 active torsions:
REMARK  status: ('A' for Active; 'I' for Inactive)
REMARK    1  A    between atoms: C_1  and  C_2
REMARK    2  A    between atoms: C_2  and  S_3
REMARK    3  A    between atoms: S_3  and  C_6
REMARK    4  A    between atoms: N_12  and  C_13
REMARK    5  A    between atoms: C_16  and  N_17
REMARK                            x       y       z     vdW  Elec       q    Type
REMARK                         _______ _______ _______ _____ _____    ______ ____
ROOT
ATOM      1  C   UNL     1       3.672   4.371  18.600  0.00  0.00    +0.000 A 
ATOM      2  C   UNL     1       4.489   4.773  17.531  0.00  0.00    +0.000 A 
ATOM      3  C   UNL     1       4.414   6.073  17.011  0.00  0.00    +0.000 A 
ATOM      4  C   UNL     1       3.490   6.912  17.620  0.00  0.00    +0.000 A 
ATOM      5  O   UNL     1       3.210   8.213  17.312  0.00  0.00    +0.000 OA
ATOM      6  C   UNL     1       2.226   8.563  18.204  0.00  0.00    +0.000 A 
ATOM      7  N   UNL     1       1.816   9.840  18.136  0.00  0.00    +0.000 N 
ATOM      8  N   UNL     1       1.878   7.596  19.029  0.00  0.00    +0.000 NA
ATOM      9  C   UNL     1       2.668   6.543  18.672  0.00  0.00    +0.000 A 
ATOM     10  C   UNL     1       2.745   5.247  19.189  0.00  0.00    +0.000 A 
ATOM     11  H   UNL     1       2.278  10.448  17.473  0.00  0.00    +0.000 HD
ENDROOT
BRANCH   7  12
ATOM     12  C   UNL     1       0.815  10.450  18.909  0.00  0.00    +0.000 A 
ATOM     13  C   UNL     1      -0.496  10.477  18.425  0.00  0.00    +0.000 A 
ATOM     14  C   UNL     1      -1.525  11.101  19.145  0.00  0.00    +0.000 A 
ATOM     15  C   UNL     1      -1.292  11.731  20.372  0.00  0.00    +0.000 A 
ATOM     16  C   UNL     1       0.031  11.740  20.828  0.00  0.00    +0.000 A 
ATOM     17  C   UNL     1       1.065  11.120  20.110  0.00  0.00    +0.000 A 
BRANCH  15  18
ATOM     18  N   UNL     1      -2.309  12.302  21.102  0.00  0.00    +0.000 N 
ATOM     19  C   UNL     1      -3.361  13.131  20.495  0.00  0.00    +0.000 C 
ATOM     20  C   UNL     1      -3.364  14.539  21.106  0.00  0.00    +0.000 C 
ATOM     21  O   UNL     1      -3.427  14.499  22.542  0.00  0.00    +0.000 OA
ATOM     22  C   UNL     1      -2.303  13.772  23.068  0.00  0.00    +0.000 C 
ATOM     23  C   UNL     1      -2.286  12.316  22.571  0.00  0.00    +0.000 C 
ENDBRANCH  15  18
ENDBRANCH   7  12
BRANCH   1  24
ATOM     24  S   UNL     1       3.723   2.682  19.166  0.00  0.00    +0.000 S 
ATOM     25  O   UNL     1       4.853   2.571  20.071  0.00  0.00    +0.000 OA
ATOM     26  O   UNL     1       3.634   1.849  17.978  0.00  0.00    +0.000 OA
BRANCH  24  28
ATOM     27  C   UNL     1       2.510   2.627  21.609  0.00  0.00    +0.000 C 
ATOM     28  C   UNL     1       2.235   2.468  20.124  0.00  0.00    +0.000 C 
ENDBRANCH  24  28
ENDBRANCH   1  24
TORSDOF 4
ENDMDL
MODEL 8
REMARK VINA RESULT:      -7.4      2.635      3.728
REMARK  Name = 
REMARK  5 active torsions:
REMARK  status: ('A' for Active; 'I' for Inactive)
REMARK    1  A    between atoms: C_1  and  C_2
REMARK    2  A    between atoms: C_2  and  S_3
REMARK    3  A    between atoms: S_3  and  C_6
REMARK    4  A    between atoms: N_12  and  C_13
REMARK    5  A    between atoms: C_16  and  N_17
REMARK                            x       y       z     vdW  Elec       q    Type
REMARK                         _______ _______ _______ _____ _____    ______ ____
ROOT
ATOM      1  C   UNL     1       4.779   5.451  17.364  0.00  0.00    +0.000 A 
ATOM      2  C   UNL     1       4.641   4.266  18.105  0.00  0.00    +0.000 A 
ATOM      3  C   UNL     1       3.791   4.204  19.220  0.00  0.00    +0.000 A 
ATOM      4  C   UNL     1       3.116   5.378  19.527  0.00  0.00    +0.000 A 
ATOM      5  O   UNL     1       2.240   5.596  20.552  0.00  0.00    +0.000 OA
ATOM      6  C   UNL     1       1.873   6.911  20.404  0.00  0.00    +0.000 A 
ATOM      7  N   UNL     1       0.955   7.354  21.279  0.00  0.00    +0.000 N 
ATOM      8  N   UNL     1       2.444   7.518  19.382  0.00  0.00    +0.000 NA
ATOM      9  C   UNL     1       3.235   6.561  18.818  0.00  0.00    +0.000 A 
ATOM     10  C   UNL     1       4.081   6.620  17.706  0.00  0.00    +0.000 A 
ATOM     11  H   UNL     1       0.581   6.691  21.944  0.00  0.00    +0.000 HD
ENDROOT
BRANCH   7  12
ATOM     12  C   UNL     1       0.425   8.651  21.365  0.00  0.00    +0.000 A 
ATOM     13  C   UNL     1       0.070   9.158  22.618  0.00  0.00    +0.000 A 
ATOM     14  C   UNL     1      -0.492  10.435  22.755  0.00  0.00    +0.000 A 
ATOM     15  C   UNL     1      -0.731  11.259  21.651  0.00  0.00    +0.000 A 
ATOM     16  C   UNL     1      -0.415  10.728  20.394  0.00  0.00    +0.000 A 
ATOM     17  C   UNL     1       0.144   9.448  20.252  0.00  0.00    +0.000 A 
BRANCH  15  18
ATOM     18  N   UNL     1      -1.238  12.531  21.787  0.00  0.00    +0.000 N 
ATOM     19  C   UNL     1      -0.914  13.625  20.859  0.00  0.00    +0.000 C 
ATOM     20  C   UNL     1      -0.254  14.793  21.606  0.00  0.00    +0.000 C 
ATOM     21  O   UNL     1      -1.038  15.216  22.734  0.00  0.00    +0.000 OA
ATOM     22  C   UNL     1      -1.213  14.125  23.654  0.00  0.00    +0.000 C 
ATOM     23  C   UNL     1      -1.956  12.946  23.000  0.00  0.00    +0.000 C 
ENDBRANCH  15  18
ENDBRANCH   7  12
BRANCH   1  24
ATOM     24  S   UNL     1       5.944   5.520  16.017  0.00  0.00    +0.000 S 
ATOM     25  O   UNL     1       7.264   5.663  16.603  0.00  0.00    +0.000 OA
ATOM     26  O   UNL     1       5.432   6.507  15.081  0.00  0.00    +0.000 OA
BRANCH  24  28
ATOM     27  C   UNL     1       6.189   3.992  13.769  0.00  0.00    +0.000 C 
ATOM     28  C   UNL     1       5.860   3.912  15.249  0.00  0.00    +0.000 C 
ENDBRANCH  24  28
ENDBRANCH   1  24
TORSDOF 4
ENDMDL
MODEL 9
REMARK VINA RESULT:      -7.3      1.370      1.731
REMARK  Name = 
REMARK  5 active torsions:
REMARK  status: ('A' for Active; 'I' for Inactive)
REMARK    1  A    between atoms: C_1  and  C_2
REMARK    2  A    between atoms: C_2  and  S_3
REMARK    3  A    between atoms: S_3  and  C_6
REMARK    4  A    between atoms: N_12  and  C_13
REMARK    5  A    between atoms: C_16  and  N_17
REMARK                            x       y       z     vdW  Elec       q    Type
REMARK                         _______ _______ _______ _____ _____    ______ ____
ROOT
ATOM      1  C   UNL     1       3.606   4.242  19.078  0.00  0.00    +0.000 A 
ATOM      2  C   UNL     1       4.341   4.393  17.890  0.00  0.00    +0.000 A 
ATOM      3  C   UNL     1       4.314   5.597  17.171  0.00  0.00    +0.000 A 
ATOM      4  C   UNL     1       3.521   6.602  17.709  0.00  0.00    +0.000 A 
ATOM      5  O   UNL     1       3.311   7.857  17.216  0.00  0.00    +0.000 OA
ATOM      6  C   UNL     1       2.450   8.432  18.119  0.00  0.00    +0.000 A 
ATOM      7  N   UNL     1       2.133   9.715  17.876  0.00  0.00    +0.000 N 
ATOM      8  N   UNL     1       2.114   7.643  19.120  0.00  0.00    +0.000 NA
ATOM      9  C   UNL     1       2.782   6.480  18.875  0.00  0.00    +0.000 A 
ATOM     10  C   UNL     1       2.813   5.280  19.592  0.00  0.00    +0.000 A 
ATOM     11  H   UNL     1       2.571  10.166  17.085  0.00  0.00    +0.000 HD
ENDROOT
BRANCH   7  12
ATOM     12  C   UNL     1       1.264  10.527  18.622  0.00  0.00    +0.000 A 
ATOM     13  C   UNL     1      -0.014  10.053  18.928  0.00  0.00    +0.000 A 
ATOM     14  C   UNL     1      -0.930  10.837  19.643  0.00  0.00    +0.000 A 
ATOM     15  C   UNL     1      -0.617  12.129  20.076  0.00  0.00    +0.000 A 
ATOM     16  C   UNL     1       0.649  12.616  19.726  0.00  0.00    +0.000 A 
ATOM     17  C   UNL     1       1.568  11.836  19.008  0.00  0.00    +0.000 A 
BRANCH  15  18
ATOM     18  N   UNL     1      -1.497  12.883  20.818  0.00  0.00    +0.000 N 
ATOM     19  C   UNL     1      -1.685  14.327  20.612  0.00  0.00    +0.000 C 
ATOM     20  C   UNL     1      -1.361  15.105  21.895  0.00  0.00    +0.000 C 
ATOM     21  O   UNL     1      -2.081  14.592  23.028  0.00  0.00    +0.000 OA
ATOM     22  C   UNL     1      -1.756  13.207  23.238  0.00  0.00    +0.000 C 
ATOM     23  C   UNL     1      -2.142  12.345  22.024  0.00  0.00    +0.000 C 
ENDBRANCH  15  18
ENDBRANCH   7  12
BRANCH   1  24
ATOM     24  S   UNL     1       3.586   2.665  19.909  0.00  0.00    +0.000 S 
ATOM     25  O   UNL     1       4.964   2.329  20.217  0.00  0.00    +0.000 OA
ATOM     26  O   UNL     1       2.768   1.782  19.095  0.00  0.00    +0.000 OA
BRANCH  24  28
ATOM     27  C   UNL     1       1.260   2.650  21.335  0.00  0.00    +0.000 C 
ATOM     28  C   UNL     1       2.741   2.965  21.451  0.00  0.00    +0.000 C 
ENDBRANCH  24  28
ENDBRANCH   1  24
TORSDOF 4
ENDMDL
