MODEL 1
REMARK VINA RESULT:      -8.7      0.000      0.000
REMARK  Name = 
REMARK  8 active torsions:
REMARK  status: ('A' for Active; 'I' for Inactive)
REMARK    1  A    between atoms: C_1  and  C_2
REMARK    2  A    between atoms: C_2  and  C_3
REMARK    3  A    between atoms: C_2  and  C_4
REMARK    4  A    between atoms: C_2  and  C_5
REMARK    5  A    between atoms: C_10  and  O_11
REMARK    6  A    between atoms: O_11  and  C_12
REMARK    7  A    between atoms: C_17  and  N_18
REMARK    8  A    between atoms: C_22  and  C_23
REMARK                            x       y       z     vdW  Elec       q    Type
REMARK                         _______ _______ _______ _____ _____    ______ ____
ROOT
ATOM      1  C   UNL     1       3.762   3.781  19.210  0.00  0.00    +0.000 A 
ATOM      2  N   UNL     1       3.741   2.604  19.893  0.00  0.00    +0.000 NA
ATOM      3  C   UNL     1       3.007   2.543  21.020  0.00  0.00    +0.000 A 
ATOM      4  C   UNL     1       2.243   3.591  21.483  0.00  0.00    +0.000 A 
ATOM      5  C   UNL     1       2.212   4.764  20.729  0.00  0.00    +0.000 A 
ATOM      6  C   UNL     1       2.953   4.893  19.542  0.00  0.00    +0.000 A 
ENDROOT
BRANCH   6   7
ATOM      7  N   UNL     1       2.955   6.089  18.783  0.00  0.00    +0.000 N 
ATOM      8  C   UNL     1       2.332   7.262  19.089  0.00  0.00    +0.000 A 
ATOM      9  N   UNL     1       1.930   7.669  20.277  0.00  0.00    +0.000 NA
ATOM     10  N   UNL     1       1.306   8.896  20.264  0.00  0.00    +0.000 NA
ATOM     11  C   UNL     1       1.278   9.438  19.064  0.00  0.00    +0.000 A 
ATOM     12  S   UNL     1       2.000   8.436  17.859  0.00  0.00    +0.000 S 
ATOM     13  H   UNL     1       3.262   5.946  17.826  0.00  0.00    +0.000 HD
BRANCH  11  14
ATOM     14  C   UNL     1       0.658  10.740  18.769  0.00  0.00    +0.000 A 
ATOM     15  C   UNL     1       1.365  11.949  18.795  0.00  0.00    +0.000 A 
ATOM     16  C   UNL     1       0.687  13.127  18.521  0.00  0.00    +0.000 A 
ATOM     17  N   UNL     1      -0.627  13.190  18.226  0.00  0.00    +0.000 NA
ATOM     18  C   UNL     1      -1.300  12.022  18.210  0.00  0.00    +0.000 A 
ATOM     19  C   UNL     1      -0.712  10.796  18.473  0.00  0.00    +0.000 A 
ENDBRANCH  11  14
ENDBRANCH   6   7
BRANCH   1  20
ATOM     20  O   UNL     1       4.674   3.895  18.145  0.00  0.00    +0.000 OA
BRANCH  20  26
ATOM     21  C   UNL     1       6.287   5.498  17.201  0.00  0.00    +0.000 A 
ATOM     22  C   UNL     1       7.452   6.265  17.444  0.00  0.00    +0.000 A 
ATOM     23  C   UNL     1       8.036   6.348  18.712  0.00  0.00    +0.000 A 
ATOM     24  C   UNL     1       7.434   5.729  19.793  0.00  0.00    +0.000 A 
ATOM     25  C   UNL     1       6.266   4.997  19.601  0.00  0.00    +0.000 A 
ATOM     26  C   UNL     1       5.737   4.795  18.310  0.00  0.00    +0.000 A 
BRANCH  21  28
ATOM     27  C   UNL     1       4.999   6.642  15.420  0.00  0.00    +0.000 C 
ATOM     28  C   UNL     1       5.780   5.354  15.749  0.00  0.00    +0.000 C 
ATOM     29  C   UNL     1       4.782   4.178  15.503  0.00  0.00    +0.000 C 
ATOM     30  C   UNL     1       6.932   5.086  14.754  0.00  0.00    +0.000 C 
ENDBRANCH  21  28
ENDBRANCH  20  26
ENDBRANCH   1  20
TORSDOF 5
ENDMDL
MODEL 2
REMARK VINA RESULT:      -8.6      1.529      2.648
REMARK  Name = 
REMARK  8 active torsions:
REMARK  status: ('A' for Active; 'I' for Inactive)
REMARK    1  A    between atoms: C_1  and  C_2
REMARK    2  A    between atoms: C_2  and  C_3
REMARK    3  A    between atoms: C_2  and  C_4
REMARK    4  A    between atoms: C_2  and  C_5
REMARK    5  A    between atoms: C_10  and  O_11
REMARK    6  A    between atoms: O_11  and  C_12
REMARK    7  A    between atoms: C_17  and  N_18
REMARK    8  A    between atoms: C_22  and  C_23
REMARK                            x       y       z     vdW  Elec       q    Type
REMARK                         _______ _______ _______ _____ _____    ______ ____
ROOT
ATOM      1  C   UNL     1       3.851   3.718  18.189  0.00  0.00    +0.000 A 
ATOM      2  N   UNL     1       3.831   2.372  18.386  0.00  0.00    +0.000 NA
ATOM      3  C   UNL     1       2.636   1.779  18.565  0.00  0.00    +0.000 A 
ATOM      4  C   UNL     1       1.439   2.458  18.508  0.00  0.00    +0.000 A 
ATOM      5  C   UNL     1       1.471   3.823  18.225  0.00  0.00    +0.000 A 
ATOM      6  C   UNL     1       2.685   4.503  18.026  0.00  0.00    +0.000 A 
ENDROOT
BRANCH   6   7
ATOM      7  N   UNL     1       2.734   5.894  17.768  0.00  0.00    +0.000 N 
ATOM      8  C   UNL     1       2.299   6.900  18.579  0.00  0.00    +0.000 A 
ATOM      9  N   UNL     1       2.099   6.849  19.881  0.00  0.00    +0.000 NA
ATOM     10  N   UNL     1       1.628   8.025  20.419  0.00  0.00    +0.000 NA
ATOM     11  C   UNL     1       1.515   8.984  19.523  0.00  0.00    +0.000 A 
ATOM     12  S   UNL     1       1.958   8.472  17.935  0.00  0.00    +0.000 S 
ATOM     13  H   UNL     1       2.901   6.107  16.790  0.00  0.00    +0.000 HD
BRANCH  11  14
ATOM     14  C   UNL     1       1.023  10.337  19.829  0.00  0.00    +0.000 A 
ATOM     15  C   UNL     1       1.113  11.407  18.930  0.00  0.00    +0.000 A 
ATOM     16  C   UNL     1       0.638  12.650  19.320  0.00  0.00    +0.000 A 
ATOM     17  N   UNL     1       0.085  12.904  20.523  0.00  0.00    +0.000 NA
ATOM     18  C   UNL     1       0.010  11.869  21.383  0.00  0.00    +0.000 A 
ATOM     19  C   UNL     1       0.460  10.592  21.088  0.00  0.00    +0.000 A 
ENDBRANCH  11  14
ENDBRANCH   6   7
BRANCH   1  20
ATOM     20  O   UNL     1       5.106   4.354  18.191  0.00  0.00    +0.000 OA
BRANCH  20  26
ATOM     21  C   UNL     1       6.671   5.543  16.709  0.00  0.00    +0.000 A 
ATOM     22  C   UNL     1       7.162   5.670  15.386  0.00  0.00    +0.000 A 
ATOM     23  C   UNL     1       6.789   4.787  14.368  0.00  0.00    +0.000 A 
ATOM     24  C   UNL     1       5.973   3.707  14.652  0.00  0.00    +0.000 A 
ATOM     25  C   UNL     1       5.501   3.527  15.949  0.00  0.00    +0.000 A 
ATOM     26  C   UNL     1       5.760   4.477  16.957  0.00  0.00    +0.000 A 
BRANCH  21  28
ATOM     27  C   UNL     1       5.718   7.371  18.083  0.00  0.00    +0.000 C 
ATOM     28  C   UNL     1       7.029   6.633  17.742  0.00  0.00    +0.000 C 
ATOM     29  C   UNL     1       8.016   7.734  17.240  0.00  0.00    +0.000 C 
ATOM     30  C   UNL     1       7.722   6.045  18.993  0.00  0.00    +0.000 C 
ENDBRANCH  21  28
ENDBRANCH  20  26
ENDBRANCH   1  20
TORSDOF 5
ENDMDL
MODEL 3
REMARK VINA RESULT:      -8.2      3.980      6.819
REMARK  Name = 
REMARK  8 active torsions:
REMARK  status: ('A' for Active; 'I' for Inactive)
REMARK    1  A    between atoms: C_1  and  C_2
REMARK    2  A    between atoms: C_2  and  C_3
REMARK    3  A    between atoms: C_2  and  C_4
REMARK    4  A    between atoms: C_2  and  C_5
REMARK    5  A    between atoms: C_10  and  O_11
REMARK    6  A    between atoms: O_11  and  C_12
REMARK    7  A    between atoms: C_17  and  N_18
REMARK    8  A    between atoms: C_22  and  C_23
REMARK                            x       y       z     vdW  Elec       q    Type
REMARK                         _______ _______ _______ _____ _____    ______ ____
ROOT
ATOM      1  C   UNL     1       5.768   4.297  16.837  0.00  0.00    +0.000 A 
ATOM      2  N   UNL     1       5.292   3.550  15.804  0.00  0.00    +0.000 NA
ATOM      3  C   UNL     1       5.844   3.730  14.589  0.00  0.00    +0.000 A 
ATOM      4  C   UNL     1       6.893   4.591  14.355  0.00  0.00    +0.000 A 
ATOM      5  C   UNL     1       7.423   5.290  15.439  0.00  0.00    +0.000 A 
ATOM      6  C   UNL     1       6.895   5.148  16.734  0.00  0.00    +0.000 A 
ENDROOT
BRANCH   6   7
ATOM      7  N   UNL     1       7.403   5.874  17.838  0.00  0.00    +0.000 N 
ATOM      8  C   UNL     1       7.704   7.203  17.883  0.00  0.00    +0.000 A 
ATOM      9  N   UNL     1       7.256   8.153  17.087  0.00  0.00    +0.000 NA
ATOM     10  N   UNL     1       7.764   9.401  17.367  0.00  0.00    +0.000 NA
ATOM     11  C   UNL     1       8.568   9.399  18.412  0.00  0.00    +0.000 A 
ATOM     12  S   UNL     1       8.770   7.828  19.097  0.00  0.00    +0.000 S 
ATOM     13  H   UNL     1       7.780   5.273  18.564  0.00  0.00    +0.000 HD
BRANCH  11  14
ATOM     14  C   UNL     1       9.255  10.598  18.918  0.00  0.00    +0.000 A 
ATOM     15  C   UNL     1       9.479  10.836  20.280  0.00  0.00    +0.000 A 
ATOM     16  C   UNL     1      10.120  12.006  20.658  0.00  0.00    +0.000 A 
ATOM     17  N   UNL     1      10.549  12.946  19.792  0.00  0.00    +0.000 NA
ATOM     18  C   UNL     1      10.322  12.711  18.485  0.00  0.00    +0.000 A 
ATOM     19  C   UNL     1       9.688  11.575  18.009  0.00  0.00    +0.000 A 
ENDBRANCH  11  14
ENDBRANCH   6   7
BRANCH   1  20
ATOM     20  O   UNL     1       5.065   4.242  18.054  0.00  0.00    +0.000 OA
BRANCH  20  26
ATOM     21  C   UNL     1       2.717   4.661  18.663  0.00  0.00    +0.000 A 
ATOM     22  C   UNL     1       1.650   5.592  18.637  0.00  0.00    +0.000 A 
ATOM     23  C   UNL     1       1.823   6.908  18.198  0.00  0.00    +0.000 A 
ATOM     24  C   UNL     1       3.082   7.359  17.842  0.00  0.00    +0.000 A 
ATOM     25  C   UNL     1       4.163   6.484  17.891  0.00  0.00    +0.000 A 
ATOM     26  C   UNL     1       3.984   5.122  18.205  0.00  0.00    +0.000 A 
BRANCH  21  28
ATOM     27  C   UNL     1       0.975   3.162  19.591  0.00  0.00    +0.000 C 
ATOM     28  C   UNL     1       2.415   3.194  19.038  0.00  0.00    +0.000 C 
ATOM     29  C   UNL     1       3.315   2.592  20.165  0.00  0.00    +0.000 C 
ATOM     30  C   UNL     1       2.614   2.234  17.843  0.00  0.00    +0.000 C 
ENDBRANCH  21  28
ENDBRANCH  20  26
ENDBRANCH   1  20
TORSDOF 5
ENDMDL
MODEL 4
REMARK VINA RESULT:      -8.2      4.017      6.810
REMARK  Name = 
REMARK  8 active torsions:
REMARK  status: ('A' for Active; 'I' for Inactive)
REMARK    1  A    between atoms: C_1  and  C_2
REMARK    2  A    between atoms: C_2  and  C_3
REMARK    3  A    between atoms: C_2  and  C_4
REMARK    4  A    between atoms: C_2  and  C_5
REMARK    5  A    between atoms: C_10  and  O_11
REMARK    6  A    between atoms: O_11  and  C_12
REMARK    7  A    between atoms: C_17  and  N_18
REMARK    8  A    between atoms: C_22  and  C_23
REMARK                            x       y       z     vdW  Elec       q    Type
REMARK                         _______ _______ _______ _____ _____    ______ ____
ROOT
ATOM      1  C   UNL     1       5.878   4.257  16.776  0.00  0.00    +0.000 A 
ATOM      2  N   UNL     1       5.411   3.507  15.742  0.00  0.00    +0.000 NA
ATOM      3  C   UNL     1       5.915   3.741  14.516  0.00  0.00    +0.000 A 
ATOM      4  C   UNL     1       6.909   4.661  14.270  0.00  0.00    +0.000 A 
ATOM      5  C   UNL     1       7.435   5.365  15.353  0.00  0.00    +0.000 A 
ATOM      6  C   UNL     1       6.955   5.168  16.659  0.00  0.00    +0.000 A 
ENDROOT
BRANCH   6   7
ATOM      7  N   UNL     1       7.458   5.898  17.764  0.00  0.00    +0.000 N 
ATOM      8  C   UNL     1       7.723   7.234  17.818  0.00  0.00    +0.000 A 
ATOM      9  N   UNL     1       7.238   8.179  17.038  0.00  0.00    +0.000 NA
ATOM     10  N   UNL     1       7.716   9.438  17.324  0.00  0.00    +0.000 NA
ATOM     11  C   UNL     1       8.533   9.448  18.357  0.00  0.00    +0.000 A 
ATOM     12  S   UNL     1       8.788   7.877  19.024  0.00  0.00    +0.000 S 
ATOM     13  H   UNL     1       7.861   5.300  18.478  0.00  0.00    +0.000 HD
BRANCH  11  14
ATOM     14  C   UNL     1       9.194  10.660  18.866  0.00  0.00    +0.000 A 
ATOM     15  C   UNL     1       9.697  11.667  18.033  0.00  0.00    +0.000 A 
ATOM     16  C   UNL     1      10.322  12.763  18.609  0.00  0.00    +0.000 A 
ATOM     17  N   UNL     1      10.480  12.929  19.937  0.00  0.00    +0.000 NA
ATOM     18  C   UNL     1       9.999  11.952  20.730  0.00  0.00    +0.000 A 
ATOM     19  C   UNL     1       9.364  10.818  20.250  0.00  0.00    +0.000 A 
ENDBRANCH  11  14
ENDBRANCH   6   7
BRANCH   1  20
ATOM     20  O   UNL     1       5.217   4.140  18.012  0.00  0.00    +0.000 OA
BRANCH  20  26
ATOM     21  C   UNL     1       2.855   4.367  18.670  0.00  0.00    +0.000 A 
ATOM     22  C   UNL     1       1.721   5.215  18.683  0.00  0.00    +0.000 A 
ATOM     23  C   UNL     1       1.787   6.550  18.271  0.00  0.00    +0.000 A 
ATOM     24  C   UNL     1       3.002   7.102  17.905  0.00  0.00    +0.000 A 
ATOM     25  C   UNL     1       4.146   6.311  17.916  0.00  0.00    +0.000 A 
ATOM     26  C   UNL     1       4.076   4.932  18.202  0.00  0.00    +0.000 A 
BRANCH  21  28
ATOM     27  C   UNL     1       2.660   2.105  17.678  0.00  0.00    +0.000 C 
ATOM     28  C   UNL     1       2.671   2.873  19.016  0.00  0.00    +0.000 C 
ATOM     29  C   UNL     1       1.327   2.511  19.723  0.00  0.00    +0.000 C 
ATOM     30  C   UNL     1       3.760   2.361  19.986  0.00  0.00    +0.000 C 
ENDBRANCH  21  28
ENDBRANCH  20  26
ENDBRANCH   1  20
TORSDOF 5
ENDMDL
MODEL 5
REMARK VINA RESULT:      -8.1      0.680      1.374
REMARK  Name = 
REMARK  8 active torsions:
REMARK  status: ('A' for Active; 'I' for Inactive)
REMARK    1  A    between atoms: C_1  and  C_2
REMARK    2  A    between atoms: C_2  and  C_3
REMARK    3  A    between atoms: C_2  and  C_4
REMARK    4  A    between atoms: C_2  and  C_5
REMARK    5  A    between atoms: C_10  and  O_11
REMARK    6  A    between atoms: O_11  and  C_12
REMARK    7  A    between atoms: C_17  and  N_18
REMARK    8  A    between atoms: C_22  and  C_23
REMARK                            x       y       z     vdW  Elec       q    Type
REMARK                         _______ _______ _______ _____ _____    ______ ____
ROOT
ATOM      1  C   UNL     1       3.267   4.127  18.818  0.00  0.00    +0.000 A 
ATOM      2  N   UNL     1       3.167   2.890  19.377  0.00  0.00    +0.000 NA
ATOM      3  C   UNL     1       2.448   2.766  20.508  0.00  0.00    +0.000 A 
ATOM      4  C   UNL     1       1.773   3.813  21.094  0.00  0.00    +0.000 A 
ATOM      5  C   UNL     1       1.820   5.058  20.466  0.00  0.00    +0.000 A 
ATOM      6  C   UNL     1       2.551   5.256  19.282  0.00  0.00    +0.000 A 
ENDROOT
BRANCH   6   7
ATOM      7  N   UNL     1       2.632   6.521  18.651  0.00  0.00    +0.000 N 
ATOM      8  C   UNL     1       2.067   7.689  19.068  0.00  0.00    +0.000 A 
ATOM      9  N   UNL     1       1.665   7.994  20.286  0.00  0.00    +0.000 NA
ATOM     10  N   UNL     1       1.108   9.248  20.392  0.00  0.00    +0.000 NA
ATOM     11  C   UNL     1       1.132   9.911  19.254  0.00  0.00    +0.000 A 
ATOM     12  S   UNL     1       1.823   9.000  17.962  0.00  0.00    +0.000 S 
ATOM     13  H   UNL     1       2.949   6.460  17.689  0.00  0.00    +0.000 HD
BRANCH  11  14
ATOM     14  C   UNL     1       0.590  11.269  19.086  0.00  0.00    +0.000 A 
ATOM     15  C   UNL     1      -0.774  11.569  19.192  0.00  0.00    +0.000 A 
ATOM     16  C   UNL     1      -1.189  12.878  18.998  0.00  0.00    +0.000 A 
ATOM     17  N   UNL     1      -0.357  13.899  18.710  0.00  0.00    +0.000 NA
ATOM     18  C   UNL     1       0.953  13.599  18.603  0.00  0.00    +0.000 A 
ATOM     19  C   UNL     1       1.463  12.322  18.776  0.00  0.00    +0.000 A 
ENDBRANCH  11  14
ENDBRANCH   6   7
BRANCH   1  20
ATOM     20  O   UNL     1       4.169   4.285  17.750  0.00  0.00    +0.000 OA
BRANCH  20  26
ATOM     21  C   UNL     1       6.350   5.163  17.019  0.00  0.00    +0.000 A 
ATOM     22  C   UNL     1       7.638   5.584  17.429  0.00  0.00    +0.000 A 
ATOM     23  C   UNL     1       7.987   5.703  18.779  0.00  0.00    +0.000 A 
ATOM     24  C   UNL     1       7.038   5.478  19.761  0.00  0.00    +0.000 A 
ATOM     25  C   UNL     1       5.750   5.099  19.396  0.00  0.00    +0.000 A 
ATOM     26  C   UNL     1       5.418   4.848  18.049  0.00  0.00    +0.000 A 
BRANCH  21  28
ATOM     27  C   UNL     1       5.619   3.471  15.363  0.00  0.00    +0.000 C 
ATOM     28  C   UNL     1       6.086   4.934  15.515  0.00  0.00    +0.000 C 
ATOM     29  C   UNL     1       7.334   5.079  14.587  0.00  0.00    +0.000 C 
ATOM     30  C   UNL     1       5.068   5.945  14.941  0.00  0.00    +0.000 C 
ENDBRANCH  21  28
ENDBRANCH  20  26
ENDBRANCH   1  20
TORSDOF 5
ENDMDL
MODEL 6
REMARK VINA RESULT:      -8.1      2.047      2.209
REMARK  Name = 
REMARK  8 active torsions:
REMARK  status: ('A' for Active; 'I' for Inactive)
REMARK    1  A    between atoms: C_1  and  C_2
REMARK    2  A    between atoms: C_2  and  C_3
REMARK    3  A    between atoms: C_2  and  C_4
REMARK    4  A    between atoms: C_2  and  C_5
REMARK    5  A    between atoms: C_10  and  O_11
REMARK    6  A    between atoms: O_11  and  C_12
REMARK    7  A    between atoms: C_17  and  N_18
REMARK    8  A    between atoms: C_22  and  C_23
REMARK                            x       y       z     vdW  Elec       q    Type
REMARK                         _______ _______ _______ _____ _____    ______ ____
ROOT
ATOM      1  C   UNL     1       3.183   4.871  18.894  0.00  0.00    +0.000 A 
ATOM      2  N   UNL     1       3.340   3.532  19.077  0.00  0.00    +0.000 NA
ATOM      3  C   UNL     1       2.714   2.962  20.123  0.00  0.00    +0.000 A 
ATOM      4  C   UNL     1       1.890   3.655  20.981  0.00  0.00    +0.000 A 
ATOM      5  C   UNL     1       1.675   5.011  20.733  0.00  0.00    +0.000 A 
ATOM      6  C   UNL     1       2.296   5.668  19.657  0.00  0.00    +0.000 A 
ENDROOT
BRANCH   6   7
ATOM      7  N   UNL     1       2.112   7.050  19.411  0.00  0.00    +0.000 N 
ATOM      8  C   UNL     1       1.627   7.984  20.277  0.00  0.00    +0.000 A 
ATOM      9  N   UNL     1       1.584   7.911  21.593  0.00  0.00    +0.000 NA
ATOM     10  N   UNL     1       1.009   9.008  22.194  0.00  0.00    +0.000 NA
ATOM     11  C   UNL     1       0.657   9.935  21.327  0.00  0.00    +0.000 A 
ATOM     12  S   UNL     1       0.989   9.486  19.694  0.00  0.00    +0.000 S 
ATOM     13  H   UNL     1       2.135   7.280  18.423  0.00  0.00    +0.000 HD
BRANCH  11  14
ATOM     14  C   UNL     1       0.009  11.202  21.702  0.00  0.00    +0.000 A 
ATOM     15  C   UNL     1       0.389  12.443  21.175  0.00  0.00    +0.000 A 
ATOM     16  C   UNL     1      -0.271  13.584  21.606  0.00  0.00    +0.000 A 
ATOM     17  N   UNL     1      -1.268  13.582  22.513  0.00  0.00    +0.000 NA
ATOM     18  C   UNL     1      -1.621  12.384  23.020  0.00  0.00    +0.000 A 
ATOM     19  C   UNL     1      -1.020  11.190  22.655  0.00  0.00    +0.000 A 
ENDBRANCH  11  14
ENDBRANCH   6   7
BRANCH   1  20
ATOM     20  O   UNL     1       3.985   5.490  17.917  0.00  0.00    +0.000 OA
BRANCH  20  26
ATOM     21  C   UNL     1       6.255   5.164  17.021  0.00  0.00    +0.000 A 
ATOM     22  C   UNL     1       7.622   4.979  17.338  0.00  0.00    +0.000 A 
ATOM     23  C   UNL     1       8.099   5.069  18.650  0.00  0.00    +0.000 A 
ATOM     24  C   UNL     1       7.241   5.422  19.676  0.00  0.00    +0.000 A 
ATOM     25  C   UNL     1       5.896   5.649  19.397  0.00  0.00    +0.000 A 
ATOM     26  C   UNL     1       5.373   5.436  18.106  0.00  0.00    +0.000 A 
BRANCH  21  28
ATOM     27  C   UNL     1       4.864   3.686  15.600  0.00  0.00    +0.000 C 
ATOM     28  C   UNL     1       5.788   4.920  15.569  0.00  0.00    +0.000 C 
ATOM     29  C   UNL     1       6.922   4.575  14.551  0.00  0.00    +0.000 C 
ATOM     30  C   UNL     1       5.100   6.163  14.961  0.00  0.00    +0.000 C 
ENDBRANCH  21  28
ENDBRANCH  20  26
ENDBRANCH   1  20
TORSDOF 5
ENDMDL
MODEL 7
REMARK VINA RESULT:      -8.0      1.883      2.008
REMARK  Name = 
REMARK  8 active torsions:
REMARK  status: ('A' for Active; 'I' for Inactive)
REMARK    1  A    between atoms: C_1  and  C_2
REMARK    2  A    between atoms: C_2  and  C_3
REMARK    3  A    between atoms: C_2  and  C_4
REMARK    4  A    between atoms: C_2  and  C_5
REMARK    5  A    between atoms: C_10  and  O_11
REMARK    6  A    between atoms: O_11  and  C_12
REMARK    7  A    between atoms: C_17  and  N_18
REMARK    8  A    between atoms: C_22  and  C_23
REMARK                            x       y       z     vdW  Elec       q    Type
REMARK                         _______ _______ _______ _____ _____    ______ ____
ROOT
ATOM      1  C   UNL     1       3.071   4.666  18.769  0.00  0.00    +0.000 A 
ATOM      2  N   UNL     1       3.155   3.322  18.966  0.00  0.00    +0.000 NA
ATOM      3  C   UNL     1       2.538   2.803  20.043  0.00  0.00    +0.000 A 
ATOM      4  C   UNL     1       1.790   3.554  20.922  0.00  0.00    +0.000 A 
ATOM      5  C   UNL     1       1.646   4.917  20.663  0.00  0.00    +0.000 A 
ATOM      6  C   UNL     1       2.262   5.523  19.554  0.00  0.00    +0.000 A 
ENDROOT
BRANCH   6   7
ATOM      7  N   UNL     1       2.151   6.910  19.296  0.00  0.00    +0.000 N 
ATOM      8  C   UNL     1       1.704   7.875  20.150  0.00  0.00    +0.000 A 
ATOM      9  N   UNL     1       1.643   7.815  21.465  0.00  0.00    +0.000 NA
ATOM     10  N   UNL     1       1.118   8.944  22.051  0.00  0.00    +0.000 NA
ATOM     11  C   UNL     1       0.822   9.881  21.173  0.00  0.00    +0.000 A 
ATOM     12  S   UNL     1       1.149   9.402  19.548  0.00  0.00    +0.000 S 
ATOM     13  H   UNL     1       2.196   7.130  18.307  0.00  0.00    +0.000 HD
BRANCH  11  14
ATOM     14  C   UNL     1       0.236  11.182  21.531  0.00  0.00    +0.000 A 
ATOM     15  C   UNL     1      -0.727  11.339  22.536  0.00  0.00    +0.000 A 
ATOM     16  C   UNL     1      -1.233  12.606  22.786  0.00  0.00    +0.000 A 
ATOM     17  N   UNL     1      -0.858  13.714  22.117  0.00  0.00    +0.000 NA
ATOM     18  C   UNL     1       0.063  13.551  21.146  0.00  0.00    +0.000 A 
ATOM     19  C   UNL     1       0.625  12.328  20.821  0.00  0.00    +0.000 A 
ENDBRANCH  11  14
ENDBRANCH   6   7
BRANCH   1  20
ATOM     20  O   UNL     1       3.869   5.224  17.754  0.00  0.00    +0.000 OA
BRANCH  20  26
ATOM     21  C   UNL     1       6.200   5.392  16.979  0.00  0.00    +0.000 A 
ATOM     22  C   UNL     1       7.563   5.388  17.362  0.00  0.00    +0.000 A 
ATOM     23  C   UNL     1       7.958   5.375  18.704  0.00  0.00    +0.000 A 
ATOM     24  C   UNL     1       7.006   5.443  19.706  0.00  0.00    +0.000 A 
ATOM     25  C   UNL     1       5.657   5.487  19.368  0.00  0.00    +0.000 A 
ATOM     26  C   UNL     1       5.237   5.369  18.028  0.00  0.00    +0.000 A 
BRANCH  21  28
ATOM     27  C   UNL     1       5.117   6.576  15.091  0.00  0.00    +0.000 C 
ATOM     28  C   UNL     1       5.848   5.275  15.480  0.00  0.00    +0.000 C 
ATOM     29  C   UNL     1       4.871   4.114  15.111  0.00  0.00    +0.000 C 
ATOM     30  C   UNL     1       7.096   5.011  14.607  0.00  0.00    +0.000 C 
ENDBRANCH  21  28
ENDBRANCH  20  26
ENDBRANCH   1  20
TORSDOF 5
ENDMDL
MODEL 8
REMARK VINA RESULT:      -7.9      2.037      2.258
REMARK  Name = 
REMARK  8 active torsions:
REMARK  status: ('A' for Active; 'I' for Inactive)
REMARK    1  A    between atoms: C_1  and  C_2
REMARK    2  A    between atoms: C_2  and  C_3
REMARK    3  A    between atoms: C_2  and  C_4
REMARK    4  A    between atoms: C_2  and  C_5
REMARK    5  A    between atoms: C_10  and  O_11
REMARK    6  A    between atoms: O_11  and  C_12
REMARK    7  A    between atoms: C_17  and  N_18
REMARK    8  A    between atoms: C_22  and  C_23
REMARK                            x       y       z     vdW  Elec       q    Type
REMARK                         _______ _______ _______ _____ _____    ______ ____
ROOT
ATOM      1  C   UNL     1       3.264   5.173  18.898  0.00  0.00    +0.000 A 
ATOM      2  N   UNL     1       3.384   3.821  18.990  0.00  0.00    +0.000 NA
ATOM      3  C   UNL     1       2.699   3.192  19.964  0.00  0.00    +0.000 A 
ATOM      4  C   UNL     1       1.851   3.842  20.833  0.00  0.00    +0.000 A 
ATOM      5  C   UNL     1       1.677   5.217  20.675  0.00  0.00    +0.000 A 
ATOM      6  C   UNL     1       2.360   5.934  19.678  0.00  0.00    +0.000 A 
ENDROOT
BRANCH   6   7
ATOM      7  N   UNL     1       2.217   7.334  19.526  0.00  0.00    +0.000 N 
ATOM      8  C   UNL     1       1.467   8.175  20.294  0.00  0.00    +0.000 A 
ATOM      9  N   UNL     1       1.035   7.967  21.522  0.00  0.00    +0.000 NA
ATOM     10  N   UNL     1       0.274   8.997  22.027  0.00  0.00    +0.000 NA
ATOM     11  C   UNL     1       0.170  10.009  21.190  0.00  0.00    +0.000 A 
ATOM     12  S   UNL     1       0.989   9.730  19.697  0.00  0.00    +0.000 S 
ATOM     13  H   UNL     1       2.528   7.665  18.618  0.00  0.00    +0.000 HD
BRANCH  11  14
ATOM     14  C   UNL     1      -0.597  11.232  21.476  0.00  0.00    +0.000 A 
ATOM     15  C   UNL     1      -0.948  11.631  22.772  0.00  0.00    +0.000 A 
ATOM     16  C   UNL     1      -1.691  12.791  22.936  0.00  0.00    +0.000 A 
ATOM     17  N   UNL     1      -2.104  13.573  21.919  0.00  0.00    +0.000 NA
ATOM     18  C   UNL     1      -1.768  13.176  20.676  0.00  0.00    +0.000 A 
ATOM     19  C   UNL     1      -1.032  12.032  20.410  0.00  0.00    +0.000 A 
ENDBRANCH  11  14
ENDBRANCH   6   7
BRANCH   1  20
ATOM     20  O   UNL     1       4.123   5.841  18.006  0.00  0.00    +0.000 OA
BRANCH  20  26
ATOM     21  C   UNL     1       6.305   5.220  17.050  0.00  0.00    +0.000 A 
ATOM     22  C   UNL     1       7.648   4.866  17.332  0.00  0.00    +0.000 A 
ATOM     23  C   UNL     1       8.171   4.911  18.627  0.00  0.00    +0.000 A 
ATOM     24  C   UNL     1       7.396   5.382  19.672  0.00  0.00    +0.000 A 
ATOM     25  C   UNL     1       6.083   5.774  19.428  0.00  0.00    +0.000 A 
ATOM     26  C   UNL     1       5.498   5.613  18.156  0.00  0.00    +0.000 A 
BRANCH  21  28
ATOM     27  C   UNL     1       6.989   4.723  14.721  0.00  0.00    +0.000 C 
ATOM     28  C   UNL     1       5.768   5.019  15.616  0.00  0.00    +0.000 C 
ATOM     29  C   UNL     1       5.069   6.264  14.983  0.00  0.00    +0.000 C 
ATOM     30  C   UNL     1       4.697   3.907  15.546  0.00  0.00    +0.000 C 
ENDBRANCH  21  28
ENDBRANCH  20  26
ENDBRANCH   1  20
TORSDOF 5
ENDMDL
MODEL 9
REMARK VINA RESULT:      -7.8      3.072      9.709
REMARK  Name = 
REMARK  8 active torsions:
REMARK  status: ('A' for Active; 'I' for Inactive)
REMARK    1  A    between atoms: C_1  and  C_2
REMARK    2  A    between atoms: C_2  and  C_3
REMARK    3  A    between atoms: C_2  and  C_4
REMARK    4  A    between atoms: C_2  and  C_5
REMARK    5  A    between atoms: C_10  and  O_11
REMARK    6  A    between atoms: O_11  and  C_12
REMARK    7  A    between atoms: C_17  and  N_18
REMARK    8  A    between atoms: C_22  and  C_23
REMARK                            x       y       z     vdW  Elec       q    Type
REMARK                         _______ _______ _______ _____ _____    ______ ____
ROOT
ATOM      1  C   UNL     1       0.311  12.322  19.172  0.00  0.00    +0.000 A 
ATOM      2  N   UNL     1       0.243  13.626  19.553  0.00  0.00    +0.000 NA
ATOM      3  C   UNL     1       1.316  14.406  19.323  0.00  0.00    +0.000 A 
ATOM      4  C   UNL     1       2.451  13.961  18.682  0.00  0.00    +0.000 A 
ATOM      5  C   UNL     1       2.474  12.643  18.227  0.00  0.00    +0.000 A 
ATOM      6  C   UNL     1       1.386  11.777  18.431  0.00  0.00    +0.000 A 
ENDROOT
BRANCH   6   7
ATOM      7  N   UNL     1       1.408  10.428  18.001  0.00  0.00    +0.000 N 
ATOM      8  C   UNL     1       1.601   9.319  18.771  0.00  0.00    +0.000 A 
ATOM      9  N   UNL     1       1.433   9.209  20.074  0.00  0.00    +0.000 NA
ATOM     10  N   UNL     1       1.734   7.962  20.572  0.00  0.00    +0.000 NA
ATOM     11  C   UNL     1       2.089   7.112  19.630  0.00  0.00    +0.000 A 
ATOM     12  S   UNL     1       2.104   7.823  18.058  0.00  0.00    +0.000 S 
ATOM     13  H   UNL     1       1.518  10.338  16.996  0.00  0.00    +0.000 HD
BRANCH  11  14
ATOM     14  C   UNL     1       2.475   5.716  19.891  0.00  0.00    +0.000 A 
ATOM     15  C   UNL     1       1.778   4.880  20.771  0.00  0.00    +0.000 A 
ATOM     16  C   UNL     1       2.232   3.583  20.964  0.00  0.00    +0.000 A 
ATOM     17  N   UNL     1       3.316   3.065  20.354  0.00  0.00    +0.000 NA
ATOM     18  C   UNL     1       3.985   3.881  19.515  0.00  0.00    +0.000 A 
ATOM     19  C   UNL     1       3.612   5.190  19.259  0.00  0.00    +0.000 A 
ENDBRANCH  11  14
ENDBRANCH   6   7
BRANCH   1  20
ATOM     20  O   UNL     1      -0.733  11.473  19.582  0.00  0.00    +0.000 OA
BRANCH  20  26
ATOM     21  C   UNL     1      -3.089  12.186  19.509  0.00  0.00    +0.000 A 
ATOM     22  C   UNL     1      -4.311  12.116  18.797  0.00  0.00    +0.000 A 
ATOM     23  C   UNL     1      -4.406  11.501  17.545  0.00  0.00    +0.000 A 
ATOM     24  C   UNL     1      -3.272  11.003  16.929  0.00  0.00    +0.000 A 
ATOM     25  C   UNL     1      -2.045  11.088  17.581  0.00  0.00    +0.000 A 
ATOM     26  C   UNL     1      -1.952  11.586  18.897  0.00  0.00    +0.000 A 
BRANCH  21  28
ATOM     27  C   UNL     1      -4.557  12.732  21.429  0.00  0.00    +0.000 C 
ATOM     28  C   UNL     1      -3.094  12.766  20.940  0.00  0.00    +0.000 C 
ATOM     29  C   UNL     1      -2.641  14.256  21.061  0.00  0.00    +0.000 C 
ATOM     30  C   UNL     1      -2.136  12.002  21.882  0.00  0.00    +0.000 C 
ENDBRANCH  21  28
ENDBRANCH  20  26
ENDBRANCH   1  20
TORSDOF 5
ENDMDL
