MODEL 1
REMARK VINA RESULT:      -9.4      0.000      0.000
REMARK  Name = 
REMARK  3 active torsions:
REMARK  status: ('A' for Active; 'I' for Inactive)
REMARK    1  A    between atoms: C_6  and  N_7
REMARK    2  A    between atoms: N_7  and  C_8
REMARK    3  A    between atoms: C_12  and  C_13
REMARK                            x       y       z     vdW  Elec       q    Type
REMARK                         _______ _______ _______ _____ _____    ______ ____
ROOT
ATOM      1  C   UNL     1       2.853   6.103  19.548  0.00  0.00    +0.000 A 
ATOM      2  N   UNL     1       3.809   6.263  18.596  0.00  0.00    +0.000 NA
ATOM      3  C   UNL     1       4.199   5.265  17.811  0.00  0.00    +0.000 A 
ATOM      4  C   UNL     1       5.150   5.544  16.842  0.00  0.00    +0.000 A 
ATOM      5  C   UNL     1       5.601   4.571  15.939  0.00  0.00    +0.000 A 
ATOM      6  C   UNL     1       5.074   3.278  16.039  0.00  0.00    +0.000 A 
ATOM      7  C   UNL     1       4.123   2.969  17.013  0.00  0.00    +0.000 A 
ATOM      8  C   UNL     1       3.681   3.970  17.905  0.00  0.00    +0.000 A 
ATOM      9  C   UNL     1       2.709   3.765  18.924  0.00  0.00    +0.000 A 
ATOM     10  S   UNL     1       1.877   2.298  19.321  0.00  0.00    +0.000 S 
ATOM     11  C   UNL     1       0.983   3.037  20.560  0.00  0.00    +0.000 A 
ATOM     12  C   UNL     1       1.296   4.367  20.695  0.00  0.00    +0.000 A 
ATOM     13  C   UNL     1       2.294   4.817  19.754  0.00  0.00    +0.000 A 
ENDROOT
BRANCH   5  14
ATOM     14  C   UNL     1       6.588   4.877  14.905  0.00  0.00    +0.000 A 
ATOM     15  N   UNL     1       7.663   5.634  15.020  0.00  0.00    +0.000 NA
ATOM     16  N   UNL     1       8.289   5.624  13.799  0.00  0.00    +0.000 NA
ATOM     17  N   UNL     1       7.622   4.878  12.932  0.00  0.00    +0.000 NA
ATOM     18  N   UNL     1       6.567   4.414  13.614  0.00  0.00    +0.000 N 
ATOM     19  H   UNL     1       5.905   3.810  13.146  0.00  0.00    +0.000 HD
ENDBRANCH   5  14
BRANCH   1  20
ATOM     20  N   UNL     1       2.466   7.236  20.286  0.00  0.00    +0.000 N 
ATOM     21  H   UNL     1       2.347   7.068  21.275  0.00  0.00    +0.000 HD
BRANCH  20  27
ATOM     22  F   UNL     1      -0.882  10.629  20.972  0.00  0.00    +0.000 F 
ATOM     23  C   UNL     1      -0.037   9.990  20.152  0.00  0.00    +0.000 A 
ATOM     24  C   UNL     1       0.032  10.361  18.818  0.00  0.00    +0.000 A 
ATOM     25  C   UNL     1       0.920   9.700  17.971  0.00  0.00    +0.000 A 
ATOM     26  C   UNL     1       1.732   8.675  18.471  0.00  0.00    +0.000 A 
ATOM     27  C   UNL     1       1.650   8.287  19.815  0.00  0.00    +0.000 A 
ATOM     28  C   UNL     1       0.757   8.968  20.653  0.00  0.00    +0.000 A 
ENDBRANCH  20  27
ENDBRANCH   1  20
TORSDOF 3
ENDMDL
MODEL 2
REMARK VINA RESULT:      -9.1      0.801      1.244
REMARK  Name = 
REMARK  3 active torsions:
REMARK  status: ('A' for Active; 'I' for Inactive)
REMARK    1  A    between atoms: C_6  and  N_7
REMARK    2  A    between atoms: N_7  and  C_8
REMARK    3  A    between atoms: C_12  and  C_13
REMARK                            x       y       z     vdW  Elec       q    Type
REMARK                         _______ _______ _______ _____ _____    ______ ____
ROOT
ATOM      1  C   UNL     1       2.875   6.066  19.627  0.00  0.00    +0.000 A 
ATOM      2  N   UNL     1       3.855   6.216  18.698  0.00  0.00    +0.000 NA
ATOM      3  C   UNL     1       4.153   5.262  17.823  0.00  0.00    +0.000 A 
ATOM      4  C   UNL     1       5.139   5.532  16.888  0.00  0.00    +0.000 A 
ATOM      5  C   UNL     1       5.502   4.608  15.899  0.00  0.00    +0.000 A 
ATOM      6  C   UNL     1       4.846   3.372  15.873  0.00  0.00    +0.000 A 
ATOM      7  C   UNL     1       3.856   3.071  16.811  0.00  0.00    +0.000 A 
ATOM      8  C   UNL     1       3.506   4.023  17.792  0.00  0.00    +0.000 A 
ATOM      9  C   UNL     1       2.505   3.824  18.783  0.00  0.00    +0.000 A 
ATOM     10  S   UNL     1       1.524   2.418  19.037  0.00  0.00    +0.000 S 
ATOM     11  C   UNL     1       0.692   3.124  20.338  0.00  0.00    +0.000 A 
ATOM     12  C   UNL     1       1.136   4.396  20.599  0.00  0.00    +0.000 A 
ATOM     13  C   UNL     1       2.187   4.829  19.709  0.00  0.00    +0.000 A 
ENDROOT
BRANCH   5  14
ATOM     14  C   UNL     1       6.528   4.908  14.902  0.00  0.00    +0.000 A 
ATOM     15  N   UNL     1       7.615   5.639  15.063  0.00  0.00    +0.000 NA
ATOM     16  N   UNL     1       8.279   5.634  13.862  0.00  0.00    +0.000 NA
ATOM     17  N   UNL     1       7.625   4.916  12.963  0.00  0.00    +0.000 NA
ATOM     18  N   UNL     1       6.539   4.465  13.603  0.00  0.00    +0.000 N 
ATOM     19  H   UNL     1       5.880   3.883  13.106  0.00  0.00    +0.000 HD
ENDBRANCH   5  14
BRANCH   1  20
ATOM     20  N   UNL     1       2.596   7.158  20.468  0.00  0.00    +0.000 N 
ATOM     21  H   UNL     1       2.749   6.977  21.449  0.00  0.00    +0.000 HD
BRANCH  20  27
ATOM     22  F   UNL     1       0.465  10.485  17.713  0.00  0.00    +0.000 F 
ATOM     23  C   UNL     1       0.528   9.810  18.869  0.00  0.00    +0.000 A 
ATOM     24  C   UNL     1      -0.395  10.081  19.868  0.00  0.00    +0.000 A 
ATOM     25  C   UNL     1      -0.333   9.370  21.065  0.00  0.00    +0.000 A 
ATOM     26  C   UNL     1       0.655   8.393  21.248  0.00  0.00    +0.000 A 
ATOM     27  C   UNL     1       1.599   8.133  20.247  0.00  0.00    +0.000 A 
ATOM     28  C   UNL     1       1.516   8.852  19.047  0.00  0.00    +0.000 A 
ENDBRANCH  20  27
ENDBRANCH   1  20
TORSDOF 3
ENDMDL
MODEL 3
REMARK VINA RESULT:      -8.4      1.342      1.867
REMARK  Name = 
REMARK  3 active torsions:
REMARK  status: ('A' for Active; 'I' for Inactive)
REMARK    1  A    between atoms: C_6  and  N_7
REMARK    2  A    between atoms: N_7  and  C_8
REMARK    3  A    between atoms: C_12  and  C_13
REMARK                            x       y       z     vdW  Elec       q    Type
REMARK                         _______ _______ _______ _____ _____    ______ ____
ROOT
ATOM      1  C   UNL     1       2.969   7.413  18.614  0.00  0.00    +0.000 A 
ATOM      2  N   UNL     1       3.863   7.281  17.599  0.00  0.00    +0.000 NA
ATOM      3  C   UNL     1       4.253   6.094  17.148  0.00  0.00    +0.000 A 
ATOM      4  C   UNL     1       5.134   6.071  16.080  0.00  0.00    +0.000 A 
ATOM      5  C   UNL     1       5.578   4.871  15.505  0.00  0.00    +0.000 A 
ATOM      6  C   UNL     1       5.115   3.666  16.046  0.00  0.00    +0.000 A 
ATOM      7  C   UNL     1       4.234   3.663  17.130  0.00  0.00    +0.000 A 
ATOM      8  C   UNL     1       3.798   4.885  17.684  0.00  0.00    +0.000 A 
ATOM      9  C   UNL     1       2.894   4.995  18.777  0.00  0.00    +0.000 A 
ATOM     10  S   UNL     1       2.152   3.713  19.675  0.00  0.00    +0.000 S 
ATOM     11  C   UNL     1       1.296   4.788  20.672  0.00  0.00    +0.000 A 
ATOM     12  C   UNL     1       1.557   6.098  20.356  0.00  0.00    +0.000 A 
ATOM     13  C   UNL     1       2.480   6.247  19.256  0.00  0.00    +0.000 A 
ENDROOT
BRANCH   5  14
ATOM     14  C   UNL     1       6.491   4.853  14.364  0.00  0.00    +0.000 A 
ATOM     15  N   UNL     1       6.366   4.160  13.248  0.00  0.00    +0.000 NA
ATOM     16  N   UNL     1       7.453   4.465  12.467  0.00  0.00    +0.000 NA
ATOM     17  N   UNL     1       8.247   5.331  13.079  0.00  0.00    +0.000 NA
ATOM     18  N   UNL     1       7.653   5.573  14.255  0.00  0.00    +0.000 N 
ATOM     19  H   UNL     1       8.087   6.217  14.902  0.00  0.00    +0.000 HD
ENDBRANCH   5  14
BRANCH   1  20
ATOM     20  N   UNL     1       2.574   8.712  18.977  0.00  0.00    +0.000 N 
ATOM     21  H   UNL     1       3.118   9.119  19.724  0.00  0.00    +0.000 HD
BRANCH  20  27
ATOM     22  F   UNL     1      -1.468   9.784  16.588  0.00  0.00    +0.000 F 
ATOM     23  C   UNL     1      -0.776   9.762  17.735  0.00  0.00    +0.000 A 
ATOM     24  C   UNL     1      -1.360  10.249  18.895  0.00  0.00    +0.000 A 
ATOM     25  C   UNL     1      -0.640  10.215  20.088  0.00  0.00    +0.000 A 
ATOM     26  C   UNL     1       0.659   9.691  20.106  0.00  0.00    +0.000 A 
ATOM     27  C   UNL     1       1.257   9.216  18.932  0.00  0.00    +0.000 A 
ATOM     28  C   UNL     1       0.514   9.251  17.743  0.00  0.00    +0.000 A 
ENDBRANCH  20  27
ENDBRANCH   1  20
TORSDOF 3
ENDMDL
MODEL 4
REMARK VINA RESULT:      -8.4      3.413      5.580
REMARK  Name = 
REMARK  3 active torsions:
REMARK  status: ('A' for Active; 'I' for Inactive)
REMARK    1  A    between atoms: C_6  and  N_7
REMARK    2  A    between atoms: N_7  and  C_8
REMARK    3  A    between atoms: C_12  and  C_13
REMARK                            x       y       z     vdW  Elec       q    Type
REMARK                         _______ _______ _______ _____ _____    ______ ____
ROOT
ATOM      1  C   UNL     1      -0.004  10.541  18.784  0.00  0.00    +0.000 A 
ATOM      2  N   UNL     1       0.807   9.702  18.088  0.00  0.00    +0.000 NA
ATOM      3  C   UNL     1       1.457   8.701  18.671  0.00  0.00    +0.000 A 
ATOM      4  C   UNL     1       2.224   7.877  17.863  0.00  0.00    +0.000 A 
ATOM      5  C   UNL     1       2.919   6.771  18.373  0.00  0.00    +0.000 A 
ATOM      6  C   UNL     1       2.836   6.511  19.746  0.00  0.00    +0.000 A 
ATOM      7  C   UNL     1       2.079   7.333  20.582  0.00  0.00    +0.000 A 
ATOM      8  C   UNL     1       1.383   8.435  20.041  0.00  0.00    +0.000 A 
ATOM      9  C   UNL     1       0.575   9.326  20.801  0.00  0.00    +0.000 A 
ATOM     10  S   UNL     1       0.273   9.296  22.507  0.00  0.00    +0.000 S 
ATOM     11  C   UNL     1      -0.752  10.648  22.439  0.00  0.00    +0.000 A 
ATOM     12  C   UNL     1      -0.873  11.135  21.161  0.00  0.00    +0.000 A 
ATOM     13  C   UNL     1      -0.114  10.384  20.189  0.00  0.00    +0.000 A 
ENDROOT
BRANCH   5  14
ATOM     14  C   UNL     1       3.708   5.892  17.512  0.00  0.00    +0.000 A 
ATOM     15  N   UNL     1       4.672   6.238  16.679  0.00  0.00    +0.000 NA
ATOM     16  N   UNL     1       5.127   5.082  16.096  0.00  0.00    +0.000 NA
ATOM     17  N   UNL     1       4.463   4.030  16.549  0.00  0.00    +0.000 NA
ATOM     18  N   UNL     1       3.583   4.528  17.427  0.00  0.00    +0.000 N 
ATOM     19  H   UNL     1       2.957   3.898  17.909  0.00  0.00    +0.000 HD
ENDBRANCH   5  14
BRANCH   1  20
ATOM     20  N   UNL     1      -0.696  11.531  18.065  0.00  0.00    +0.000 N 
ATOM     21  H   UNL     1      -0.437  12.477  18.305  0.00  0.00    +0.000 HD
BRANCH  20  27
ATOM     22  F   UNL     1      -3.934  10.433  14.673  0.00  0.00    +0.000 F 
ATOM     23  C   UNL     1      -3.659  10.891  15.902  0.00  0.00    +0.000 A 
ATOM     24  C   UNL     1      -4.697  11.287  16.731  0.00  0.00    +0.000 A 
ATOM     25  C   UNL     1      -4.407  11.753  18.013  0.00  0.00    +0.000 A 
ATOM     26  C   UNL     1      -3.078  11.817  18.449  0.00  0.00    +0.000 A 
ATOM     27  C   UNL     1      -2.027  11.436  17.605  0.00  0.00    +0.000 A 
ATOM     28  C   UNL     1      -2.339  10.962  16.323  0.00  0.00    +0.000 A 
ENDBRANCH  20  27
ENDBRANCH   1  20
TORSDOF 3
ENDMDL
MODEL 5
REMARK VINA RESULT:      -8.2      1.053      1.442
REMARK  Name = 
REMARK  3 active torsions:
REMARK  status: ('A' for Active; 'I' for Inactive)
REMARK    1  A    between atoms: C_6  and  N_7
REMARK    2  A    between atoms: N_7  and  C_8
REMARK    3  A    between atoms: C_12  and  C_13
REMARK                            x       y       z     vdW  Elec       q    Type
REMARK                         _______ _______ _______ _____ _____    ______ ____
ROOT
ATOM      1  C   UNL     1       3.019   7.457  18.552  0.00  0.00    +0.000 A 
ATOM      2  N   UNL     1       3.879   7.293  17.513  0.00  0.00    +0.000 NA
ATOM      3  C   UNL     1       4.249   6.091  17.084  0.00  0.00    +0.000 A 
ATOM      4  C   UNL     1       5.095   6.033  15.988  0.00  0.00    +0.000 A 
ATOM      5  C   UNL     1       5.516   4.816  15.435  0.00  0.00    +0.000 A 
ATOM      6  C   UNL     1       5.067   3.628  16.026  0.00  0.00    +0.000 A 
ATOM      7  C   UNL     1       4.223   3.660  17.137  0.00  0.00    +0.000 A 
ATOM      8  C   UNL     1       3.810   4.900  17.669  0.00  0.00    +0.000 A 
ATOM      9  C   UNL     1       2.942   5.045  18.788  0.00  0.00    +0.000 A 
ATOM     10  S   UNL     1       2.226   3.793  19.748  0.00  0.00    +0.000 S 
ATOM     11  C   UNL     1       1.407   4.900  20.740  0.00  0.00    +0.000 A 
ATOM     12  C   UNL     1       1.661   6.199  20.377  0.00  0.00    +0.000 A 
ATOM     13  C   UNL     1       2.548   6.312  19.244  0.00  0.00    +0.000 A 
ENDROOT
BRANCH   5  14
ATOM     14  C   UNL     1       6.390   4.761  14.265  0.00  0.00    +0.000 A 
ATOM     15  N   UNL     1       6.251   4.004  13.193  0.00  0.00    +0.000 NA
ATOM     16  N   UNL     1       7.301   4.297  12.360  0.00  0.00    +0.000 NA
ATOM     17  N   UNL     1       8.087   5.218  12.895  0.00  0.00    +0.000 NA
ATOM     18  N   UNL     1       7.525   5.508  14.076  0.00  0.00    +0.000 N 
ATOM     19  H   UNL     1       7.960   6.199  14.671  0.00  0.00    +0.000 HD
ENDBRANCH   5  14
BRANCH   1  20
ATOM     20  N   UNL     1       2.641   8.768  18.890  0.00  0.00    +0.000 N 
ATOM     21  H   UNL     1       3.209   9.193  19.609  0.00  0.00    +0.000 HD
BRANCH  20  27
ATOM     22  F   UNL     1      -1.141  10.809  21.066  0.00  0.00    +0.000 F 
ATOM     23  C   UNL     1      -0.582  10.296  19.961  0.00  0.00    +0.000 A 
ATOM     24  C   UNL     1      -1.312  10.255  18.783  0.00  0.00    +0.000 A 
ATOM     25  C   UNL     1      -0.724   9.731  17.633  0.00  0.00    +0.000 A 
ATOM     26  C   UNL     1       0.592   9.253  17.677  0.00  0.00    +0.000 A 
ATOM     27  C   UNL     1       1.324   9.276  18.871  0.00  0.00    +0.000 A 
ATOM     28  C   UNL     1       0.718   9.814  20.015  0.00  0.00    +0.000 A 
ENDBRANCH  20  27
ENDBRANCH   1  20
TORSDOF 3
ENDMDL
MODEL 6
REMARK VINA RESULT:      -8.2      3.260      5.391
REMARK  Name = 
REMARK  3 active torsions:
REMARK  status: ('A' for Active; 'I' for Inactive)
REMARK    1  A    between atoms: C_6  and  N_7
REMARK    2  A    between atoms: N_7  and  C_8
REMARK    3  A    between atoms: C_12  and  C_13
REMARK                            x       y       z     vdW  Elec       q    Type
REMARK                         _______ _______ _______ _____ _____    ______ ____
ROOT
ATOM      1  C   UNL     1       0.043  10.496  18.770  0.00  0.00    +0.000 A 
ATOM      2  N   UNL     1       0.843   9.649  18.071  0.00  0.00    +0.000 NA
ATOM      3  C   UNL     1       1.493   8.647  18.653  0.00  0.00    +0.000 A 
ATOM      4  C   UNL     1       2.248   7.815  17.843  0.00  0.00    +0.000 A 
ATOM      5  C   UNL     1       2.942   6.708  18.352  0.00  0.00    +0.000 A 
ATOM      6  C   UNL     1       2.870   6.455  19.727  0.00  0.00    +0.000 A 
ATOM      7  C   UNL     1       2.125   7.286  20.566  0.00  0.00    +0.000 A 
ATOM      8  C   UNL     1       1.431   8.389  20.026  0.00  0.00    +0.000 A 
ATOM      9  C   UNL     1       0.634   9.289  20.788  0.00  0.00    +0.000 A 
ATOM     10  S   UNL     1       0.347   9.269  22.496  0.00  0.00    +0.000 S 
ATOM     11  C   UNL     1      -0.671  10.626  22.431  0.00  0.00    +0.000 A 
ATOM     12  C   UNL     1      -0.801  11.107  21.152  0.00  0.00    +0.000 A 
ATOM     13  C   UNL     1      -0.055  10.347  20.177  0.00  0.00    +0.000 A 
ENDROOT
BRANCH   5  14
ATOM     14  C   UNL     1       3.718   5.820  17.489  0.00  0.00    +0.000 A 
ATOM     15  N   UNL     1       3.607   4.510  17.377  0.00  0.00    +0.000 NA
ATOM     16  N   UNL     1       4.531   4.110  16.446  0.00  0.00    +0.000 NA
ATOM     17  N   UNL     1       5.213   5.145  15.981  0.00  0.00    +0.000 NA
ATOM     18  N   UNL     1       4.712   6.207  16.626  0.00  0.00    +0.000 N 
ATOM     19  H   UNL     1       5.086   7.125  16.428  0.00  0.00    +0.000 HD
ENDBRANCH   5  14
BRANCH   1  20
ATOM     20  N   UNL     1      -0.651  11.486  18.052  0.00  0.00    +0.000 N 
ATOM     21  H   UNL     1      -0.361  12.430  18.260  0.00  0.00    +0.000 HD
BRANCH  20  27
ATOM     22  F   UNL     1      -5.356  12.153  18.833  0.00  0.00    +0.000 F 
ATOM     23  C   UNL     1      -4.366  11.740  18.031  0.00  0.00    +0.000 A 
ATOM     24  C   UNL     1      -4.671  11.225  16.780  0.00  0.00    +0.000 A 
ATOM     25  C   UNL     1      -3.637  10.806  15.944  0.00  0.00    +0.000 A 
ATOM     26  C   UNL     1      -2.307  10.910  16.371  0.00  0.00    +0.000 A 
ATOM     27  C   UNL     1      -1.999  11.413  17.641  0.00  0.00    +0.000 A 
ATOM     28  C   UNL     1      -3.051  11.836  18.465  0.00  0.00    +0.000 A 
ENDBRANCH  20  27
ENDBRANCH   1  20
TORSDOF 3
ENDMDL
MODEL 7
REMARK VINA RESULT:      -8.1      5.489      8.777
REMARK  Name = 
REMARK  3 active torsions:
REMARK  status: ('A' for Active; 'I' for Inactive)
REMARK    1  A    between atoms: C_6  and  N_7
REMARK    2  A    between atoms: N_7  and  C_8
REMARK    3  A    between atoms: C_12  and  C_13
REMARK                            x       y       z     vdW  Elec       q    Type
REMARK                         _______ _______ _______ _____ _____    ______ ____
ROOT
ATOM      1  C   UNL     1      -0.222  10.426  19.271  0.00  0.00    +0.000 A 
ATOM      2  N   UNL     1      -0.615  10.068  18.020  0.00  0.00    +0.000 NA
ATOM      3  C   UNL     1      -1.774  10.459  17.503  0.00  0.00    +0.000 A 
ATOM      4  C   UNL     1      -2.060  10.075  16.203  0.00  0.00    +0.000 A 
ATOM      5  C   UNL     1      -3.238  10.466  15.552  0.00  0.00    +0.000 A 
ATOM      6  C   UNL     1      -4.152  11.261  16.255  0.00  0.00    +0.000 A 
ATOM      7  C   UNL     1      -3.892  11.652  17.570  0.00  0.00    +0.000 A 
ATOM      8  C   UNL     1      -2.694  11.250  18.198  0.00  0.00    +0.000 A 
ATOM      9  C   UNL     1      -2.326  11.602  19.527  0.00  0.00    +0.000 A 
ATOM     10  S   UNL     1      -3.225  12.553  20.662  0.00  0.00    +0.000 S 
ATOM     11  C   UNL     1      -2.022  12.431  21.853  0.00  0.00    +0.000 A 
ATOM     12  C   UNL     1      -0.953  11.683  21.426  0.00  0.00    +0.000 A 
ATOM     13  C   UNL     1      -1.103  11.191  20.076  0.00  0.00    +0.000 A 
ENDROOT
BRANCH   5  14
ATOM     14  C   UNL     1      -3.524  10.077  14.173  0.00  0.00    +0.000 A 
ATOM     15  N   UNL     1      -2.656   9.735  13.239  0.00  0.00    +0.000 NA
ATOM     16  N   UNL     1      -3.380   9.444  12.110  0.00  0.00    +0.000 NA
ATOM     17  N   UNL     1      -4.677   9.599  12.327  0.00  0.00    +0.000 NA
ATOM     18  N   UNL     1      -4.769   9.992  13.604  0.00  0.00    +0.000 N 
ATOM     19  H   UNL     1      -5.682  10.174  13.999  0.00  0.00    +0.000 HD
ENDBRANCH   5  14
BRANCH   1  20
ATOM     20  N   UNL     1       1.050  10.011  19.703  0.00  0.00    +0.000 N 
ATOM     21  H   UNL     1       1.771  10.712  19.605  0.00  0.00    +0.000 HD
BRANCH  20  27
ATOM     22  F   UNL     1       3.409   6.519  17.372  0.00  0.00    +0.000 F 
ATOM     23  C   UNL     1       2.739   6.936  18.454  0.00  0.00    +0.000 A 
ATOM     24  C   UNL     1       2.534   6.061  19.510  0.00  0.00    +0.000 A 
ATOM     25  C   UNL     1       1.845   6.502  20.639  0.00  0.00    +0.000 A 
ATOM     26  C   UNL     1       1.369   7.818  20.697  0.00  0.00    +0.000 A 
ATOM     27  C   UNL     1       1.559   8.697  19.624  0.00  0.00    +0.000 A 
ATOM     28  C   UNL     1       2.261   8.238  18.501  0.00  0.00    +0.000 A 
ENDBRANCH  20  27
ENDBRANCH   1  20
TORSDOF 3
ENDMDL
MODEL 8
REMARK VINA RESULT:      -8.1      3.402      7.203
REMARK  Name = 
REMARK  3 active torsions:
REMARK  status: ('A' for Active; 'I' for Inactive)
REMARK    1  A    between atoms: C_6  and  N_7
REMARK    2  A    between atoms: N_7  and  C_8
REMARK    3  A    between atoms: C_12  and  C_13
REMARK                            x       y       z     vdW  Elec       q    Type
REMARK                         _______ _______ _______ _____ _____    ______ ____
ROOT
ATOM      1  C   UNL     1       3.161   4.696  17.873  0.00  0.00    +0.000 A 
ATOM      2  N   UNL     1       2.845   6.010  17.741  0.00  0.00    +0.000 NA
ATOM      3  C   UNL     1       2.323   6.717  18.737  0.00  0.00    +0.000 A 
ATOM      4  C   UNL     1       2.079   8.062  18.511  0.00  0.00    +0.000 A 
ATOM      5  C   UNL     1       1.566   8.904  19.507  0.00  0.00    +0.000 A 
ATOM      6  C   UNL     1       1.284   8.351  20.763  0.00  0.00    +0.000 A 
ATOM      7  C   UNL     1       1.511   6.997  21.012  0.00  0.00    +0.000 A 
ATOM      8  C   UNL     1       2.036   6.174  19.992  0.00  0.00    +0.000 A 
ATOM      9  C   UNL     1       2.316   4.787  20.144  0.00  0.00    +0.000 A 
ATOM     10  S   UNL     1       2.075   3.801  21.548  0.00  0.00    +0.000 S 
ATOM     11  C   UNL     1       2.692   2.413  20.789  0.00  0.00    +0.000 A 
ATOM     12  C   UNL     1       3.073   2.665  19.494  0.00  0.00    +0.000 A 
ATOM     13  C   UNL     1       2.868   4.037  19.094  0.00  0.00    +0.000 A 
ENDROOT
BRANCH   5  14
ATOM     14  C   UNL     1       1.331  10.327  19.270  0.00  0.00    +0.000 A 
ATOM     15  N   UNL     1       0.703  11.179  20.059  0.00  0.00    +0.000 NA
ATOM     16  N   UNL     1       0.734  12.399  19.431  0.00  0.00    +0.000 NA
ATOM     17  N   UNL     1       1.367  12.318  18.271  0.00  0.00    +0.000 NA
ATOM     18  N   UNL     1       1.738  11.035  18.168  0.00  0.00    +0.000 N 
ATOM     19  H   UNL     1       2.245  10.733  17.348  0.00  0.00    +0.000 HD
ENDBRANCH   5  14
BRANCH   1  20
ATOM     20  N   UNL     1       3.766   4.052  16.779  0.00  0.00    +0.000 N 
ATOM     21  H   UNL     1       3.518   3.078  16.681  0.00  0.00    +0.000 HD
BRANCH  20  27
ATOM     22  F   UNL     1       6.837   4.503  13.097  0.00  0.00    +0.000 F 
ATOM     23  C   UNL     1       6.596   4.562  14.413  0.00  0.00    +0.000 A 
ATOM     24  C   UNL     1       7.623   4.902  15.281  0.00  0.00    +0.000 A 
ATOM     25  C   UNL     1       7.366   4.973  16.649  0.00  0.00    +0.000 A 
ATOM     26  C   UNL     1       6.080   4.702  17.133  0.00  0.00    +0.000 A 
ATOM     27  C   UNL     1       5.046   4.340  16.260  0.00  0.00    +0.000 A 
ATOM     28  C   UNL     1       5.322   4.281  14.887  0.00  0.00    +0.000 A 
ENDBRANCH  20  27
ENDBRANCH   1  20
TORSDOF 3
ENDMDL
MODEL 9
REMARK VINA RESULT:      -8.1      3.273      7.201
REMARK  Name = 
REMARK  3 active torsions:
REMARK  status: ('A' for Active; 'I' for Inactive)
REMARK    1  A    between atoms: C_6  and  N_7
REMARK    2  A    between atoms: N_7  and  C_8
REMARK    3  A    between atoms: C_12  and  C_13
REMARK                            x       y       z     vdW  Elec       q    Type
REMARK                         _______ _______ _______ _____ _____    ______ ____
ROOT
ATOM      1  C   UNL     1       2.996   4.899  17.908  0.00  0.00    +0.000 A 
ATOM      2  N   UNL     1       2.660   6.213  17.832  0.00  0.00    +0.000 NA
ATOM      3  C   UNL     1       2.158   6.877  18.867  0.00  0.00    +0.000 A 
ATOM      4  C   UNL     1       1.890   8.225  18.697  0.00  0.00    +0.000 A 
ATOM      5  C   UNL     1       1.394   9.024  19.736  0.00  0.00    +0.000 A 
ATOM      6  C   UNL     1       1.155   8.423  20.978  0.00  0.00    +0.000 A 
ATOM      7  C   UNL     1       1.406   7.063  21.172  0.00  0.00    +0.000 A 
ATOM      8  C   UNL     1       1.913   6.285  20.109  0.00  0.00    +0.000 A 
ATOM      9  C   UNL     1       2.215   4.897  20.203  0.00  0.00    +0.000 A 
ATOM     10  S   UNL     1       2.026   3.858  21.577  0.00  0.00    +0.000 S 
ATOM     11  C   UNL     1       2.639   2.508  20.751  0.00  0.00    +0.000 A 
ATOM     12  C   UNL     1       2.980   2.811  19.456  0.00  0.00    +0.000 A 
ATOM     13  C   UNL     1       2.747   4.193  19.112  0.00  0.00    +0.000 A 
ENDROOT
BRANCH   5  14
ATOM     14  C   UNL     1       1.134  10.451  19.557  0.00  0.00    +0.000 A 
ATOM     15  N   UNL     1       0.826  11.334  20.489  0.00  0.00    +0.000 NA
ATOM     16  N   UNL     1       0.682  12.544  19.858  0.00  0.00    +0.000 NA
ATOM     17  N   UNL     1       0.894  12.427  18.556  0.00  0.00    +0.000 NA
ATOM     18  N   UNL     1       1.174  11.131  18.366  0.00  0.00    +0.000 N 
ATOM     19  H   UNL     1       1.374  10.802  17.432  0.00  0.00    +0.000 HD
ENDBRANCH   5  14
BRANCH   1  20
ATOM     20  N   UNL     1       3.578   4.303  16.775  0.00  0.00    +0.000 N 
ATOM     21  H   UNL     1       3.193   3.401  16.535  0.00  0.00    +0.000 HD
BRANCH  20  27
ATOM     22  F   UNL     1       8.294   4.431  17.744  0.00  0.00    +0.000 F 
ATOM     23  C   UNL     1       7.296   4.511  16.855  0.00  0.00    +0.000 A 
ATOM     24  C   UNL     1       7.588   4.742  15.519  0.00  0.00    +0.000 A 
ATOM     25  C   UNL     1       6.546   4.815  14.596  0.00  0.00    +0.000 A 
ATOM     26  C   UNL     1       5.222   4.654  15.021  0.00  0.00    +0.000 A 
ATOM     27  C   UNL     1       4.924   4.440  16.373  0.00  0.00    +0.000 A 
ATOM     28  C   UNL     1       5.985   4.362  17.286  0.00  0.00    +0.000 A 
ENDBRANCH  20  27
ENDBRANCH   1  20
TORSDOF 3
ENDMDL
