MODEL 1
REMARK VINA RESULT:      -7.5      0.000      0.000
REMARK  Name = 
REMARK  10 active torsions:
REMARK  status: ('A' for Active; 'I' for Inactive)
REMARK    1  A    between atoms: C_1  and  C_2
REMARK    2  A    between atoms: N_4  and  C_5
REMARK    3  A    between atoms: C_5  and  C_6
REMARK    4  A    between atoms: C_5  and  C_10
REMARK    5  A    between atoms: C_6  and  C_7
REMARK    6  A    between atoms: C_7  and  C_8
REMARK    7  A    between atoms: C_7  and  C_9
REMARK    8  A    between atoms: CA_12  and  C_13
REMARK    9  A    between atoms: C_13  and  OXT_15
REMARK   10  A    between atoms: C_17  and  C_18
REMARK                            x       y       z     vdW  Elec       q    Type
REMARK                         _______ _______ _______ _____ _____    ______ ____
ROOT
ATOM      1  C   UNL     1       4.260   4.528  17.879  0.00  0.00    +0.000 C 
ATOM      2  N   UNL     1       5.442   4.074  18.697  0.00  0.00    +0.000 NA
ATOM      3  CA  UNL     1       6.361   5.273  18.754  0.00  0.00    +0.000 C 
ATOM      4  C   UNL     1       5.859   6.295  17.741  0.00  0.00    +0.000 C 
ATOM      5  C   UNL     1       4.867   5.523  16.878  0.00  0.00    +0.000 C 
ATOM      6  H   UNL     1       5.903   3.371  18.113  0.00  0.00    +0.000 HD
ENDROOT
BRANCH   5   7
ATOM      7  C   UNL     1       5.563   4.919  15.688  0.00  0.00    +0.000 A 
ATOM      8  C   UNL     1       5.554   3.643  15.160  0.00  0.00    +0.000 A 
ATOM      9  N   UNL     1       6.523   3.643  14.189  0.00  0.00    +0.000 N 
ATOM     10  C   UNL     1       7.036   4.903  14.121  0.00  0.00    +0.000 A 
ATOM     11  N   UNL     1       6.466   5.700  14.993  0.00  0.00    +0.000 NA
ATOM     12  H   UNL     1       6.828   2.848  13.645  0.00  0.00    +0.000 HD
ENDBRANCH   5   7
BRANCH   3  13
ATOM     13  C   UNL     1       7.809   4.825  18.503  0.00  0.00    +0.000 C 
ATOM     14  O   UNL     1       8.227   4.237  17.517  0.00  0.00    +0.000 OA
BRANCH  13  15
ATOM     15  OXT UNL     1       8.622   5.193  19.533  0.00  0.00    +0.000 OA
ATOM     16  HXT UNL     1       8.075   5.592  20.244  0.00  0.00    +0.000 HD
ENDBRANCH  13  15
ENDBRANCH   3  13
BRANCH   1  17
ATOM     17  C   UNL     1       3.153   5.118  18.833  0.00  0.00    +0.000 C 
BRANCH  17  21
ATOM     18  C   UNL     1       1.141   2.692  20.996  0.00  0.00    +0.000 C 
ATOM     19  C   UNL     1       2.015   3.877  20.687  0.00  0.00    +0.000 C 
ATOM     20  O   UNL     1       2.425   4.630  21.570  0.00  0.00    +0.000 OA
ATOM     21  N   UNL     1       2.311   4.026  19.350  0.00  0.00    +0.000 N 
ATOM     22  H   UNL     1       1.967   3.331  18.701  0.00  0.00    +0.000 HD
ENDBRANCH  17  21
BRANCH  17  23
ATOM     23  C   UNL     1       2.271   6.201  18.156  0.00  0.00    +0.000 C 
BRANCH  23  24
ATOM     24  C   UNL     1       2.453   7.647  18.681  0.00  0.00    +0.000 C 
ATOM     25  C   UNL     1       1.811   8.717  17.789  0.00  0.00    +0.000 C 
ATOM     26  C   UNL     1       1.860   7.774  20.092  0.00  0.00    +0.000 C 
ENDBRANCH  23  24
ENDBRANCH  17  23
ENDBRANCH   1  17
TORSDOF 7
ENDMDL
MODEL 2
REMARK VINA RESULT:      -7.2      1.173      1.173
REMARK  Name = 
REMARK  10 active torsions:
REMARK  status: ('A' for Active; 'I' for Inactive)
REMARK    1  A    between atoms: C_1  and  C_2
REMARK    2  A    between atoms: N_4  and  C_5
REMARK    3  A    between atoms: C_5  and  C_6
REMARK    4  A    between atoms: C_5  and  C_10
REMARK    5  A    between atoms: C_6  and  C_7
REMARK    6  A    between atoms: C_7  and  C_8
REMARK    7  A    between atoms: C_7  and  C_9
REMARK    8  A    between atoms: CA_12  and  C_13
REMARK    9  A    between atoms: C_13  and  OXT_15
REMARK   10  A    between atoms: C_17  and  C_18
REMARK                            x       y       z     vdW  Elec       q    Type
REMARK                         _______ _______ _______ _____ _____    ______ ____
ROOT
ATOM      1  C   UNL     1       4.179   4.727  17.877  0.00  0.00    +0.000 C 
ATOM      2  N   UNL     1       5.344   4.283  18.725  0.00  0.00    +0.000 NA
ATOM      3  CA  UNL     1       6.286   5.466  18.744  0.00  0.00    +0.000 C 
ATOM      4  C   UNL     1       5.816   6.455  17.685  0.00  0.00    +0.000 C 
ATOM      5  C   UNL     1       4.816   5.669  16.844  0.00  0.00    +0.000 C 
ATOM      6  H   UNL     1       5.796   3.549  18.176  0.00  0.00    +0.000 HD
ENDROOT
BRANCH   5   7
ATOM      7  C   UNL     1       5.512   5.003  15.686  0.00  0.00    +0.000 A 
ATOM      8  C   UNL     1       5.492   3.704  15.218  0.00  0.00    +0.000 A 
ATOM      9  N   UNL     1       6.465   3.649  14.253  0.00  0.00    +0.000 N 
ATOM     10  C   UNL     1       6.991   4.899  14.129  0.00  0.00    +0.000 A 
ATOM     11  N   UNL     1       6.425   5.741  14.960  0.00  0.00    +0.000 NA
ATOM     12  H   UNL     1       6.765   2.826  13.748  0.00  0.00    +0.000 HD
ENDBRANCH   5   7
BRANCH   3  13
ATOM     13  C   UNL     1       7.728   4.979  18.526  0.00  0.00    +0.000 C 
ATOM     14  O   UNL     1       8.152   4.378  17.551  0.00  0.00    +0.000 OA
BRANCH  13  15
ATOM     15  OXT UNL     1       8.526   5.327  19.574  0.00  0.00    +0.000 OA
ATOM     16  HXT UNL     1       9.465   5.276  19.290  0.00  0.00    +0.000 HD
ENDBRANCH  13  15
ENDBRANCH   3  13
BRANCH   1  17
ATOM     17  C   UNL     1       3.075   5.378  18.795  0.00  0.00    +0.000 C 
BRANCH  17  21
ATOM     18  C   UNL     1       0.560   2.531  19.222  0.00  0.00    +0.000 C 
ATOM     19  C   UNL     1       1.407   3.536  18.489  0.00  0.00    +0.000 C 
ATOM     20  O   UNL     1       1.389   3.628  17.261  0.00  0.00    +0.000 OA
ATOM     21  N   UNL     1       2.177   4.329  19.309  0.00  0.00    +0.000 N 
ATOM     22  H   UNL     1       2.092   4.213  20.309  0.00  0.00    +0.000 HD
ENDBRANCH  17  21
BRANCH  17  23
ATOM     23  C   UNL     1       2.255   6.484  18.079  0.00  0.00    +0.000 C 
BRANCH  23  24
ATOM     24  C   UNL     1       2.400   7.914  18.657  0.00  0.00    +0.000 C 
ATOM     25  C   UNL     1       1.740   9.000  17.799  0.00  0.00    +0.000 C 
ATOM     26  C   UNL     1       1.795   7.978  20.068  0.00  0.00    +0.000 C 
ENDBRANCH  23  24
ENDBRANCH  17  23
ENDBRANCH   1  17
TORSDOF 7
ENDMDL
MODEL 3
REMARK VINA RESULT:      -7.1      1.982      5.991
REMARK  Name = 
REMARK  10 active torsions:
REMARK  status: ('A' for Active; 'I' for Inactive)
REMARK    1  A    between atoms: C_1  and  C_2
REMARK    2  A    between atoms: N_4  and  C_5
REMARK    3  A    between atoms: C_5  and  C_6
REMARK    4  A    between atoms: C_5  and  C_10
REMARK    5  A    between atoms: C_6  and  C_7
REMARK    6  A    between atoms: C_7  and  C_8
REMARK    7  A    between atoms: C_7  and  C_9
REMARK    8  A    between atoms: CA_12  and  C_13
REMARK    9  A    between atoms: C_13  and  OXT_15
REMARK   10  A    between atoms: C_17  and  C_18
REMARK                            x       y       z     vdW  Elec       q    Type
REMARK                         _______ _______ _______ _____ _____    ______ ____
ROOT
ATOM      1  C   UNL     1       4.095   4.709  17.163  0.00  0.00    +0.000 C 
ATOM      2  N   UNL     1       3.412   6.027  17.426  0.00  0.00    +0.000 NA
ATOM      3  CA  UNL     1       3.785   6.384  18.847  0.00  0.00    +0.000 C 
ATOM      4  C   UNL     1       4.418   5.154  19.487  0.00  0.00    +0.000 C 
ATOM      5  C   UNL     1       4.085   4.012  18.532  0.00  0.00    +0.000 C 
ATOM      6  H   UNL     1       2.414   5.804  17.425  0.00  0.00    +0.000 HD
ENDROOT
BRANCH   5   7
ATOM      7  C   UNL     1       2.790   3.356  18.928  0.00  0.00    +0.000 A 
ATOM      8  C   UNL     1       1.697   2.944  18.190  0.00  0.00    +0.000 A 
ATOM      9  N   UNL     1       0.746   2.591  19.113  0.00  0.00    +0.000 N 
ATOM     10  C   UNL     1       1.297   2.741  20.349  0.00  0.00    +0.000 A 
ATOM     11  N   UNL     1       2.532   3.177  20.273  0.00  0.00    +0.000 NA
ATOM     12  H   UNL     1      -0.204   2.305  18.917  0.00  0.00    +0.000 HD
ENDBRANCH   5   7
BRANCH   3  13
ATOM     13  C   UNL     1       2.540   6.887  19.595  0.00  0.00    +0.000 C 
ATOM     14  O   UNL     1       1.809   7.804  19.254  0.00  0.00    +0.000 OA
BRANCH  13  15
ATOM     15  OXT UNL     1       2.311   6.150  20.719  0.00  0.00    +0.000 OA
ATOM     16  HXT UNL     1       1.403   6.334  21.041  0.00  0.00    +0.000 HD
ENDBRANCH  13  15
ENDBRANCH   3  13
BRANCH   1  17
ATOM     17  C   UNL     1       5.522   4.968  16.545  0.00  0.00    +0.000 C 
BRANCH  17  21
ATOM     18  C   UNL     1       6.518   3.767  13.056  0.00  0.00    +0.000 C 
ATOM     19  C   UNL     1       6.583   4.599  14.307  0.00  0.00    +0.000 C 
ATOM     20  O   UNL     1       7.415   5.495  14.449  0.00  0.00    +0.000 OA
ATOM     21  N   UNL     1       5.635   4.274  15.251  0.00  0.00    +0.000 N 
ATOM     22  H   UNL     1       4.962   3.554  15.028  0.00  0.00    +0.000 HD
ENDBRANCH  17  21
BRANCH  17  23
ATOM     23  C   UNL     1       6.683   4.545  17.484  0.00  0.00    +0.000 C 
BRANCH  23  24
ATOM     24  C   UNL     1       7.660   5.673  17.901  0.00  0.00    +0.000 C 
ATOM     25  C   UNL     1       7.202   7.076  17.484  0.00  0.00    +0.000 C 
ATOM     26  C   UNL     1       7.859   5.662  19.425  0.00  0.00    +0.000 C 
ENDBRANCH  23  24
ENDBRANCH  17  23
ENDBRANCH   1  17
TORSDOF 7
ENDMDL
MODEL 4
REMARK VINA RESULT:      -6.9      2.053      5.993
REMARK  Name = 
REMARK  10 active torsions:
REMARK  status: ('A' for Active; 'I' for Inactive)
REMARK    1  A    between atoms: C_1  and  C_2
REMARK    2  A    between atoms: N_4  and  C_5
REMARK    3  A    between atoms: C_5  and  C_6
REMARK    4  A    between atoms: C_5  and  C_10
REMARK    5  A    between atoms: C_6  and  C_7
REMARK    6  A    between atoms: C_7  and  C_8
REMARK    7  A    between atoms: C_7  and  C_9
REMARK    8  A    between atoms: CA_12  and  C_13
REMARK    9  A    between atoms: C_13  and  OXT_15
REMARK   10  A    between atoms: C_17  and  C_18
REMARK                            x       y       z     vdW  Elec       q    Type
REMARK                         _______ _______ _______ _____ _____    ______ ____
ROOT
ATOM      1  C   UNL     1       4.024   4.639  17.276  0.00  0.00    +0.000 C 
ATOM      2  N   UNL     1       3.277   5.941  17.424  0.00  0.00    +0.000 NA
ATOM      3  CA  UNL     1       3.662   6.458  18.791  0.00  0.00    +0.000 C 
ATOM      4  C   UNL     1       4.373   5.333  19.534  0.00  0.00    +0.000 C 
ATOM      5  C   UNL     1       4.082   4.085  18.708  0.00  0.00    +0.000 C 
ATOM      6  H   UNL     1       2.292   5.668  17.473  0.00  0.00    +0.000 HD
ENDROOT
BRANCH   5   7
ATOM      7  C   UNL     1       2.832   3.407  19.203  0.00  0.00    +0.000 A 
ATOM      8  C   UNL     1       2.515   2.822  20.413  0.00  0.00    +0.000 A 
ATOM      9  N   UNL     1       1.305   2.206  20.215  0.00  0.00    +0.000 N 
ATOM     10  C   UNL     1       0.910   2.480  18.941  0.00  0.00    +0.000 A 
ATOM     11  N   UNL     1       1.794   3.218  18.313  0.00  0.00    +0.000 NA
ATOM     12  H   UNL     1       0.811   1.626  20.879  0.00  0.00    +0.000 HD
ENDBRANCH   5   7
BRANCH   3  13
ATOM     13  C   UNL     1       2.408   6.971  19.519  0.00  0.00    +0.000 C 
ATOM     14  O   UNL     1       1.837   6.428  20.451  0.00  0.00    +0.000 OA
BRANCH  13  15
ATOM     15  OXT UNL     1       1.998   8.165  19.006  0.00  0.00    +0.000 OA
ATOM     16  HXT UNL     1       2.425   8.892  19.508  0.00  0.00    +0.000 HD
ENDBRANCH  13  15
ENDBRANCH   3  13
BRANCH   1  17
ATOM     17  C   UNL     1       5.421   4.906  16.597  0.00  0.00    +0.000 C 
BRANCH  17  21
ATOM     18  C   UNL     1       6.259   3.644  13.088  0.00  0.00    +0.000 C 
ATOM     19  C   UNL     1       6.333   4.540  14.293  0.00  0.00    +0.000 C 
ATOM     20  O   UNL     1       7.071   5.525  14.327  0.00  0.00    +0.000 OA
ATOM     21  N   UNL     1       5.504   4.164  15.327  0.00  0.00    +0.000 N 
ATOM     22  H   UNL     1       4.898   3.367  15.192  0.00  0.00    +0.000 HD
ENDBRANCH  17  21
BRANCH  17  23
ATOM     23  C   UNL     1       6.625   4.548  17.508  0.00  0.00    +0.000 C 
BRANCH  23  24
ATOM     24  C   UNL     1       7.597   5.710  17.832  0.00  0.00    +0.000 C 
ATOM     25  C   UNL     1       7.062   7.093  17.441  0.00  0.00    +0.000 C 
ATOM     26  C   UNL     1       7.922   5.724  19.333  0.00  0.00    +0.000 C 
ENDBRANCH  23  24
ENDBRANCH  17  23
ENDBRANCH   1  17
TORSDOF 7
ENDMDL
MODEL 5
REMARK VINA RESULT:      -6.9      1.997      5.971
REMARK  Name = 
REMARK  10 active torsions:
REMARK  status: ('A' for Active; 'I' for Inactive)
REMARK    1  A    between atoms: C_1  and  C_2
REMARK    2  A    between atoms: N_4  and  C_5
REMARK    3  A    between atoms: C_5  and  C_6
REMARK    4  A    between atoms: C_5  and  C_10
REMARK    5  A    between atoms: C_6  and  C_7
REMARK    6  A    between atoms: C_7  and  C_8
REMARK    7  A    between atoms: C_7  and  C_9
REMARK    8  A    between atoms: CA_12  and  C_13
REMARK    9  A    between atoms: C_13  and  OXT_15
REMARK   10  A    between atoms: C_17  and  C_18
REMARK                            x       y       z     vdW  Elec       q    Type
REMARK                         _______ _______ _______ _____ _____    ______ ____
ROOT
ATOM      1  C   UNL     1       5.219   5.355  18.073  0.00  0.00    +0.000 C 
ATOM      2  N   UNL     1       5.630   4.070  18.747  0.00  0.00    +0.000 NA
ATOM      3  CA  UNL     1       4.792   2.998  18.090  0.00  0.00    +0.000 C 
ATOM      4  C   UNL     1       3.709   3.689  17.270  0.00  0.00    +0.000 C 
ATOM      5  C   UNL     1       3.734   5.137  17.746  0.00  0.00    +0.000 C 
ATOM      6  H   UNL     1       5.294   4.166  19.709  0.00  0.00    +0.000 HD
ENDROOT
BRANCH   5   7
ATOM      7  C   UNL     1       2.772   5.332  18.887  0.00  0.00    +0.000 A 
ATOM      8  C   UNL     1       2.686   6.300  19.869  0.00  0.00    +0.000 A 
ATOM      9  N   UNL     1       1.724   5.852  20.739  0.00  0.00    +0.000 N 
ATOM     10  C   UNL     1       1.230   4.685  20.239  0.00  0.00    +0.000 A 
ATOM     11  N   UNL     1       1.822   4.357  19.116  0.00  0.00    +0.000 NA
ATOM     12  H   UNL     1       1.453   6.287  21.610  0.00  0.00    +0.000 HD
ENDBRANCH   5   7
BRANCH   3  13
ATOM     13  C   UNL     1       4.233   2.051  19.163  0.00  0.00    +0.000 C 
ATOM     14  O   UNL     1       4.718   1.831  20.262  0.00  0.00    +0.000 OA
BRANCH  13  15
ATOM     15  OXT UNL     1       3.069   1.474  18.750  0.00  0.00    +0.000 OA
ATOM     16  HXT UNL     1       2.320   2.062  18.986  0.00  0.00    +0.000 HD
ENDBRANCH  13  15
ENDBRANCH   3  13
BRANCH   1  17
ATOM     17  C   UNL     1       6.154   5.622  16.832  0.00  0.00    +0.000 C 
BRANCH  17  21
ATOM     18  C   UNL     1       8.021   8.840  17.707  0.00  0.00    +0.000 C 
ATOM     19  C   UNL     1       7.624   7.393  17.817  0.00  0.00    +0.000 C 
ATOM     20  O   UNL     1       8.107   6.650  18.671  0.00  0.00    +0.000 OA
ATOM     21  N   UNL     1       6.682   6.995  16.895  0.00  0.00    +0.000 N 
ATOM     22  H   UNL     1       6.307   7.687  16.261  0.00  0.00    +0.000 HD
ENDBRANCH  17  21
BRANCH  17  23
ATOM     23  C   UNL     1       5.450   5.380  15.470  0.00  0.00    +0.000 C 
BRANCH  23  24
ATOM     24  C   UNL     1       6.148   4.378  14.516  0.00  0.00    +0.000 C 
ATOM     25  C   UNL     1       5.251   3.877  13.378  0.00  0.00    +0.000 C 
ATOM     26  C   UNL     1       7.399   5.021  13.899  0.00  0.00    +0.000 C 
ENDBRANCH  23  24
ENDBRANCH  17  23
ENDBRANCH   1  17
TORSDOF 7
ENDMDL
MODEL 6
REMARK VINA RESULT:      -6.8      1.026      1.154
REMARK  Name = 
REMARK  10 active torsions:
REMARK  status: ('A' for Active; 'I' for Inactive)
REMARK    1  A    between atoms: C_1  and  C_2
REMARK    2  A    between atoms: N_4  and  C_5
REMARK    3  A    between atoms: C_5  and  C_6
REMARK    4  A    between atoms: C_5  and  C_10
REMARK    5  A    between atoms: C_6  and  C_7
REMARK    6  A    between atoms: C_7  and  C_8
REMARK    7  A    between atoms: C_7  and  C_9
REMARK    8  A    between atoms: CA_12  and  C_13
REMARK    9  A    between atoms: C_13  and  OXT_15
REMARK   10  A    between atoms: C_17  and  C_18
REMARK                            x       y       z     vdW  Elec       q    Type
REMARK                         _______ _______ _______ _____ _____    ______ ____
ROOT
ATOM      1  C   UNL     1       4.142   4.808  17.446  0.00  0.00    +0.000 C 
ATOM      2  N   UNL     1       5.174   4.296  18.420  0.00  0.00    +0.000 NA
ATOM      3  CA  UNL     1       6.075   5.478  18.692  0.00  0.00    +0.000 C 
ATOM      4  C   UNL     1       5.750   6.559  17.668  0.00  0.00    +0.000 C 
ATOM      5  C   UNL     1       4.909   5.848  16.614  0.00  0.00    +0.000 C 
ATOM      6  H   UNL     1       5.721   3.620  17.882  0.00  0.00    +0.000 HD
ENDROOT
BRANCH   5   7
ATOM      7  C   UNL     1       5.788   5.299  15.522  0.00  0.00    +0.000 A 
ATOM      8  C   UNL     1       6.910   5.806  14.896  0.00  0.00    +0.000 A 
ATOM      9  N   UNL     1       7.166   4.949  13.856  0.00  0.00    +0.000 N 
ATOM     10  C   UNL     1       6.247   3.945  13.916  0.00  0.00    +0.000 A 
ATOM     11  N   UNL     1       5.419   4.113  14.919  0.00  0.00    +0.000 NA
ATOM     12  H   UNL     1       7.881   5.058  13.150  0.00  0.00    +0.000 HD
ENDBRANCH   5   7
BRANCH   3  13
ATOM     13  C   UNL     1       7.544   5.026  18.655  0.00  0.00    +0.000 C 
ATOM     14  O   UNL     1       8.072   4.342  17.792  0.00  0.00    +0.000 OA
BRANCH  13  15
ATOM     15  OXT UNL     1       8.233   5.512  19.725  0.00  0.00    +0.000 OA
ATOM     16  HXT UNL     1       7.608   5.659  20.468  0.00  0.00    +0.000 HD
ENDBRANCH  13  15
ENDBRANCH   3  13
BRANCH   1  17
ATOM     17  C   UNL     1       2.897   5.360  18.239  0.00  0.00    +0.000 C 
BRANCH  17  21
ATOM     18  C   UNL     1       0.667   2.375  19.089  0.00  0.00    +0.000 C 
ATOM     19  C   UNL     1       1.831   3.318  19.221  0.00  0.00    +0.000 C 
ATOM     20  O   UNL     1       2.690   3.173  20.090  0.00  0.00    +0.000 OA
ATOM     21  N   UNL     1       1.845   4.331  18.288  0.00  0.00    +0.000 N 
ATOM     22  H   UNL     1       1.121   4.344  17.582  0.00  0.00    +0.000 HD
ENDBRANCH  17  21
BRANCH  17  23
ATOM     23  C   UNL     1       2.330   6.680  17.650  0.00  0.00    +0.000 C 
BRANCH  23  24
ATOM     24  C   UNL     1       2.466   7.935  18.548  0.00  0.00    +0.000 C 
ATOM     25  C   UNL     1       1.720   9.164  18.014  0.00  0.00    +0.000 C 
ATOM     26  C   UNL     1       1.947   7.631  19.962  0.00  0.00    +0.000 C 
ENDBRANCH  23  24
ENDBRANCH  17  23
ENDBRANCH   1  17
TORSDOF 7
ENDMDL
MODEL 7
REMARK VINA RESULT:      -6.7      1.778      6.066
REMARK  Name = 
REMARK  10 active torsions:
REMARK  status: ('A' for Active; 'I' for Inactive)
REMARK    1  A    between atoms: C_1  and  C_2
REMARK    2  A    between atoms: N_4  and  C_5
REMARK    3  A    between atoms: C_5  and  C_6
REMARK    4  A    between atoms: C_5  and  C_10
REMARK    5  A    between atoms: C_6  and  C_7
REMARK    6  A    between atoms: C_7  and  C_8
REMARK    7  A    between atoms: C_7  and  C_9
REMARK    8  A    between atoms: CA_12  and  C_13
REMARK    9  A    between atoms: C_13  and  OXT_15
REMARK   10  A    between atoms: C_17  and  C_18
REMARK                            x       y       z     vdW  Elec       q    Type
REMARK                         _______ _______ _______ _____ _____    ______ ____
ROOT
ATOM      1  C   UNL     1       3.929   4.354  17.110  0.00  0.00    +0.000 C 
ATOM      2  N   UNL     1       3.370   5.701  17.493  0.00  0.00    +0.000 NA
ATOM      3  CA  UNL     1       3.900   5.962  18.885  0.00  0.00    +0.000 C 
ATOM      4  C   UNL     1       4.501   4.662  19.407  0.00  0.00    +0.000 C 
ATOM      5  C   UNL     1       4.000   3.594  18.442  0.00  0.00    +0.000 C 
ATOM      6  H   UNL     1       2.363   5.545  17.580  0.00  0.00    +0.000 HD
ENDROOT
BRANCH   5   7
ATOM      7  C   UNL     1       2.704   3.007  18.936  0.00  0.00    +0.000 A 
ATOM      8  C   UNL     1       1.542   2.648  18.281  0.00  0.00    +0.000 A 
ATOM      9  N   UNL     1       0.642   2.349  19.271  0.00  0.00    +0.000 N 
ATOM     10  C   UNL     1       1.287   2.478  20.464  0.00  0.00    +0.000 A 
ATOM     11  N   UNL     1       2.533   2.850  20.297  0.00  0.00    +0.000 NA
ATOM     12  H   UNL     1      -0.333   2.111  19.146  0.00  0.00    +0.000 HD
ENDBRANCH   5   7
BRANCH   3  13
ATOM     13  C   UNL     1       2.771   6.511  19.771  0.00  0.00    +0.000 C 
ATOM     14  O   UNL     1       2.084   7.495  19.546  0.00  0.00    +0.000 OA
BRANCH  13  15
ATOM     15  OXT UNL     1       2.591   5.731  20.875  0.00  0.00    +0.000 OA
ATOM     16  HXT UNL     1       2.587   4.788  20.602  0.00  0.00    +0.000 HD
ENDBRANCH  13  15
ENDBRANCH   3  13
BRANCH   1  17
ATOM     17  C   UNL     1       5.306   4.546  16.367  0.00  0.00    +0.000 C 
BRANCH  17  21
ATOM     18  C   UNL     1       7.739   7.084  17.868  0.00  0.00    +0.000 C 
ATOM     19  C   UNL     1       7.246   5.738  17.410  0.00  0.00    +0.000 C 
ATOM     20  O   UNL     1       7.931   4.722  17.523  0.00  0.00    +0.000 OA
ATOM     21  N   UNL     1       5.978   5.756  16.873  0.00  0.00    +0.000 N 
ATOM     22  H   UNL     1       5.471   6.630  16.863  0.00  0.00    +0.000 HD
ENDBRANCH  17  21
BRANCH  17  23
ATOM     23  C   UNL     1       5.166   4.617  14.823  0.00  0.00    +0.000 C 
BRANCH  23  24
ATOM     24  C   UNL     1       6.312   3.963  14.009  0.00  0.00    +0.000 C 
ATOM     25  C   UNL     1       5.867   3.399  12.654  0.00  0.00    +0.000 C 
ATOM     26  C   UNL     1       7.433   4.983  13.763  0.00  0.00    +0.000 C 
ENDBRANCH  23  24
ENDBRANCH  17  23
ENDBRANCH   1  17
TORSDOF 7
ENDMDL
MODEL 8
REMARK VINA RESULT:      -6.6      1.960      5.972
REMARK  Name = 
REMARK  10 active torsions:
REMARK  status: ('A' for Active; 'I' for Inactive)
REMARK    1  A    between atoms: C_1  and  C_2
REMARK    2  A    between atoms: N_4  and  C_5
REMARK    3  A    between atoms: C_5  and  C_6
REMARK    4  A    between atoms: C_5  and  C_10
REMARK    5  A    between atoms: C_6  and  C_7
REMARK    6  A    between atoms: C_7  and  C_8
REMARK    7  A    between atoms: C_7  and  C_9
REMARK    8  A    between atoms: CA_12  and  C_13
REMARK    9  A    between atoms: C_13  and  OXT_15
REMARK   10  A    between atoms: C_17  and  C_18
REMARK                            x       y       z     vdW  Elec       q    Type
REMARK                         _______ _______ _______ _____ _____    ______ ____
ROOT
ATOM      1  C   UNL     1       5.035   4.273  17.174  0.00  0.00    +0.000 C 
ATOM      2  N   UNL     1       4.182   5.515  17.105  0.00  0.00    +0.000 NA
ATOM      3  CA  UNL     1       4.145   6.042  18.522  0.00  0.00    +0.000 C 
ATOM      4  C   UNL     1       4.712   4.963  19.437  0.00  0.00    +0.000 C 
ATOM      5  C   UNL     1       4.746   3.707  18.573  0.00  0.00    +0.000 C 
ATOM      6  H   UNL     1       3.244   5.170  16.889  0.00  0.00    +0.000 HD
ENDROOT
BRANCH   5   7
ATOM      7  C   UNL     1       3.462   2.934  18.719  0.00  0.00    +0.000 A 
ATOM      8  C   UNL     1       2.744   2.157  17.831  0.00  0.00    +0.000 A 
ATOM      9  N   UNL     1       1.567   1.864  18.471  0.00  0.00    +0.000 N 
ATOM     10  C   UNL     1       1.630   2.412  19.717  0.00  0.00    +0.000 A 
ATOM     11  N   UNL     1       2.765   3.042  19.905  0.00  0.00    +0.000 NA
ATOM     12  H   UNL     1       0.779   1.365  18.081  0.00  0.00    +0.000 HD
ENDBRANCH   5   7
BRANCH   3  13
ATOM     13  C   UNL     1       2.708   6.453  18.881  0.00  0.00    +0.000 C 
ATOM     14  O   UNL     1       2.378   7.349  19.642  0.00  0.00    +0.000 OA
BRANCH  13  15
ATOM     15  OXT UNL     1       1.798   5.692  18.209  0.00  0.00    +0.000 OA
ATOM     16  HXT UNL     1       1.235   5.220  18.860  0.00  0.00    +0.000 HD
ENDBRANCH  13  15
ENDBRANCH   3  13
BRANCH   1  17
ATOM     17  C   UNL     1       6.540   4.649  16.894  0.00  0.00    +0.000 C 
BRANCH  17  21
ATOM     18  C   UNL     1       7.471   8.291  17.588  0.00  0.00    +0.000 C 
ATOM     19  C   UNL     1       7.460   6.800  17.787  0.00  0.00    +0.000 C 
ATOM     20  O   UNL     1       8.088   6.262  18.699  0.00  0.00    +0.000 OA
ATOM     21  N   UNL     1       6.689   6.115  16.876  0.00  0.00    +0.000 N 
ATOM     22  H   UNL     1       6.170   6.645  16.189  0.00  0.00    +0.000 HD
ENDBRANCH  17  21
BRANCH  17  23
ATOM     23  C   UNL     1       7.091   4.037  15.579  0.00  0.00    +0.000 C 
BRANCH  23  24
ATOM     24  C   UNL     1       6.633   4.726  14.269  0.00  0.00    +0.000 C 
ATOM     25  C   UNL     1       7.786   5.295  13.431  0.00  0.00    +0.000 C 
ATOM     26  C   UNL     1       5.847   3.734  13.398  0.00  0.00    +0.000 C 
ENDBRANCH  23  24
ENDBRANCH  17  23
ENDBRANCH   1  17
TORSDOF 7
ENDMDL
MODEL 9
REMARK VINA RESULT:      -6.5      2.523      5.587
REMARK  Name = 
REMARK  10 active torsions:
REMARK  status: ('A' for Active; 'I' for Inactive)
REMARK    1  A    between atoms: C_1  and  C_2
REMARK    2  A    between atoms: N_4  and  C_5
REMARK    3  A    between atoms: C_5  and  C_6
REMARK    4  A    between atoms: C_5  and  C_10
REMARK    5  A    between atoms: C_6  and  C_7
REMARK    6  A    between atoms: C_7  and  C_8
REMARK    7  A    between atoms: C_7  and  C_9
REMARK    8  A    between atoms: CA_12  and  C_13
REMARK    9  A    between atoms: C_13  and  OXT_15
REMARK   10  A    between atoms: C_17  and  C_18
REMARK                            x       y       z     vdW  Elec       q    Type
REMARK                         _______ _______ _______ _____ _____    ______ ____
ROOT
ATOM      1  C   UNL     1       3.508   5.379  18.590  0.00  0.00    +0.000 C 
ATOM      2  N   UNL     1       4.149   4.112  18.084  0.00  0.00    +0.000 NA
ATOM      3  CA  UNL     1       3.029   3.346  17.417  0.00  0.00    +0.000 C 
ATOM      4  C   UNL     1       1.714   4.017  17.797  0.00  0.00    +0.000 C 
ATOM      5  C   UNL     1       2.078   4.947  18.949  0.00  0.00    +0.000 C 
ATOM      6  H   UNL     1       4.402   3.596  18.930  0.00  0.00    +0.000 HD
ENDROOT
BRANCH   5   7
ATOM      7  C   UNL     1       1.914   4.240  20.268  0.00  0.00    +0.000 A 
ATOM      8  C   UNL     1       2.617   4.318  21.453  0.00  0.00    +0.000 A 
ATOM      9  N   UNL     1       2.127   3.305  22.237  0.00  0.00    +0.000 N 
ATOM     10  C   UNL     1       1.127   2.695  21.540  0.00  0.00    +0.000 A 
ATOM     11  N   UNL     1       0.959   3.247  20.363  0.00  0.00    +0.000 NA
ATOM     12  H   UNL     1       2.466   3.033  23.149  0.00  0.00    +0.000 HD
ENDBRANCH   5   7
BRANCH   3  13
ATOM     13  C   UNL     1       3.100   1.867  17.830  0.00  0.00    +0.000 C 
ATOM     14  O   UNL     1       4.086   1.148  17.790  0.00  0.00    +0.000 OA
BRANCH  13  15
ATOM     15  OXT UNL     1       1.894   1.428  18.290  0.00  0.00    +0.000 OA
ATOM     16  HXT UNL     1       1.317   2.204  18.461  0.00  0.00    +0.000 HD
ENDBRANCH  13  15
ENDBRANCH   3  13
BRANCH   1  17
ATOM     17  C   UNL     1       3.620   6.503  17.491  0.00  0.00    +0.000 C 
BRANCH  17  21
ATOM     18  C   UNL     1       7.231   7.755  17.429  0.00  0.00    +0.000 C 
ATOM     19  C   UNL     1       6.071   6.849  17.116  0.00  0.00    +0.000 C 
ATOM     20  O   UNL     1       6.205   5.838  16.427  0.00  0.00    +0.000 OA
ATOM     21  N   UNL     1       4.877   7.249  17.672  0.00  0.00    +0.000 N 
ATOM     22  H   UNL     1       4.872   8.069  18.262  0.00  0.00    +0.000 HD
ENDBRANCH  17  21
BRANCH  17  23
ATOM     23  C   UNL     1       2.413   7.479  17.485  0.00  0.00    +0.000 C 
BRANCH  23  24
ATOM     24  C   UNL     1       2.500   8.668  18.474  0.00  0.00    +0.000 C 
ATOM     25  C   UNL     1       1.937   9.981  17.916  0.00  0.00    +0.000 C 
ATOM     26  C   UNL     1       1.750   8.333  19.771  0.00  0.00    +0.000 C 
ENDBRANCH  23  24
ENDBRANCH  17  23
ENDBRANCH   1  17
TORSDOF 7
ENDMDL
