MODEL 1
REMARK VINA RESULT:      -6.5      0.000      0.000
REMARK  Name = 
REMARK  9 active torsions:
REMARK  status: ('A' for Active; 'I' for Inactive)
REMARK    1  A    between atoms: C_1  and  C_2
REMARK    2  A    between atoms: C_2  and  N_3
REMARK    3  A    between atoms: N_3  and  C_4
REMARK    4  A    between atoms: C_4  and  C_5
REMARK    5  A    between atoms: C_6  and  C_8
REMARK    6  A    between atoms: C_10  and  C_11
REMARK    7  A    between atoms: C_11  and  C_12
REMARK    8  A    between atoms: C_16  and  C_17
REMARK    9  A    between atoms: C_22  and  C_23
REMARK                            x       y       z     vdW  Elec       q    Type
REMARK                         _______ _______ _______ _____ _____    ______ ____
ROOT
ATOM      1  C   UNL     1       2.590   7.000  18.250  0.00  0.00    +0.000 A 
ATOM      2  C   UNL     1       3.956   6.844  18.172  0.00  0.00    +0.000 A 
ATOM      3  C   UNL     1       4.457   5.547  18.125  0.00  0.00    +0.000 A 
ATOM      4  N   UNL     1       3.624   4.487  18.175  0.00  0.00    +0.000 NA
ATOM      5  C   UNL     1       2.302   4.731  18.266  0.00  0.00    +0.000 A 
ATOM      6  C   UNL     1       1.364   3.566  18.320  0.00  0.00    +0.000 C 
ATOM      7  N   UNL     1       1.747   5.955  18.308  0.00  0.00    +0.000 NA
ENDROOT
BRANCH   3   8
ATOM      8  C   UNL     1       5.963   5.310  17.945  0.00  0.00    +0.000 C 
ATOM      9  C   UNL     1       6.603   5.328  19.355  0.00  0.00    +0.000 C 
ATOM     10  C   UNL     1       6.241   3.941  17.280  0.00  0.00    +0.000 C 
ATOM     11  C   UNL     1       5.842   3.916  15.807  0.00  0.00    +0.000 C 
ATOM     12  N   UNL     1       6.518   4.967  15.056  0.00  0.00    +0.000 N 
ATOM     13  C   UNL     1       6.924   4.845  13.731  0.00  0.00    +0.000 C 
ATOM     14  C   UNL     1       6.738   3.518  13.035  0.00  0.00    +0.000 C 
ATOM     15  O   UNL     1       7.449   5.775  13.112  0.00  0.00    +0.000 OA
ATOM     16  C   UNL     1       6.392   6.319  15.601  0.00  0.00    +0.000 C 
ATOM     17  C   UNL     1       6.683   6.393  17.100  0.00  0.00    +0.000 C 
ENDBRANCH   3   8
BRANCH   1  19
ATOM     18  N   UNL     1       1.487   9.014  19.410  0.00  0.00    +0.000 N 
ATOM     19  C   UNL     1       2.050   8.416  18.258  0.00  0.00    +0.000 C 
ATOM     20  O   UNL     1       2.127   9.046  17.199  0.00  0.00    +0.000 OA
BRANCH  18  22
ATOM     21  C   UNL     1      -0.358  10.543  18.710  0.00  0.00    +0.000 C 
ATOM     22  C   UNL     1       1.049  10.409  19.275  0.00  0.00    +0.000 C 
ENDBRANCH  18  22
BRANCH  18  23
ATOM     23  C   UNL     1       1.331   8.300  20.681  0.00  0.00    +0.000 C 
ATOM     24  C   UNL     1       0.372   8.857  21.722  0.00  0.00    +0.000 C 
ENDBRANCH  18  23
ENDBRANCH   1  19
TORSDOF 4
ENDMDL
MODEL 2
REMARK VINA RESULT:      -6.2      2.131      3.959
REMARK  Name = 
REMARK  9 active torsions:
REMARK  status: ('A' for Active; 'I' for Inactive)
REMARK    1  A    between atoms: C_1  and  C_2
REMARK    2  A    between atoms: C_2  and  N_3
REMARK    3  A    between atoms: N_3  and  C_4
REMARK    4  A    between atoms: C_4  and  C_5
REMARK    5  A    between atoms: C_6  and  C_8
REMARK    6  A    between atoms: C_10  and  C_11
REMARK    7  A    between atoms: C_11  and  C_12
REMARK    8  A    between atoms: C_16  and  C_17
REMARK    9  A    between atoms: C_22  and  C_23
REMARK                            x       y       z     vdW  Elec       q    Type
REMARK                         _______ _______ _______ _____ _____    ______ ____
ROOT
ATOM      1  C   UNL     1       2.891   5.677  19.278  0.00  0.00    +0.000 A 
ATOM      2  C   UNL     1       4.159   5.218  18.998  0.00  0.00    +0.000 A 
ATOM      3  C   UNL     1       4.971   6.012  18.194  0.00  0.00    +0.000 A 
ATOM      4  N   UNL     1       4.512   7.179  17.694  0.00  0.00    +0.000 NA
ATOM      5  C   UNL     1       3.253   7.543  18.005  0.00  0.00    +0.000 A 
ATOM      6  C   UNL     1       2.730   8.835  17.461  0.00  0.00    +0.000 C 
ATOM      7  N   UNL     1       2.415   6.831  18.781  0.00  0.00    +0.000 NA
ENDROOT
BRANCH   3   8
ATOM      8  C   UNL     1       6.425   5.600  17.924  0.00  0.00    +0.000 C 
ATOM      9  C   UNL     1       7.170   5.624  19.281  0.00  0.00    +0.000 C 
ATOM     10  C   UNL     1       6.504   4.175  17.327  0.00  0.00    +0.000 C 
ATOM     11  C   UNL     1       5.992   4.115  15.891  0.00  0.00    +0.000 C 
ATOM     12  N   UNL     1       6.716   5.042  15.029  0.00  0.00    +0.000 N 
ATOM     13  C   UNL     1       7.005   4.804  13.689  0.00  0.00    +0.000 C 
ATOM     14  C   UNL     1       6.626   3.469  13.093  0.00  0.00    +0.000 C 
ATOM     15  O   UNL     1       7.575   5.635  12.979  0.00  0.00    +0.000 OA
ATOM     16  C   UNL     1       6.777   6.427  15.497  0.00  0.00    +0.000 C 
ATOM     17  C   UNL     1       7.188   6.550  16.964  0.00  0.00    +0.000 C 
ENDBRANCH   3   8
BRANCH   1  19
ATOM     18  N   UNL     1       1.518   3.565  19.802  0.00  0.00    +0.000 N 
ATOM     19  C   UNL     1       2.029   4.827  20.189  0.00  0.00    +0.000 C 
ATOM     20  O   UNL     1       1.787   5.284  21.310  0.00  0.00    +0.000 OA
BRANCH  18  22
ATOM     21  C   UNL     1       1.587   2.281  21.942  0.00  0.00    +0.000 C 
ATOM     22  C   UNL     1       0.736   2.839  20.811  0.00  0.00    +0.000 C 
ENDBRANCH  18  22
BRANCH  18  23
ATOM     23  C   UNL     1       1.737   2.993  18.470  0.00  0.00    +0.000 C 
ATOM     24  C   UNL     1       2.792   1.910  18.301  0.00  0.00    +0.000 C 
ENDBRANCH  18  23
ENDBRANCH   1  19
TORSDOF 4
ENDMDL
MODEL 3
REMARK VINA RESULT:      -6.2      3.212      9.099
REMARK  Name = 
REMARK  9 active torsions:
REMARK  status: ('A' for Active; 'I' for Inactive)
REMARK    1  A    between atoms: C_1  and  C_2
REMARK    2  A    between atoms: C_2  and  N_3
REMARK    3  A    between atoms: N_3  and  C_4
REMARK    4  A    between atoms: C_4  and  C_5
REMARK    5  A    between atoms: C_6  and  C_8
REMARK    6  A    between atoms: C_10  and  C_11
REMARK    7  A    between atoms: C_11  and  C_12
REMARK    8  A    between atoms: C_16  and  C_17
REMARK    9  A    between atoms: C_22  and  C_23
REMARK                            x       y       z     vdW  Elec       q    Type
REMARK                         _______ _______ _______ _____ _____    ______ ____
ROOT
ATOM      1  C   UNL     1       1.254   9.115  19.362  0.00  0.00    +0.000 A 
ATOM      2  C   UNL     1       0.630  10.180  18.751  0.00  0.00    +0.000 A 
ATOM      3  C   UNL     1      -0.121  11.035  19.551  0.00  0.00    +0.000 A 
ATOM      4  N   UNL     1      -0.242  10.806  20.876  0.00  0.00    +0.000 NA
ATOM      5  C   UNL     1       0.389   9.732  21.388  0.00  0.00    +0.000 A 
ATOM      6  C   UNL     1       0.267   9.466  22.855  0.00  0.00    +0.000 C 
ATOM      7  N   UNL     1       1.137   8.868  20.678  0.00  0.00    +0.000 NA
ENDROOT
BRANCH   3   8
ATOM      8  C   UNL     1      -0.763  12.290  18.945  0.00  0.00    +0.000 C 
ATOM      9  C   UNL     1       0.387  13.229  18.505  0.00  0.00    +0.000 C 
ATOM     10  C   UNL     1      -1.630  11.939  17.712  0.00  0.00    +0.000 C 
ATOM     11  C   UNL     1      -2.911  11.203  18.091  0.00  0.00    +0.000 C 
ATOM     12  N   UNL     1      -3.707  11.974  19.039  0.00  0.00    +0.000 N 
ATOM     13  C   UNL     1      -5.098  11.979  19.073  0.00  0.00    +0.000 C 
ATOM     14  C   UNL     1      -5.851  11.210  18.015  0.00  0.00    +0.000 C 
ATOM     15  O   UNL     1      -5.735  12.605  19.923  0.00  0.00    +0.000 OA
ATOM     16  C   UNL     1      -3.001  12.430  20.237  0.00  0.00    +0.000 C 
ATOM     17  C   UNL     1      -1.656  13.089  19.930  0.00  0.00    +0.000 C 
ENDBRANCH   3   8
BRANCH   1  19
ATOM     18  N   UNL     1       2.513   6.920  18.896  0.00  0.00    +0.000 N 
ATOM     19  C   UNL     1       2.104   8.212  18.491  0.00  0.00    +0.000 C 
ATOM     20  O   UNL     1       2.428   8.655  17.384  0.00  0.00    +0.000 OA
BRANCH  18  22
ATOM     21  C   UNL     1       4.674   5.756  18.439  0.00  0.00    +0.000 C 
ATOM     22  C   UNL     1       3.295   6.147  17.924  0.00  0.00    +0.000 C 
ENDBRANCH  18  22
BRANCH  18  23
ATOM     23  C   UNL     1       2.194   6.362  20.214  0.00  0.00    +0.000 C 
ATOM     24  C   UNL     1       1.512   5.004  20.290  0.00  0.00    +0.000 C 
ENDBRANCH  18  23
ENDBRANCH   1  19
TORSDOF 4
ENDMDL
MODEL 4
REMARK VINA RESULT:      -6.1      2.454      6.632
REMARK  Name = 
REMARK  9 active torsions:
REMARK  status: ('A' for Active; 'I' for Inactive)
REMARK    1  A    between atoms: C_1  and  C_2
REMARK    2  A    between atoms: C_2  and  N_3
REMARK    3  A    between atoms: N_3  and  C_4
REMARK    4  A    between atoms: C_4  and  C_5
REMARK    5  A    between atoms: C_6  and  C_8
REMARK    6  A    between atoms: C_10  and  C_11
REMARK    7  A    between atoms: C_11  and  C_12
REMARK    8  A    between atoms: C_16  and  C_17
REMARK    9  A    between atoms: C_22  and  C_23
REMARK                            x       y       z     vdW  Elec       q    Type
REMARK                         _______ _______ _______ _____ _____    ______ ____
ROOT
ATOM      1  C   UNL     1       5.597   4.664  19.320  0.00  0.00    +0.000 A 
ATOM      2  C   UNL     1       4.369   5.179  18.966  0.00  0.00    +0.000 A 
ATOM      3  C   UNL     1       3.262   4.346  19.082  0.00  0.00    +0.000 A 
ATOM      4  N   UNL     1       3.401   3.073  19.509  0.00  0.00    +0.000 NA
ATOM      5  C   UNL     1       4.641   2.647  19.819  0.00  0.00    +0.000 A 
ATOM      6  C   UNL     1       4.812   1.239  20.296  0.00  0.00    +0.000 C 
ATOM      7  N   UNL     1       5.755   3.397  19.739  0.00  0.00    +0.000 NA
ENDROOT
BRANCH   3   8
ATOM      8  C   UNL     1       1.856   4.890  18.791  0.00  0.00    +0.000 C 
ATOM      9  C   UNL     1       1.131   3.843  17.910  0.00  0.00    +0.000 C 
ATOM     10  C   UNL     1       1.052   5.098  20.097  0.00  0.00    +0.000 C 
ATOM     11  C   UNL     1       1.571   6.272  20.921  0.00  0.00    +0.000 C 
ATOM     12  N   UNL     1       1.566   7.508  20.147  0.00  0.00    +0.000 N 
ATOM     13  C   UNL     1       1.317   8.767  20.682  0.00  0.00    +0.000 C 
ATOM     14  C   UNL     1       0.943   8.873  22.142  0.00  0.00    +0.000 C 
ATOM     15  O   UNL     1       1.372   9.796  20.004  0.00  0.00    +0.000 OA
ATOM     16  C   UNL     1       2.244   7.448  18.851  0.00  0.00    +0.000 C 
ATOM     17  C   UNL     1       1.840   6.233  18.016  0.00  0.00    +0.000 C 
ENDBRANCH   3   8
BRANCH   1  19
ATOM     18  N   UNL     1       7.034   6.424  18.113  0.00  0.00    +0.000 N 
ATOM     19  C   UNL     1       6.792   5.591  19.231  0.00  0.00    +0.000 C 
ATOM     20  O   UNL     1       7.563   5.597  20.196  0.00  0.00    +0.000 OA
BRANCH  18  22
ATOM     21  C   UNL     1       7.931   8.720  17.720  0.00  0.00    +0.000 C 
ATOM     22  C   UNL     1       8.210   7.300  18.192  0.00  0.00    +0.000 C 
ENDBRANCH  18  22
BRANCH  18  23
ATOM     23  C   UNL     1       6.178   6.425  16.923  0.00  0.00    +0.000 C 
ATOM     24  C   UNL     1       6.478   5.442  15.802  0.00  0.00    +0.000 C 
ENDBRANCH  18  23
ENDBRANCH   1  19
TORSDOF 4
ENDMDL
MODEL 5
REMARK VINA RESULT:      -6.0      7.138      9.292
REMARK  Name = 
REMARK  9 active torsions:
REMARK  status: ('A' for Active; 'I' for Inactive)
REMARK    1  A    between atoms: C_1  and  C_2
REMARK    2  A    between atoms: C_2  and  N_3
REMARK    3  A    between atoms: N_3  and  C_4
REMARK    4  A    between atoms: C_4  and  C_5
REMARK    5  A    between atoms: C_6  and  C_8
REMARK    6  A    between atoms: C_10  and  C_11
REMARK    7  A    between atoms: C_11  and  C_12
REMARK    8  A    between atoms: C_16  and  C_17
REMARK    9  A    between atoms: C_22  and  C_23
REMARK                            x       y       z     vdW  Elec       q    Type
REMARK                         _______ _______ _______ _____ _____    ______ ____
ROOT
ATOM      1  C   UNL     1      -2.192  12.062  22.367  0.00  0.00    +0.000 A 
ATOM      2  C   UNL     1      -1.868  12.264  21.043  0.00  0.00    +0.000 A 
ATOM      3  C   UNL     1      -0.859  11.478  20.498  0.00  0.00    +0.000 A 
ATOM      4  N   UNL     1      -0.212  10.567  21.255  0.00  0.00    +0.000 NA
ATOM      5  C   UNL     1      -0.582  10.447  22.545  0.00  0.00    +0.000 A 
ATOM      6  C   UNL     1       0.123   9.440  23.398  0.00  0.00    +0.000 C 
ATOM      7  N   UNL     1      -1.553  11.166  23.137  0.00  0.00    +0.000 NA
ENDROOT
BRANCH   3   8
ATOM      8  C   UNL     1      -0.516  11.591  19.005  0.00  0.00    +0.000 C 
ATOM      9  C   UNL     1      -1.416  10.582  18.249  0.00  0.00    +0.000 C 
ATOM     10  C   UNL     1      -0.794  13.017  18.471  0.00  0.00    +0.000 C 
ATOM     11  C   UNL     1       0.205  14.042  19.000  0.00  0.00    +0.000 C 
ATOM     12  N   UNL     1       1.575  13.663  18.679  0.00  0.00    +0.000 N 
ATOM     13  C   UNL     1       2.592  14.568  18.392  0.00  0.00    +0.000 C 
ATOM     14  C   UNL     1       2.254  16.038  18.319  0.00  0.00    +0.000 C 
ATOM     15  O   UNL     1       3.753  14.211  18.175  0.00  0.00    +0.000 OA
ATOM     16  C   UNL     1       1.969  12.309  19.075  0.00  0.00    +0.000 C 
ATOM     17  C   UNL     1       0.955  11.243  18.660  0.00  0.00    +0.000 C 
ENDBRANCH   3   8
BRANCH   1  19
ATOM     18  N   UNL     1      -3.104  14.109  23.630  0.00  0.00    +0.000 N 
ATOM     19  C   UNL     1      -3.321  12.892  22.942  0.00  0.00    +0.000 C 
ATOM     20  O   UNL     1      -4.467  12.461  22.778  0.00  0.00    +0.000 OA
BRANCH  18  22
ATOM     21  C   UNL     1      -4.684  15.992  23.191  0.00  0.00    +0.000 C 
ATOM     22  C   UNL     1      -4.301  14.824  24.089  0.00  0.00    +0.000 C 
ENDBRANCH  18  22
BRANCH  18  23
ATOM     23  C   UNL     1      -1.764  14.647  23.891  0.00  0.00    +0.000 C 
ATOM     24  C   UNL     1      -1.489  15.311  25.231  0.00  0.00    +0.000 C 
ENDBRANCH  18  23
ENDBRANCH   1  19
TORSDOF 4
ENDMDL
MODEL 6
REMARK VINA RESULT:      -6.0      2.672      7.269
REMARK  Name = 
REMARK  9 active torsions:
REMARK  status: ('A' for Active; 'I' for Inactive)
REMARK    1  A    between atoms: C_1  and  C_2
REMARK    2  A    between atoms: C_2  and  N_3
REMARK    3  A    between atoms: N_3  and  C_4
REMARK    4  A    between atoms: C_4  and  C_5
REMARK    5  A    between atoms: C_6  and  C_8
REMARK    6  A    between atoms: C_10  and  C_11
REMARK    7  A    between atoms: C_11  and  C_12
REMARK    8  A    between atoms: C_16  and  C_17
REMARK    9  A    between atoms: C_22  and  C_23
REMARK                            x       y       z     vdW  Elec       q    Type
REMARK                         _______ _______ _______ _____ _____    ______ ____
ROOT
ATOM      1  C   UNL     1       5.807   5.174  16.082  0.00  0.00    +0.000 A 
ATOM      2  C   UNL     1       4.566   5.355  16.652  0.00  0.00    +0.000 A 
ATOM      3  C   UNL     1       4.419   6.394  17.565  0.00  0.00    +0.000 A 
ATOM      4  N   UNL     1       5.469   7.177  17.889  0.00  0.00    +0.000 NA
ATOM      5  C   UNL     1       6.651   6.920  17.296  0.00  0.00    +0.000 A 
ATOM      6  C   UNL     1       7.824   7.781  17.642  0.00  0.00    +0.000 C 
ATOM      7  N   UNL     1       6.865   5.940  16.399  0.00  0.00    +0.000 NA
ENDROOT
BRANCH   3   8
ATOM      8  C   UNL     1       3.039   6.703  18.163  0.00  0.00    +0.000 C 
ATOM      9  C   UNL     1       2.752   8.203  17.904  0.00  0.00    +0.000 C 
ATOM     10  C   UNL     1       1.933   5.852  17.495  0.00  0.00    +0.000 C 
ATOM     11  C   UNL     1       2.013   4.380  17.888  0.00  0.00    +0.000 C 
ATOM     12  N   UNL     1       1.947   4.212  19.334  0.00  0.00    +0.000 N 
ATOM     13  C   UNL     1       1.343   3.132  19.971  0.00  0.00    +0.000 C 
ATOM     14  C   UNL     1       0.631   2.101  19.129  0.00  0.00    +0.000 C 
ATOM     15  O   UNL     1       1.351   2.999  21.197  0.00  0.00    +0.000 OA
ATOM     16  C   UNL     1       2.902   5.005  20.110  0.00  0.00    +0.000 C 
ATOM     17  C   UNL     1       2.942   6.475  19.694  0.00  0.00    +0.000 C 
ENDBRANCH   3   8
BRANCH   1  19
ATOM     18  N   UNL     1       6.508   4.278  13.774  0.00  0.00    +0.000 N 
ATOM     19  C   UNL     1       5.948   4.068  15.057  0.00  0.00    +0.000 C 
ATOM     20  O   UNL     1       5.553   2.947  15.392  0.00  0.00    +0.000 OA
BRANCH  18  22
ATOM     21  C   UNL     1       5.502   3.002  11.879  0.00  0.00    +0.000 C 
ATOM     22  C   UNL     1       6.620   3.099  12.908  0.00  0.00    +0.000 C 
ENDBRANCH  18  22
BRANCH  18  23
ATOM     23  C   UNL     1       6.953   5.595  13.308  0.00  0.00    +0.000 C 
ATOM     24  C   UNL     1       8.342   5.727  12.700  0.00  0.00    +0.000 C 
ENDBRANCH  18  23
ENDBRANCH   1  19
TORSDOF 4
ENDMDL
MODEL 7
REMARK VINA RESULT:      -6.0      5.297     10.806
REMARK  Name = 
REMARK  9 active torsions:
REMARK  status: ('A' for Active; 'I' for Inactive)
REMARK    1  A    between atoms: C_1  and  C_2
REMARK    2  A    between atoms: C_2  and  N_3
REMARK    3  A    between atoms: N_3  and  C_4
REMARK    4  A    between atoms: C_4  and  C_5
REMARK    5  A    between atoms: C_6  and  C_8
REMARK    6  A    between atoms: C_10  and  C_11
REMARK    7  A    between atoms: C_11  and  C_12
REMARK    8  A    between atoms: C_16  and  C_17
REMARK    9  A    between atoms: C_22  and  C_23
REMARK                            x       y       z     vdW  Elec       q    Type
REMARK                         _______ _______ _______ _____ _____    ______ ____
ROOT
ATOM      1  C   UNL     1      -0.515  10.660  19.378  0.00  0.00    +0.000 A 
ATOM      2  C   UNL     1      -0.572  11.660  20.324  0.00  0.00    +0.000 A 
ATOM      3  C   UNL     1      -1.645  12.543  20.268  0.00  0.00    +0.000 A 
ATOM      4  N   UNL     1      -2.581  12.426  19.302  0.00  0.00    +0.000 NA
ATOM      5  C   UNL     1      -2.439  11.428  18.408  0.00  0.00    +0.000 A 
ATOM      6  C   UNL     1      -3.470  11.283  17.333  0.00  0.00    +0.000 C 
ATOM      7  N   UNL     1      -1.434  10.535  18.406  0.00  0.00    +0.000 NA
ENDROOT
BRANCH   3   8
ATOM      8  C   UNL     1      -1.813  13.620  21.348  0.00  0.00    +0.000 C 
ATOM      9  C   UNL     1      -0.757  14.719  21.071  0.00  0.00    +0.000 C 
ATOM     10  C   UNL     1      -3.226  14.251  21.299  0.00  0.00    +0.000 C 
ATOM     11  C   UNL     1      -4.310  13.291  21.781  0.00  0.00    +0.000 C 
ATOM     12  N   UNL     1      -4.037  12.817  23.133  0.00  0.00    +0.000 N 
ATOM     13  C   UNL     1      -5.019  12.533  24.077  0.00  0.00    +0.000 C 
ATOM     14  C   UNL     1      -6.462  12.808  23.726  0.00  0.00    +0.000 C 
ATOM     15  O   UNL     1      -4.751  12.085  25.194  0.00  0.00    +0.000 OA
ATOM     16  C   UNL     1      -2.708  12.243  23.348  0.00  0.00    +0.000 C 
ATOM     17  C   UNL     1      -1.579  13.113  22.796  0.00  0.00    +0.000 C 
ENDBRANCH   3   8
BRANCH   1  19
ATOM     18  N   UNL     1       0.741   8.720  20.508  0.00  0.00    +0.000 N 
ATOM     19  C   UNL     1       0.634   9.678  19.472  0.00  0.00    +0.000 C 
ATOM     20  O   UNL     1       1.492   9.741  18.585  0.00  0.00    +0.000 OA
BRANCH  18  22
ATOM     21  C   UNL     1       1.522   6.360  20.741  0.00  0.00    +0.000 C 
ATOM     22  C   UNL     1       1.888   7.807  20.438  0.00  0.00    +0.000 C 
ENDBRANCH  18  22
BRANCH  18  23
ATOM     23  C   UNL     1      -0.223   8.629  21.609  0.00  0.00    +0.000 C 
ATOM     24  C   UNL     1       0.135   9.247  22.951  0.00  0.00    +0.000 C 
ENDBRANCH  18  23
ENDBRANCH   1  19
TORSDOF 4
ENDMDL
MODEL 8
REMARK VINA RESULT:      -6.0      7.501      9.553
REMARK  Name = 
REMARK  9 active torsions:
REMARK  status: ('A' for Active; 'I' for Inactive)
REMARK    1  A    between atoms: C_1  and  C_2
REMARK    2  A    between atoms: C_2  and  N_3
REMARK    3  A    between atoms: N_3  and  C_4
REMARK    4  A    between atoms: C_4  and  C_5
REMARK    5  A    between atoms: C_6  and  C_8
REMARK    6  A    between atoms: C_10  and  C_11
REMARK    7  A    between atoms: C_11  and  C_12
REMARK    8  A    between atoms: C_16  and  C_17
REMARK    9  A    between atoms: C_22  and  C_23
REMARK                            x       y       z     vdW  Elec       q    Type
REMARK                         _______ _______ _______ _____ _____    ______ ____
ROOT
ATOM      1  C   UNL     1      -0.993  12.972  22.779  0.00  0.00    +0.000 A 
ATOM      2  C   UNL     1      -0.785  13.350  21.471  0.00  0.00    +0.000 A 
ATOM      3  C   UNL     1      -0.387  12.368  20.570  0.00  0.00    +0.000 A 
ATOM      4  N   UNL     1      -0.195  11.096  20.981  0.00  0.00    +0.000 NA
ATOM      5  C   UNL     1      -0.406  10.818  22.282  0.00  0.00    +0.000 A 
ATOM      6  C   UNL     1      -0.199   9.413  22.753  0.00  0.00    +0.000 C 
ATOM      7  N   UNL     1      -0.798  11.713  23.206  0.00  0.00    +0.000 NA
ENDROOT
BRANCH   3   8
ATOM      8  C   UNL     1      -0.229  12.707  19.081  0.00  0.00    +0.000 C 
ATOM      9  C   UNL     1      -1.431  12.075  18.336  0.00  0.00    +0.000 C 
ATOM     10  C   UNL     1      -0.236  14.237  18.849  0.00  0.00    +0.000 C 
ATOM     11  C   UNL     1       1.035  14.910  19.359  0.00  0.00    +0.000 C 
ATOM     12  N   UNL     1       2.225  14.332  18.746  0.00  0.00    +0.000 N 
ATOM     13  C   UNL     1       3.376  15.050  18.441  0.00  0.00    +0.000 C 
ATOM     14  C   UNL     1       3.383  16.542  18.674  0.00  0.00    +0.000 C 
ATOM     15  O   UNL     1       4.383  14.515  17.969  0.00  0.00    +0.000 OA
ATOM     16  C   UNL     1       2.341  12.875  18.835  0.00  0.00    +0.000 C 
ATOM     17  C   UNL     1       1.061  12.143  18.432  0.00  0.00    +0.000 C 
ENDBRANCH   3   8
BRANCH   1  19
ATOM     18  N   UNL     1      -2.800  14.111  24.213  0.00  0.00    +0.000 N 
ATOM     19  C   UNL     1      -1.467  14.039  23.745  0.00  0.00    +0.000 C 
ATOM     20  O   UNL     1      -0.625  14.860  24.122  0.00  0.00    +0.000 OA
BRANCH  18  22
ATOM     21  C   UNL     1      -4.122  16.178  24.673  0.00  0.00    +0.000 C 
ATOM     22  C   UNL     1      -3.097  15.174  25.181  0.00  0.00    +0.000 C 
ENDBRANCH  18  22
BRANCH  18  23
ATOM     23  C   UNL     1      -3.851  13.190  23.766  0.00  0.00    +0.000 C 
ATOM     24  C   UNL     1      -4.574  12.345  24.803  0.00  0.00    +0.000 C 
ENDBRANCH  18  23
ENDBRANCH   1  19
TORSDOF 4
ENDMDL
MODEL 9
REMARK VINA RESULT:      -5.9      2.350      4.807
REMARK  Name = 
REMARK  9 active torsions:
REMARK  status: ('A' for Active; 'I' for Inactive)
REMARK    1  A    between atoms: C_1  and  C_2
REMARK    2  A    between atoms: C_2  and  N_3
REMARK    3  A    between atoms: N_3  and  C_4
REMARK    4  A    between atoms: C_4  and  C_5
REMARK    5  A    between atoms: C_6  and  C_8
REMARK    6  A    between atoms: C_10  and  C_11
REMARK    7  A    between atoms: C_11  and  C_12
REMARK    8  A    between atoms: C_16  and  C_17
REMARK    9  A    between atoms: C_22  and  C_23
REMARK                            x       y       z     vdW  Elec       q    Type
REMARK                         _______ _______ _______ _____ _____    ______ ____
ROOT
ATOM      1  C   UNL     1       3.707   7.536  17.733  0.00  0.00    +0.000 A 
ATOM      2  C   UNL     1       3.436   6.191  17.614  0.00  0.00    +0.000 A 
ATOM      3  C   UNL     1       4.509   5.331  17.406  0.00  0.00    +0.000 A 
ATOM      4  N   UNL     1       5.766   5.812  17.305  0.00  0.00    +0.000 NA
ATOM      5  C   UNL     1       5.939   7.143  17.417  0.00  0.00    +0.000 A 
ATOM      6  C   UNL     1       7.326   7.693  17.310  0.00  0.00    +0.000 C 
ATOM      7  N   UNL     1       4.951   8.033  17.627  0.00  0.00    +0.000 NA
ENDROOT
BRANCH   3   8
ATOM      8  C   UNL     1       4.281   3.813  17.358  0.00  0.00    +0.000 C 
ATOM      9  C   UNL     1       5.252   3.236  16.298  0.00  0.00    +0.000 C 
ATOM     10  C   UNL     1       4.577   3.156  18.727  0.00  0.00    +0.000 C 
ATOM     11  C   UNL     1       3.525   3.499  19.778  0.00  0.00    +0.000 C 
ATOM     12  N   UNL     1       2.189   3.118  19.335  0.00  0.00    +0.000 N 
ATOM     13  C   UNL     1       1.183   2.662  20.182  0.00  0.00    +0.000 C 
ATOM     14  C   UNL     1       1.503   2.463  21.644  0.00  0.00    +0.000 C 
ATOM     15  O   UNL     1       0.048   2.397  19.778  0.00  0.00    +0.000 OA
ATOM     16  C   UNL     1       1.787   3.621  18.020  0.00  0.00    +0.000 C 
ATOM     17  C   UNL     1       2.847   3.397  16.941  0.00  0.00    +0.000 C 
ENDBRANCH   3   8
BRANCH   1  19
ATOM     18  N   UNL     1       1.852   8.489  19.239  0.00  0.00    +0.000 N 
ATOM     19  C   UNL     1       2.538   8.461  18.002  0.00  0.00    +0.000 C 
ATOM     20  O   UNL     1       2.202   9.212  17.081  0.00  0.00    +0.000 OA
BRANCH  18  22
ATOM     21  C   UNL     1       0.648  10.056  20.765  0.00  0.00    +0.000 C 
ATOM     22  C   UNL     1       0.769   9.471  19.364  0.00  0.00    +0.000 C 
ENDBRANCH  18  22
BRANCH  18  23
ATOM     23  C   UNL     1       2.180   7.590  20.351  0.00  0.00    +0.000 C 
ATOM     24  C   UNL     1       1.302   6.372  20.593  0.00  0.00    +0.000 C 
ENDBRANCH  18  23
ENDBRANCH   1  19
TORSDOF 4
ENDMDL
