MODEL 1
REMARK VINA RESULT:      -6.0      0.000      0.000
REMARK  Name = 
REMARK  5 active torsions:
REMARK  status: ('A' for Active; 'I' for Inactive)
REMARK    1  A    between atoms: C_1  and  C_2
REMARK    2  A    between atoms: C_2  and  C_3
REMARK    3  A    between atoms: C_2  and  C_4
REMARK    4  A    between atoms: C_7  and  C_8
REMARK    5  A    between atoms: N_9  and  O_10
REMARK                            x       y       z     vdW  Elec       q    Type
REMARK                         _______ _______ _______ _____ _____    ______ ____
ROOT
ATOM      1  C   UNL     1       2.568   4.348  18.209  0.00  0.00    +0.000 C 
ATOM      2  C   UNL     1       2.970   5.636  18.221  0.00  0.00    +0.000 C 
ATOM      3  C   UNL     1       4.153   6.162  17.450  0.00  0.00    +0.000 C 
ATOM      4  C   UNL     1       4.825   5.119  16.609  0.00  0.00    +0.000 C 
ATOM      5  C   UNL     1       4.459   3.827  16.596  0.00  0.00    +0.000 C 
ATOM      6  C   UNL     1       3.320   3.293  17.419  0.00  0.00    +0.000 C 
ENDROOT
BRANCH   1   8
ATOM      7  C   UNL     1       1.033   2.428  18.795  0.00  0.00    +0.000 C 
ATOM      8  C   UNL     1       1.320   3.920  18.972  0.00  0.00    +0.000 C 
ATOM      9  C   UNL     1       1.388   4.288  20.454  0.00  0.00    +0.000 C 
ENDBRANCH   1   8
BRANCH   4  10
ATOM     10  C   UNL     1       5.938   5.549  15.727  0.00  0.00    +0.000 C 
ATOM     11  N   UNL     1       7.020   4.855  15.571  0.00  0.00    +0.000 NA
BRANCH  11  12
ATOM     12  O   UNL     1       7.873   5.532  14.692  0.00  0.00    +0.000 OA
ATOM     13  H   UNL     1       7.594   5.183  13.824  0.00  0.00    +0.000 HD
ENDBRANCH  11  12
ENDBRANCH   4  10
TORSDOF 3
ENDMDL
MODEL 2
REMARK VINA RESULT:      -5.9      0.375      1.492
REMARK  Name = 
REMARK  5 active torsions:
REMARK  status: ('A' for Active; 'I' for Inactive)
REMARK    1  A    between atoms: C_1  and  C_2
REMARK    2  A    between atoms: C_2  and  C_3
REMARK    3  A    between atoms: C_2  and  C_4
REMARK    4  A    between atoms: C_7  and  C_8
REMARK    5  A    between atoms: N_9  and  O_10
REMARK                            x       y       z     vdW  Elec       q    Type
REMARK                         _______ _______ _______ _____ _____    ______ ____
ROOT
ATOM      1  C   UNL     1       2.285   4.309  18.318  0.00  0.00    +0.000 C 
ATOM      2  C   UNL     1       3.022   3.439  17.596  0.00  0.00    +0.000 C 
ATOM      3  C   UNL     1       4.229   3.824  16.780  0.00  0.00    +0.000 C 
ATOM      4  C   UNL     1       4.578   5.277  16.884  0.00  0.00    +0.000 C 
ATOM      5  C   UNL     1       3.849   6.168  17.576  0.00  0.00    +0.000 C 
ATOM      6  C   UNL     1       2.606   5.792  18.335  0.00  0.00    +0.000 C 
ENDROOT
BRANCH   1   8
ATOM      7  C   UNL     1       0.783   2.354  18.872  0.00  0.00    +0.000 C 
ATOM      8  C   UNL     1       1.117   3.817  19.164  0.00  0.00    +0.000 C 
ATOM      9  C   UNL     1       1.350   4.033  20.660  0.00  0.00    +0.000 C 
ENDBRANCH   1   8
BRANCH   4  10
ATOM     10  C   UNL     1       5.810   5.746  16.204  0.00  0.00    +0.000 C 
ATOM     11  N   UNL     1       6.672   4.937  15.674  0.00  0.00    +0.000 NA
BRANCH  11  12
ATOM     12  O   UNL     1       7.721   5.684  15.126  0.00  0.00    +0.000 OA
ATOM     13  H   UNL     1       8.312   5.805  15.894  0.00  0.00    +0.000 HD
ENDBRANCH  11  12
ENDBRANCH   4  10
TORSDOF 3
ENDMDL
MODEL 3
REMARK VINA RESULT:      -5.7      3.706      4.118
REMARK  Name = 
REMARK  5 active torsions:
REMARK  status: ('A' for Active; 'I' for Inactive)
REMARK    1  A    between atoms: C_1  and  C_2
REMARK    2  A    between atoms: C_2  and  C_3
REMARK    3  A    between atoms: C_2  and  C_4
REMARK    4  A    between atoms: C_7  and  C_8
REMARK    5  A    between atoms: N_9  and  O_10
REMARK                            x       y       z     vdW  Elec       q    Type
REMARK                         _______ _______ _______ _____ _____    ______ ____
ROOT
ATOM      1  C   UNL     1       1.732   4.513  19.818  0.00  0.00    +0.000 C 
ATOM      2  C   UNL     1       1.709   5.608  20.605  0.00  0.00    +0.000 C 
ATOM      3  C   UNL     1       2.025   7.002  20.129  0.00  0.00    +0.000 C 
ATOM      4  C   UNL     1       2.320   7.075  18.661  0.00  0.00    +0.000 C 
ATOM      5  C   UNL     1       2.372   5.999  17.860  0.00  0.00    +0.000 C 
ATOM      6  C   UNL     1       2.123   4.601  18.354  0.00  0.00    +0.000 C 
ENDROOT
BRANCH   1   8
ATOM      7  C   UNL     1       1.571   2.034  19.356  0.00  0.00    +0.000 C 
ATOM      8  C   UNL     1       1.336   3.151  20.375  0.00  0.00    +0.000 C 
ATOM      9  C   UNL     1       2.037   2.836  21.697  0.00  0.00    +0.000 C 
ENDBRANCH   1   8
BRANCH   4  10
ATOM     10  C   UNL     1       2.542   8.415  18.064  0.00  0.00    +0.000 C 
ATOM     11  N   UNL     1       1.603   9.300  17.952  0.00  0.00    +0.000 NA
BRANCH  11  12
ATOM     12  O   UNL     1       2.126  10.445  17.341  0.00  0.00    +0.000 OA
ATOM     13  H   UNL     1       3.044  10.174  17.146  0.00  0.00    +0.000 HD
ENDBRANCH  11  12
ENDBRANCH   4  10
TORSDOF 3
ENDMDL
MODEL 4
REMARK VINA RESULT:      -5.7      0.901      1.424
REMARK  Name = 
REMARK  5 active torsions:
REMARK  status: ('A' for Active; 'I' for Inactive)
REMARK    1  A    between atoms: C_1  and  C_2
REMARK    2  A    between atoms: C_2  and  C_3
REMARK    3  A    between atoms: C_2  and  C_4
REMARK    4  A    between atoms: C_7  and  C_8
REMARK    5  A    between atoms: N_9  and  O_10
REMARK                            x       y       z     vdW  Elec       q    Type
REMARK                         _______ _______ _______ _____ _____    ______ ____
ROOT
ATOM      1  C   UNL     1       3.298   4.564  18.969  0.00  0.00    +0.000 C 
ATOM      2  C   UNL     1       4.169   5.594  18.967  0.00  0.00    +0.000 C 
ATOM      3  C   UNL     1       5.182   5.846  17.881  0.00  0.00    +0.000 C 
ATOM      4  C   UNL     1       5.099   4.863  16.752  0.00  0.00    +0.000 C 
ATOM      5  C   UNL     1       4.258   3.817  16.740  0.00  0.00    +0.000 C 
ATOM      6  C   UNL     1       3.295   3.530  17.859  0.00  0.00    +0.000 C 
ENDROOT
BRANCH   1   8
ATOM      7  C   UNL     1       1.775   5.789  20.571  0.00  0.00    +0.000 C 
ATOM      8  C   UNL     1       2.265   4.425  20.082  0.00  0.00    +0.000 C 
ATOM      9  C   UNL     1       1.088   3.538  19.677  0.00  0.00    +0.000 C 
ENDBRANCH   1   8
BRANCH   4  10
ATOM     10  C   UNL     1       5.981   5.078  15.579  0.00  0.00    +0.000 C 
ATOM     11  N   UNL     1       7.218   5.445  15.686  0.00  0.00    +0.000 NA
BRANCH  11  12
ATOM     12  O   UNL     1       7.769   5.571  14.406  0.00  0.00    +0.000 OA
ATOM     13  H   UNL     1       7.794   4.644  14.099  0.00  0.00    +0.000 HD
ENDBRANCH  11  12
ENDBRANCH   4  10
TORSDOF 3
ENDMDL
MODEL 5
REMARK VINA RESULT:      -5.7      1.205      1.813
REMARK  Name = 
REMARK  5 active torsions:
REMARK  status: ('A' for Active; 'I' for Inactive)
REMARK    1  A    between atoms: C_1  and  C_2
REMARK    2  A    between atoms: C_2  and  C_3
REMARK    3  A    between atoms: C_2  and  C_4
REMARK    4  A    between atoms: C_7  and  C_8
REMARK    5  A    between atoms: N_9  and  O_10
REMARK                            x       y       z     vdW  Elec       q    Type
REMARK                         _______ _______ _______ _____ _____    ______ ____
ROOT
ATOM      1  C   UNL     1       3.766   4.865  17.798  0.00  0.00    +0.000 C 
ATOM      2  C   UNL     1       4.176   6.079  17.375  0.00  0.00    +0.000 C 
ATOM      3  C   UNL     1       5.184   6.299  16.278  0.00  0.00    +0.000 C 
ATOM      4  C   UNL     1       5.663   5.026  15.647  0.00  0.00    +0.000 C 
ATOM      5  C   UNL     1       5.290   3.806  16.063  0.00  0.00    +0.000 C 
ATOM      6  C   UNL     1       4.334   3.589  17.205  0.00  0.00    +0.000 C 
ENDROOT
BRANCH   1   8
ATOM      7  C   UNL     1       2.341   6.100  19.481  0.00  0.00    +0.000 C 
ATOM      8  C   UNL     1       2.693   4.740  18.874  0.00  0.00    +0.000 C 
ATOM      9  C   UNL     1       1.438   4.031  18.365  0.00  0.00    +0.000 C 
ENDBRANCH   1   8
BRANCH   4  10
ATOM     10  C   UNL     1       6.579   5.130  14.485  0.00  0.00    +0.000 C 
ATOM     11  N   UNL     1       7.805   5.534  14.591  0.00  0.00    +0.000 NA
BRANCH  11  12
ATOM     12  O   UNL     1       8.397   5.530  13.323  0.00  0.00    +0.000 OA
ATOM     13  H   UNL     1       9.260   5.108  13.499  0.00  0.00    +0.000 HD
ENDBRANCH  11  12
ENDBRANCH   4  10
TORSDOF 3
ENDMDL
MODEL 6
REMARK VINA RESULT:      -5.7      0.638      1.890
REMARK  Name = 
REMARK  5 active torsions:
REMARK  status: ('A' for Active; 'I' for Inactive)
REMARK    1  A    between atoms: C_1  and  C_2
REMARK    2  A    between atoms: C_2  and  C_3
REMARK    3  A    between atoms: C_2  and  C_4
REMARK    4  A    between atoms: C_7  and  C_8
REMARK    5  A    between atoms: N_9  and  O_10
REMARK                            x       y       z     vdW  Elec       q    Type
REMARK                         _______ _______ _______ _____ _____    ______ ____
ROOT
ATOM      1  C   UNL     1       3.125   4.467  18.727  0.00  0.00    +0.000 C 
ATOM      2  C   UNL     1       3.589   3.503  17.906  0.00  0.00    +0.000 C 
ATOM      3  C   UNL     1       4.520   3.752  16.747  0.00  0.00    +0.000 C 
ATOM      4  C   UNL     1       4.936   5.185  16.617  0.00  0.00    +0.000 C 
ATOM      5  C   UNL     1       4.472   6.167  17.406  0.00  0.00    +0.000 C 
ATOM      6  C   UNL     1       3.490   5.925  18.519  0.00  0.00    +0.000 C 
ENDROOT
BRANCH   1   8
ATOM      7  C   UNL     1       1.725   5.362  20.630  0.00  0.00    +0.000 C 
ATOM      8  C   UNL     1       2.236   4.112  19.913  0.00  0.00    +0.000 C 
ATOM      9  C   UNL     1       1.075   3.199  19.518  0.00  0.00    +0.000 C 
ENDBRANCH   1   8
BRANCH   4  10
ATOM     10  C   UNL     1       5.934   5.526  15.574  0.00  0.00    +0.000 C 
ATOM     11  N   UNL     1       7.121   5.010  15.540  0.00  0.00    +0.000 NA
BRANCH  11  12
ATOM     12  O   UNL     1       7.819   5.540  14.449  0.00  0.00    +0.000 OA
ATOM     13  H   UNL     1       8.731   5.595  14.794  0.00  0.00    +0.000 HD
ENDBRANCH  11  12
ENDBRANCH   4  10
TORSDOF 3
ENDMDL
MODEL 7
REMARK VINA RESULT:      -5.6      1.153      1.201
REMARK  Name = 
REMARK  5 active torsions:
REMARK  status: ('A' for Active; 'I' for Inactive)
REMARK    1  A    between atoms: C_1  and  C_2
REMARK    2  A    between atoms: C_2  and  C_3
REMARK    3  A    between atoms: C_2  and  C_4
REMARK    4  A    between atoms: C_7  and  C_8
REMARK    5  A    between atoms: N_9  and  O_10
REMARK                            x       y       z     vdW  Elec       q    Type
REMARK                         _______ _______ _______ _____ _____    ______ ____
ROOT
ATOM      1  C   UNL     1       2.972   3.989  18.853  0.00  0.00    +0.000 C 
ATOM      2  C   UNL     1       4.130   4.315  19.463  0.00  0.00    +0.000 C 
ATOM      3  C   UNL     1       5.439   4.515  18.745  0.00  0.00    +0.000 C 
ATOM      4  C   UNL     1       5.329   4.370  17.258  0.00  0.00    +0.000 C 
ATOM      5  C   UNL     1       4.195   4.024  16.627  0.00  0.00    +0.000 C 
ATOM      6  C   UNL     1       2.906   3.759  17.355  0.00  0.00    +0.000 C 
ENDROOT
BRANCH   1   8
ATOM      7  C   UNL     1       0.837   2.680  19.191  0.00  0.00    +0.000 C 
ATOM      8  C   UNL     1       1.681   3.868  19.655  0.00  0.00    +0.000 C 
ATOM      9  C   UNL     1       1.935   3.800  21.161  0.00  0.00    +0.000 C 
ENDBRANCH   1   8
BRANCH   4  10
ATOM     10  C   UNL     1       6.536   4.649  16.442  0.00  0.00    +0.000 C 
ATOM     11  N   UNL     1       6.516   5.407  15.392  0.00  0.00    +0.000 NA
BRANCH  11  12
ATOM     12  O   UNL     1       7.802   5.461  14.843  0.00  0.00    +0.000 OA
ATOM     13  H   UNL     1       7.642   5.194  13.917  0.00  0.00    +0.000 HD
ENDBRANCH  11  12
ENDBRANCH   4  10
TORSDOF 3
ENDMDL
MODEL 8
REMARK VINA RESULT:      -5.6      1.279      1.581
REMARK  Name = 
REMARK  5 active torsions:
REMARK  status: ('A' for Active; 'I' for Inactive)
REMARK    1  A    between atoms: C_1  and  C_2
REMARK    2  A    between atoms: C_2  and  C_3
REMARK    3  A    between atoms: C_2  and  C_4
REMARK    4  A    between atoms: C_7  and  C_8
REMARK    5  A    between atoms: N_9  and  O_10
REMARK                            x       y       z     vdW  Elec       q    Type
REMARK                         _______ _______ _______ _____ _____    ______ ____
ROOT
ATOM      1  C   UNL     1       3.298   5.512  18.270  0.00  0.00    +0.000 C 
ATOM      2  C   UNL     1       3.880   6.632  17.795  0.00  0.00    +0.000 C 
ATOM      3  C   UNL     1       4.915   6.651  16.700  0.00  0.00    +0.000 C 
ATOM      4  C   UNL     1       5.207   5.293  16.135  0.00  0.00    +0.000 C 
ATOM      5  C   UNL     1       4.660   4.161  16.605  0.00  0.00    +0.000 C 
ATOM      6  C   UNL     1       3.678   4.140  17.744  0.00  0.00    +0.000 C 
ENDROOT
BRANCH   1   8
ATOM      7  C   UNL     1       2.399   4.527  20.416  0.00  0.00    +0.000 C 
ATOM      8  C   UNL     1       2.213   5.596  19.338  0.00  0.00    +0.000 C 
ATOM      9  C   UNL     1       2.117   6.988  19.962  0.00  0.00    +0.000 C 
ENDBRANCH   1   8
BRANCH   4  10
ATOM     10  C   UNL     1       6.134   5.207  14.981  0.00  0.00    +0.000 C 
ATOM     11  N   UNL     1       7.369   5.592  15.040  0.00  0.00    +0.000 NA
BRANCH  11  12
ATOM     12  O   UNL     1       7.970   5.392  13.792  0.00  0.00    +0.000 OA
ATOM     13  H   UNL     1       7.612   6.135  13.269  0.00  0.00    +0.000 HD
ENDBRANCH  11  12
ENDBRANCH   4  10
TORSDOF 3
ENDMDL
MODEL 9
REMARK VINA RESULT:      -5.6      3.585      4.130
REMARK  Name = 
REMARK  5 active torsions:
REMARK  status: ('A' for Active; 'I' for Inactive)
REMARK    1  A    between atoms: C_1  and  C_2
REMARK    2  A    between atoms: C_2  and  C_3
REMARK    3  A    between atoms: C_2  and  C_4
REMARK    4  A    between atoms: C_7  and  C_8
REMARK    5  A    between atoms: N_9  and  O_10
REMARK                            x       y       z     vdW  Elec       q    Type
REMARK                         _______ _______ _______ _____ _____    ______ ____
ROOT
ATOM      1  C   UNL     1       2.114   4.347  19.526  0.00  0.00    +0.000 C 
ATOM      2  C   UNL     1       1.874   5.370  20.372  0.00  0.00    +0.000 C 
ATOM      3  C   UNL     1       2.059   6.823  20.021  0.00  0.00    +0.000 C 
ATOM      4  C   UNL     1       2.490   7.041  18.602  0.00  0.00    +0.000 C 
ATOM      5  C   UNL     1       2.757   6.041  17.746  0.00  0.00    +0.000 C 
ATOM      6  C   UNL     1       2.636   4.590  18.122  0.00  0.00    +0.000 C 
ENDROOT
BRANCH   1   8
ATOM      7  C   UNL     1       1.362   2.830  21.402  0.00  0.00    +0.000 C 
ATOM      8  C   UNL     1       1.838   2.910  19.950  0.00  0.00    +0.000 C 
ATOM      9  C   UNL     1       0.854   2.205  19.016  0.00  0.00    +0.000 C 
ENDBRANCH   1   8
BRANCH   4  10
ATOM     10  C   UNL     1       2.601   8.438  18.116  0.00  0.00    +0.000 C 
ATOM     11  N   UNL     1       1.569   9.175  17.851  0.00  0.00    +0.000 NA
BRANCH  11  12
ATOM     12  O   UNL     1       2.006  10.427  17.406  0.00  0.00    +0.000 OA
ATOM     13  H   UNL     1       2.367  10.219  16.523  0.00  0.00    +0.000 HD
ENDBRANCH  11  12
ENDBRANCH   4  10
TORSDOF 3
ENDMDL
