MODEL 1
REMARK VINA RESULT:      -7.4      0.000      0.000
REMARK  Name = 
REMARK  6 active torsions:
REMARK  status: ('A' for Active; 'I' for Inactive)
REMARK    1  A    between atoms: C_2  and  C_3
REMARK    2  A    between atoms: C_2  and  C_10
REMARK    3  A    between atoms: C_6  and  O_7
REMARK    4  A    between atoms: C_11  and  O_12
REMARK    5  A    between atoms: N_13  and  C_14
REMARK    6  A    between atoms: N_21  and  C_22
REMARK                            x       y       z     vdW  Elec       q    Type
REMARK                         _______ _______ _______ _____ _____    ______ ____
ROOT
ATOM      1  C   UNL     1      -1.296  12.133  21.662  0.00  0.00    +0.000 A 
ATOM      2  C   UNL     1      -0.487  11.068  21.533  0.00  0.00    +0.000 A 
ATOM      3  N   UNL     1      -0.544  10.482  20.265  0.00  0.00    +0.000 N 
ATOM      4  N   UNL     1      -1.349  11.336  19.480  0.00  0.00    +0.000 N 
ATOM      5  C   UNL     1      -1.940  12.274  20.341  0.00  0.00    +0.000 A 
ATOM      6  O   UNL     1      -2.855  13.047  20.107  0.00  0.00    +0.000 OA
ENDROOT
BRANCH   3   7
ATOM      7  C   UNL     1       0.512   9.722  19.660  0.00  0.00    +0.000 A 
ATOM      8  C   UNL     1       1.007   8.560  20.286  0.00  0.00    +0.000 A 
ATOM      9  C   UNL     1       1.988   7.751  19.690  0.00  0.00    +0.000 A 
ATOM     10  C   UNL     1       2.478   8.071  18.432  0.00  0.00    +0.000 A 
ATOM     11 CL   UNL     1       3.659   7.071  17.681  0.00  0.00    +0.000 Cl
ATOM     12  C   UNL     1       2.013   9.202  17.778  0.00  0.00    +0.000 A 
ATOM     13  C   UNL     1       1.064  10.028  18.400  0.00  0.00    +0.000 A 
ENDBRANCH   3   7
BRANCH   4  14
ATOM     14  C   UNL     1      -2.024  10.959  18.296  0.00  0.00    +0.000 A 
ATOM     15  C   UNL     1      -1.940  11.829  17.196  0.00  0.00    +0.000 A 
ATOM     16  C   UNL     1      -2.486  11.475  15.964  0.00  0.00    +0.000 A 
ATOM     17  C   UNL     1      -3.144  10.256  15.835  0.00  0.00    +0.000 A 
ATOM     18 CL   UNL     1      -3.808   9.809  14.313  0.00  0.00    +0.000 Cl
ATOM     19  C   UNL     1      -3.257   9.392  16.925  0.00  0.00    +0.000 A 
ATOM     20  C   UNL     1      -2.696   9.740  18.157  0.00  0.00    +0.000 A 
ENDBRANCH   4  14
BRANCH   1  22
ATOM     21  O   UNL     1      -0.504  13.328  23.514  0.00  0.00    +0.000 OA
ATOM     22  C   UNL     1      -1.483  12.947  22.870  0.00  0.00    +0.000 C 
BRANCH  22  23
ATOM     23  C   UNL     1      -2.856  13.341  23.284  0.00  0.00    +0.000 A 
ATOM     24  C   UNL     1      -3.291  14.668  23.156  0.00  0.00    +0.000 A 
ATOM     25  C   UNL     1      -4.582  15.029  23.543  0.00  0.00    +0.000 A 
ATOM     26  C   UNL     1      -5.423  14.072  24.096  0.00  0.00    +0.000 A 
ATOM     27  C   UNL     1      -4.995  12.758  24.263  0.00  0.00    +0.000 A 
ATOM     28  C   UNL     1      -3.706  12.388  23.859  0.00  0.00    +0.000 A 
BRANCH  26  29
ATOM     29  O   UNL     1      -6.686  14.392  24.496  0.00  0.00    +0.000 OA
ATOM     30  H   UNL     1      -7.137  14.860  23.774  0.00  0.00    +0.000 HD
ENDBRANCH  26  29
ENDBRANCH  22  23
ENDBRANCH   1  22
BRANCH   2  31
ATOM     31  O   UNL     1       0.361  10.623  22.524  0.00  0.00    +0.000 OA
ATOM     32  H   UNL     1      -0.064   9.859  22.972  0.00  0.00    +0.000 HD
ENDBRANCH   2  31
TORSDOF 6
ENDMDL
MODEL 2
REMARK VINA RESULT:      -7.4      2.885      4.312
REMARK  Name = 
REMARK  6 active torsions:
REMARK  status: ('A' for Active; 'I' for Inactive)
REMARK    1  A    between atoms: C_2  and  C_3
REMARK    2  A    between atoms: C_2  and  C_10
REMARK    3  A    between atoms: C_6  and  O_7
REMARK    4  A    between atoms: C_11  and  O_12
REMARK    5  A    between atoms: N_13  and  C_14
REMARK    6  A    between atoms: N_21  and  C_22
REMARK                            x       y       z     vdW  Elec       q    Type
REMARK                         _______ _______ _______ _____ _____    ______ ____
ROOT
ATOM      1  C   UNL     1      -2.160  12.073  19.411  0.00  0.00    +0.000 A 
ATOM      2  C   UNL     1      -1.562  10.966  18.940  0.00  0.00    +0.000 A 
ATOM      3  N   UNL     1      -0.166  11.040  18.963  0.00  0.00    +0.000 N 
ATOM      4  N   UNL     1       0.146  12.240  19.640  0.00  0.00    +0.000 N 
ATOM      5  C   UNL     1      -1.048  12.961  19.800  0.00  0.00    +0.000 A 
ATOM      6  O   UNL     1      -1.189  14.125  20.139  0.00  0.00    +0.000 OA
ENDROOT
BRANCH   3   7
ATOM      7  C   UNL     1       0.718   9.913  19.037  0.00  0.00    +0.000 A 
ATOM      8  C   UNL     1       0.879   9.207  20.246  0.00  0.00    +0.000 A 
ATOM      9  C   UNL     1       1.679   8.057  20.338  0.00  0.00    +0.000 A 
ATOM     10  C   UNL     1       2.316   7.564  19.208  0.00  0.00    +0.000 A 
ATOM     11 CL   UNL     1       3.275   6.140  19.304  0.00  0.00    +0.000 Cl
ATOM     12  C   UNL     1       2.178   8.225  17.996  0.00  0.00    +0.000 A 
ATOM     13  C   UNL     1       1.412   9.398  17.923  0.00  0.00    +0.000 A 
ENDBRANCH   3   7
BRANCH   4  14
ATOM     14  C   UNL     1       1.372  12.938  19.539  0.00  0.00    +0.000 A 
ATOM     15  C   UNL     1       1.774  13.362  18.262  0.00  0.00    +0.000 A 
ATOM     16  C   UNL     1       2.911  14.150  18.098  0.00  0.00    +0.000 A 
ATOM     17  C   UNL     1       3.669  14.493  19.213  0.00  0.00    +0.000 A 
ATOM     18 CL   UNL     1       5.068  15.476  19.017  0.00  0.00    +0.000 Cl
ATOM     19  C   UNL     1       3.296  14.058  20.485  0.00  0.00    +0.000 A 
ATOM     20  C   UNL     1       2.145  13.282  20.652  0.00  0.00    +0.000 A 
ENDBRANCH   4  14
BRANCH   1  22
ATOM     21  O   UNL     1      -4.302  12.256  18.481  0.00  0.00    +0.000 OA
ATOM     22  C   UNL     1      -3.606  12.316  19.496  0.00  0.00    +0.000 C 
BRANCH  22  23
ATOM     23  C   UNL     1      -4.227  12.592  20.819  0.00  0.00    +0.000 A 
ATOM     24  C   UNL     1      -3.460  12.558  21.993  0.00  0.00    +0.000 A 
ATOM     25  C   UNL     1      -4.050  12.823  23.230  0.00  0.00    +0.000 A 
ATOM     26  C   UNL     1      -5.413  13.080  23.296  0.00  0.00    +0.000 A 
ATOM     27  C   UNL     1      -6.195  13.083  22.145  0.00  0.00    +0.000 A 
ATOM     28  C   UNL     1      -5.604  12.836  20.901  0.00  0.00    +0.000 A 
BRANCH  26  29
ATOM     29  O   UNL     1      -6.024  13.331  24.489  0.00  0.00    +0.000 OA
ATOM     30  H   UNL     1      -6.696  12.648  24.650  0.00  0.00    +0.000 HD
ENDBRANCH  26  29
ENDBRANCH  22  23
ENDBRANCH   1  22
BRANCH   2  31
ATOM     31  O   UNL     1      -2.243   9.842  18.527  0.00  0.00    +0.000 OA
ATOM     32  H   UNL     1      -1.641   9.307  17.964  0.00  0.00    +0.000 HD
ENDBRANCH   2  31
TORSDOF 6
ENDMDL
MODEL 3
REMARK VINA RESULT:      -7.3      0.197      1.263
REMARK  Name = 
REMARK  6 active torsions:
REMARK  status: ('A' for Active; 'I' for Inactive)
REMARK    1  A    between atoms: C_2  and  C_3
REMARK    2  A    between atoms: C_2  and  C_10
REMARK    3  A    between atoms: C_6  and  O_7
REMARK    4  A    between atoms: C_11  and  O_12
REMARK    5  A    between atoms: N_13  and  C_14
REMARK    6  A    between atoms: N_21  and  C_22
REMARK                            x       y       z     vdW  Elec       q    Type
REMARK                         _______ _______ _______ _____ _____    ______ ____
ROOT
ATOM      1  C   UNL     1      -1.181  12.102  21.646  0.00  0.00    +0.000 A 
ATOM      2  C   UNL     1      -0.417  11.001  21.546  0.00  0.00    +0.000 A 
ATOM      3  N   UNL     1      -0.441  10.426  20.272  0.00  0.00    +0.000 N 
ATOM      4  N   UNL     1      -1.169  11.320  19.457  0.00  0.00    +0.000 N 
ATOM      5  C   UNL     1      -1.755  12.281  20.298  0.00  0.00    +0.000 A 
ATOM      6  O   UNL     1      -2.622  13.096  20.027  0.00  0.00    +0.000 OA
ENDROOT
BRANCH   3   7
ATOM      7  C   UNL     1       0.607   9.621  19.711  0.00  0.00    +0.000 A 
ATOM      8  C   UNL     1       1.065   8.471  20.385  0.00  0.00    +0.000 A 
ATOM      9  C   UNL     1       2.035   7.620  19.833  0.00  0.00    +0.000 A 
ATOM     10  C   UNL     1       2.552   7.884  18.572  0.00  0.00    +0.000 A 
ATOM     11 CL   UNL     1       3.720   6.832  17.876  0.00  0.00    +0.000 Cl
ATOM     12  C   UNL     1       2.123   9.001  17.872  0.00  0.00    +0.000 A 
ATOM     13  C   UNL     1       1.184   9.870  18.450  0.00  0.00    +0.000 A 
ENDBRANCH   3   7
BRANCH   4  14
ATOM     14  C   UNL     1      -1.804  10.982  18.240  0.00  0.00    +0.000 A 
ATOM     15  C   UNL     1      -2.574   9.808  18.214  0.00  0.00    +0.000 A 
ATOM     16  C   UNL     1      -3.318   9.467  17.087  0.00  0.00    +0.000 A 
ATOM     17  C   UNL     1      -3.272  10.290  15.966  0.00  0.00    +0.000 A 
ATOM     18 CL   UNL     1      -4.199   9.882  14.575  0.00  0.00    +0.000 Cl
ATOM     19  C   UNL     1      -2.492  11.448  15.968  0.00  0.00    +0.000 A 
ATOM     20  C   UNL     1      -1.759  11.798  17.105  0.00  0.00    +0.000 A 
ENDBRANCH   4  14
BRANCH   1  22
ATOM     21  O   UNL     1      -0.416  13.337  23.483  0.00  0.00    +0.000 OA
ATOM     22  C   UNL     1      -1.386  12.917  22.849  0.00  0.00    +0.000 C 
BRANCH  22  23
ATOM     23  C   UNL     1      -2.769  13.265  23.272  0.00  0.00    +0.000 A 
ATOM     24  C   UNL     1      -3.592  12.313  23.890  0.00  0.00    +0.000 A 
ATOM     25  C   UNL     1      -4.887  12.649  24.288  0.00  0.00    +0.000 A 
ATOM     26  C   UNL     1      -5.372  13.925  24.030  0.00  0.00    +0.000 A 
ATOM     27  C   UNL     1      -4.581  14.871  23.386  0.00  0.00    +0.000 A 
ATOM     28  C   UNL     1      -3.275  14.543  23.002  0.00  0.00    +0.000 A 
BRANCH  26  29
ATOM     29  O   UNL     1      -6.636  14.284  24.394  0.00  0.00    +0.000 OA
ATOM     30  H   UNL     1      -6.619  14.618  25.306  0.00  0.00    +0.000 HD
ENDBRANCH  26  29
ENDBRANCH  22  23
ENDBRANCH   1  22
BRANCH   2  31
ATOM     31  O   UNL     1       0.363  10.513  22.571  0.00  0.00    +0.000 OA
ATOM     32  H   UNL     1      -0.225  10.053  23.211  0.00  0.00    +0.000 HD
ENDBRANCH   2  31
TORSDOF 6
ENDMDL
MODEL 4
REMARK VINA RESULT:      -7.3      0.668      4.312
REMARK  Name = 
REMARK  6 active torsions:
REMARK  status: ('A' for Active; 'I' for Inactive)
REMARK    1  A    between atoms: C_2  and  C_3
REMARK    2  A    between atoms: C_2  and  C_10
REMARK    3  A    between atoms: C_6  and  O_7
REMARK    4  A    between atoms: C_11  and  O_12
REMARK    5  A    between atoms: N_13  and  C_14
REMARK    6  A    between atoms: N_21  and  C_22
REMARK                            x       y       z     vdW  Elec       q    Type
REMARK                         _______ _______ _______ _____ _____    ______ ____
ROOT
ATOM      1  C   UNL     1      -1.451  12.355  21.931  0.00  0.00    +0.000 A 
ATOM      2  C   UNL     1      -1.781  12.514  20.638  0.00  0.00    +0.000 A 
ATOM      3  N   UNL     1      -1.259  11.518  19.808  0.00  0.00    +0.000 N 
ATOM      4  N   UNL     1      -0.667  10.568  20.669  0.00  0.00    +0.000 N 
ATOM      5  C   UNL     1      -0.642  11.120  21.960  0.00  0.00    +0.000 A 
ATOM      6  O   UNL     1      -0.035  10.724  22.942  0.00  0.00    +0.000 OA
ENDROOT
BRANCH   3   7
ATOM      7  C   UNL     1      -1.824  11.109  18.554  0.00  0.00    +0.000 A 
ATOM      8  C   UNL     1      -2.626   9.953  18.474  0.00  0.00    +0.000 A 
ATOM      9  C   UNL     1      -3.255   9.562  17.281  0.00  0.00    +0.000 A 
ATOM     10  C   UNL     1      -3.121  10.341  16.140  0.00  0.00    +0.000 A 
ATOM     11 CL   UNL     1      -3.911   9.887  14.682  0.00  0.00    +0.000 Cl
ATOM     12  C   UNL     1      -2.347  11.491  16.178  0.00  0.00    +0.000 A 
ATOM     13  C   UNL     1      -1.687  11.850  17.364  0.00  0.00    +0.000 A 
ENDBRANCH   3   7
BRANCH   4  14
ATOM     14  C   UNL     1       0.328   9.635  20.294  0.00  0.00    +0.000 A 
ATOM     15  C   UNL     1       0.553   8.546  21.152  0.00  0.00    +0.000 A 
ATOM     16  C   UNL     1       1.437   7.530  20.797  0.00  0.00    +0.000 A 
ATOM     17  C   UNL     1       2.122   7.614  19.589  0.00  0.00    +0.000 A 
ATOM     18 CL   UNL     1       3.205   6.355  19.140  0.00  0.00    +0.000 Cl
ATOM     19  C   UNL     1       1.927   8.701  18.737  0.00  0.00    +0.000 A 
ATOM     20  C   UNL     1       1.028   9.713  19.086  0.00  0.00    +0.000 A 
ENDBRANCH   4  14
BRANCH   1  22
ATOM     21  O   UNL     1      -0.956  13.902  23.618  0.00  0.00    +0.000 OA
ATOM     22  C   UNL     1      -1.821  13.239  23.043  0.00  0.00    +0.000 C 
BRANCH  22  23
ATOM     23  C   UNL     1      -3.249  13.360  23.440  0.00  0.00    +0.000 A 
ATOM     24  C   UNL     1      -3.997  14.495  23.094  0.00  0.00    +0.000 A 
ATOM     25  C   UNL     1      -5.338  14.600  23.467  0.00  0.00    +0.000 A 
ATOM     26  C   UNL     1      -5.918  13.588  24.221  0.00  0.00    +0.000 A 
ATOM     27  C   UNL     1      -5.181  12.471  24.603  0.00  0.00    +0.000 A 
ATOM     28  C   UNL     1      -3.840  12.355  24.216  0.00  0.00    +0.000 A 
BRANCH  26  29
ATOM     29  O   UNL     1      -7.222  13.662  24.613  0.00  0.00    +0.000 OA
ATOM     30  H   UNL     1      -7.531  14.578  24.509  0.00  0.00    +0.000 HD
ENDBRANCH  26  29
ENDBRANCH  22  23
ENDBRANCH   1  22
BRANCH   2  31
ATOM     31  O   UNL     1      -2.601  13.520  20.174  0.00  0.00    +0.000 OA
ATOM     32  H   UNL     1      -3.519  13.326  20.465  0.00  0.00    +0.000 HD
ENDBRANCH   2  31
TORSDOF 6
ENDMDL
MODEL 5
REMARK VINA RESULT:      -7.2      3.232      5.278
REMARK  Name = 
REMARK  6 active torsions:
REMARK  status: ('A' for Active; 'I' for Inactive)
REMARK    1  A    between atoms: C_2  and  C_3
REMARK    2  A    between atoms: C_2  and  C_10
REMARK    3  A    between atoms: C_6  and  O_7
REMARK    4  A    between atoms: C_11  and  O_12
REMARK    5  A    between atoms: N_13  and  C_14
REMARK    6  A    between atoms: N_21  and  C_22
REMARK                            x       y       z     vdW  Elec       q    Type
REMARK                         _______ _______ _______ _____ _____    ______ ____
ROOT
ATOM      1  C   UNL     1      -2.509  11.516  18.312  0.00  0.00    +0.000 A 
ATOM      2  C   UNL     1      -1.752  12.386  19.002  0.00  0.00    +0.000 A 
ATOM      3  N   UNL     1      -0.450  11.929  19.226  0.00  0.00    +0.000 N 
ATOM      4  N   UNL     1      -0.330  10.728  18.492  0.00  0.00    +0.000 N 
ATOM      5  C   UNL     1      -1.612  10.376  18.040  0.00  0.00    +0.000 A 
ATOM      6  O   UNL     1      -1.981   9.318  17.557  0.00  0.00    +0.000 OA
ENDROOT
BRANCH   3   7
ATOM      7  C   UNL     1       0.694  12.768  19.437  0.00  0.00    +0.000 A 
ATOM      8  C   UNL     1       1.360  12.772  20.679  0.00  0.00    +0.000 A 
ATOM      9  C   UNL     1       2.525  13.525  20.899  0.00  0.00    +0.000 A 
ATOM     10  C   UNL     1       3.072  14.272  19.865  0.00  0.00    +0.000 A 
ATOM     11 CL   UNL     1       4.514  15.175  20.116  0.00  0.00    +0.000 Cl
ATOM     12  C   UNL     1       2.452  14.290  18.625  0.00  0.00    +0.000 A 
ATOM     13  C   UNL     1       1.264  13.569  18.427  0.00  0.00    +0.000 A 
ENDBRANCH   3   7
BRANCH   4  14
ATOM     14  C   UNL     1       0.622   9.713  18.739  0.00  0.00    +0.000 A 
ATOM     15  C   UNL     1       0.680   9.179  20.037  0.00  0.00    +0.000 A 
ATOM     16  C   UNL     1       1.514   8.102  20.329  0.00  0.00    +0.000 A 
ATOM     17  C   UNL     1       2.317   7.571  19.325  0.00  0.00    +0.000 A 
ATOM     18 CL   UNL     1       3.340   6.233  19.677  0.00  0.00    +0.000 Cl
ATOM     19  C   UNL     1       2.289   8.106  18.037  0.00  0.00    +0.000 A 
ATOM     20  C   UNL     1       1.439   9.176  17.740  0.00  0.00    +0.000 A 
ENDBRANCH   4  14
BRANCH   1  22
ATOM     21  O   UNL     1      -4.223  11.907  16.764  0.00  0.00    +0.000 OA
ATOM     22  C   UNL     1      -3.918  11.689  17.939  0.00  0.00    +0.000 C 
BRANCH  22  23
ATOM     23  C   UNL     1      -4.974  11.559  18.978  0.00  0.00    +0.000 A 
ATOM     24  C   UNL     1      -6.043  10.667  18.807  0.00  0.00    +0.000 A 
ATOM     25  C   UNL     1      -7.028  10.547  19.789  0.00  0.00    +0.000 A 
ATOM     26  C   UNL     1      -6.965  11.350  20.921  0.00  0.00    +0.000 A 
ATOM     27  C   UNL     1      -5.931  12.265  21.090  0.00  0.00    +0.000 A 
ATOM     28  C   UNL     1      -4.931  12.375  20.115  0.00  0.00    +0.000 A 
BRANCH  26  29
ATOM     29  O   UNL     1      -7.916  11.268  21.895  0.00  0.00    +0.000 OA
ATOM     30  H   UNL     1      -7.646  11.821  22.647  0.00  0.00    +0.000 HD
ENDBRANCH  26  29
ENDBRANCH  22  23
ENDBRANCH   1  22
BRANCH   2  31
ATOM     31  O   UNL     1      -2.185  13.632  19.401  0.00  0.00    +0.000 OA
ATOM     32  H   UNL     1      -2.193  14.221  18.615  0.00  0.00    +0.000 HD
ENDBRANCH   2  31
TORSDOF 6
ENDMDL
MODEL 6
REMARK VINA RESULT:      -7.1      0.266      4.395
REMARK  Name = 
REMARK  6 active torsions:
REMARK  status: ('A' for Active; 'I' for Inactive)
REMARK    1  A    between atoms: C_2  and  C_3
REMARK    2  A    between atoms: C_2  and  C_10
REMARK    3  A    between atoms: C_6  and  O_7
REMARK    4  A    between atoms: C_11  and  O_12
REMARK    5  A    between atoms: N_13  and  C_14
REMARK    6  A    between atoms: N_21  and  C_22
REMARK                            x       y       z     vdW  Elec       q    Type
REMARK                         _______ _______ _______ _____ _____    ______ ____
ROOT
ATOM      1  C   UNL     1      -1.067  12.302  21.641  0.00  0.00    +0.000 A 
ATOM      2  C   UNL     1      -1.609  12.472  20.424  0.00  0.00    +0.000 A 
ATOM      3  N   UNL     1      -1.159  11.541  19.484  0.00  0.00    +0.000 N 
ATOM      4  N   UNL     1      -0.373  10.613  20.203  0.00  0.00    +0.000 N 
ATOM      5  C   UNL     1      -0.181  11.130  21.494  0.00  0.00    +0.000 A 
ATOM      6  O   UNL     1       0.600  10.753  22.353  0.00  0.00    +0.000 OA
ENDROOT
BRANCH   3   7
ATOM      7  C   UNL     1      -1.888  11.126  18.319  0.00  0.00    +0.000 A 
ATOM      8  C   UNL     1      -1.869  11.908  17.147  0.00  0.00    +0.000 A 
ATOM      9  C   UNL     1      -2.510  11.498  15.967  0.00  0.00    +0.000 A 
ATOM     10  C   UNL     1      -3.163  10.274  15.922  0.00  0.00    +0.000 A 
ATOM     11 CL   UNL     1      -3.927   9.751  14.473  0.00  0.00    +0.000 Cl
ATOM     12  C   UNL     1      -3.199   9.471  17.052  0.00  0.00    +0.000 A 
ATOM     13  C   UNL     1      -2.592   9.908  18.240  0.00  0.00    +0.000 A 
ENDBRANCH   3   7
BRANCH   4  14
ATOM     14  C   UNL     1       0.610   9.767  19.640  0.00  0.00    +0.000 A 
ATOM     15  C   UNL     1       1.017   8.654  20.394  0.00  0.00    +0.000 A 
ATOM     16  C   UNL     1       1.899   7.716  19.862  0.00  0.00    +0.000 A 
ATOM     17  C   UNL     1       2.399   7.904  18.578  0.00  0.00    +0.000 A 
ATOM     18 CL   UNL     1       3.479   6.742  17.910  0.00  0.00    +0.000 Cl
ATOM     19  C   UNL     1       2.023   9.018  17.825  0.00  0.00    +0.000 A 
ATOM     20  C   UNL     1       1.126   9.950  18.354  0.00  0.00    +0.000 A 
ENDBRANCH   4  14
BRANCH   1  22
ATOM     21  O   UNL     1      -0.372  13.664  23.415  0.00  0.00    +0.000 OA
ATOM     22  C   UNL     1      -1.314  13.126  22.831  0.00  0.00    +0.000 C 
BRANCH  22  23
ATOM     23  C   UNL     1      -2.710  13.338  23.299  0.00  0.00    +0.000 A 
ATOM     24  C   UNL     1      -3.459  12.277  23.827  0.00  0.00    +0.000 A 
ATOM     25  C   UNL     1      -4.767  12.486  24.267  0.00  0.00    +0.000 A 
ATOM     26  C   UNL     1      -5.338  13.746  24.141  0.00  0.00    +0.000 A 
ATOM     27  C   UNL     1      -4.621  14.801  23.586  0.00  0.00    +0.000 A 
ATOM     28  C   UNL     1      -3.302  14.600  23.160  0.00  0.00    +0.000 A 
BRANCH  26  29
ATOM     29  O   UNL     1      -6.617  13.983  24.550  0.00  0.00    +0.000 OA
ATOM     30  H   UNL     1      -6.600  14.327  25.459  0.00  0.00    +0.000 HD
ENDBRANCH  26  29
ENDBRANCH  22  23
ENDBRANCH   1  22
BRANCH   2  31
ATOM     31  O   UNL     1      -2.559  13.427  20.133  0.00  0.00    +0.000 OA
ATOM     32  H   UNL     1      -2.977  13.193  19.275  0.00  0.00    +0.000 HD
ENDBRANCH   2  31
TORSDOF 6
ENDMDL
MODEL 7
REMARK VINA RESULT:      -7.1      3.097      4.649
REMARK  Name = 
REMARK  6 active torsions:
REMARK  status: ('A' for Active; 'I' for Inactive)
REMARK    1  A    between atoms: C_2  and  C_3
REMARK    2  A    between atoms: C_2  and  C_10
REMARK    3  A    between atoms: C_6  and  O_7
REMARK    4  A    between atoms: C_11  and  O_12
REMARK    5  A    between atoms: N_13  and  C_14
REMARK    6  A    between atoms: N_21  and  C_22
REMARK                            x       y       z     vdW  Elec       q    Type
REMARK                         _______ _______ _______ _____ _____    ______ ____
ROOT
ATOM      1  C   UNL     1      -2.165  11.731  18.526  0.00  0.00    +0.000 A 
ATOM      2  C   UNL     1      -1.443  10.648  18.193  0.00  0.00    +0.000 A 
ATOM      3  N   UNL     1      -0.089  10.763  18.522  0.00  0.00    +0.000 N 
ATOM      4  N   UNL     1       0.029  11.964  19.256  0.00  0.00    +0.000 N 
ATOM      5  C   UNL     1      -1.193  12.648  19.153  0.00  0.00    +0.000 A 
ATOM      6  O   UNL     1      -1.442  13.803  19.458  0.00  0.00    +0.000 OA
ENDROOT
BRANCH   3   7
ATOM      7  C   UNL     1       0.793   9.662  18.783  0.00  0.00    +0.000 A 
ATOM      8  C   UNL     1       0.867   9.094  20.071  0.00  0.00    +0.000 A 
ATOM      9  C   UNL     1       1.663   7.971  20.347  0.00  0.00    +0.000 A 
ATOM     10  C   UNL     1       2.385   7.367  19.327  0.00  0.00    +0.000 A 
ATOM     11 CL   UNL     1       3.341   5.974  19.649  0.00  0.00    +0.000 Cl
ATOM     12  C   UNL     1       2.335   7.890  18.044  0.00  0.00    +0.000 A 
ATOM     13  C   UNL     1       1.570   9.039  17.787  0.00  0.00    +0.000 A 
ENDBRANCH   3   7
BRANCH   4  14
ATOM     14  C   UNL     1       1.224  12.699  19.430  0.00  0.00    +0.000 A 
ATOM     15  C   UNL     1       1.846  13.209  18.278  0.00  0.00    +0.000 A 
ATOM     16  C   UNL     1       2.964  14.035  18.377  0.00  0.00    +0.000 A 
ATOM     17  C   UNL     1       3.481  14.333  19.633  0.00  0.00    +0.000 A 
ATOM     18 CL   UNL     1       4.854  15.362  19.762  0.00  0.00    +0.000 Cl
ATOM     19  C   UNL     1       2.889  13.814  20.786  0.00  0.00    +0.000 A 
ATOM     20  C   UNL     1       1.758  12.999  20.687  0.00  0.00    +0.000 A 
ENDBRANCH   4  14
BRANCH   1  22
ATOM     21  O   UNL     1      -4.049  11.899  17.145  0.00  0.00    +0.000 OA
ATOM     22  C   UNL     1      -3.600  11.930  18.293  0.00  0.00    +0.000 C 
BRANCH  22  23
ATOM     23  C   UNL     1      -4.512  12.125  19.452  0.00  0.00    +0.000 A 
ATOM     24  C   UNL     1      -4.058  12.745  20.625  0.00  0.00    +0.000 A 
ATOM     25  C   UNL     1      -4.921  12.928  21.707  0.00  0.00    +0.000 A 
ATOM     26  C   UNL     1      -6.225  12.454  21.630  0.00  0.00    +0.000 A 
ATOM     27  C   UNL     1      -6.680  11.805  20.486  0.00  0.00    +0.000 A 
ATOM     28  C   UNL     1      -5.823  11.635  19.392  0.00  0.00    +0.000 A 
BRANCH  26  29
ATOM     29  O   UNL     1      -7.091  12.605  22.671  0.00  0.00    +0.000 OA
ATOM     30  H   UNL     1      -6.887  11.941  23.351  0.00  0.00    +0.000 HD
ENDBRANCH  26  29
ENDBRANCH  22  23
ENDBRANCH   1  22
BRANCH   2  31
ATOM     31  O   UNL     1      -1.981   9.508  17.636  0.00  0.00    +0.000 OA
ATOM     32  H   UNL     1      -2.920   9.691  17.409  0.00  0.00    +0.000 HD
ENDBRANCH   2  31
TORSDOF 6
ENDMDL
MODEL 8
REMARK VINA RESULT:      -7.1      2.810      4.366
REMARK  Name = 
REMARK  6 active torsions:
REMARK  status: ('A' for Active; 'I' for Inactive)
REMARK    1  A    between atoms: C_2  and  C_3
REMARK    2  A    between atoms: C_2  and  C_10
REMARK    3  A    between atoms: C_6  and  O_7
REMARK    4  A    between atoms: C_11  and  O_12
REMARK    5  A    between atoms: N_13  and  C_14
REMARK    6  A    between atoms: N_21  and  C_22
REMARK                            x       y       z     vdW  Elec       q    Type
REMARK                         _______ _______ _______ _____ _____    ______ ____
ROOT
ATOM      1  C   UNL     1      -2.294  12.204  19.527  0.00  0.00    +0.000 A 
ATOM      2  C   UNL     1      -1.748  11.087  19.016  0.00  0.00    +0.000 A 
ATOM      3  N   UNL     1      -0.350  11.105  19.017  0.00  0.00    +0.000 N 
ATOM      4  N   UNL     1       0.021  12.271  19.721  0.00  0.00    +0.000 N 
ATOM      5  C   UNL     1      -1.140  13.036  19.920  0.00  0.00    +0.000 A 
ATOM      6  O   UNL     1      -1.229  14.194  20.293  0.00  0.00    +0.000 OA
ENDROOT
BRANCH   3   7
ATOM      7  C   UNL     1       0.489   9.941  19.046  0.00  0.00    +0.000 A 
ATOM      8  C   UNL     1       1.144   9.501  17.878  0.00  0.00    +0.000 A 
ATOM      9  C   UNL     1       2.028   8.411  17.885  0.00  0.00    +0.000 A 
ATOM     10  C   UNL     1       2.306   7.751  19.073  0.00  0.00    +0.000 A 
ATOM     11 CL   UNL     1       3.410   6.432  19.097  0.00  0.00    +0.000 Cl
ATOM     12  C   UNL     1       1.688   8.156  20.247  0.00  0.00    +0.000 A 
ATOM     13  C   UNL     1       0.772   9.219  20.223  0.00  0.00    +0.000 A 
ENDBRANCH   3   7
BRANCH   4  14
ATOM     14  C   UNL     1       1.272  12.922  19.619  0.00  0.00    +0.000 A 
ATOM     15  C   UNL     1       1.676  13.355  18.345  0.00  0.00    +0.000 A 
ATOM     16  C   UNL     1       2.842  14.100  18.182  0.00  0.00    +0.000 A 
ATOM     17  C   UNL     1       3.625  14.392  19.294  0.00  0.00    +0.000 A 
ATOM     18 CL   UNL     1       5.060  15.322  19.100  0.00  0.00    +0.000 Cl
ATOM     19  C   UNL     1       3.250  13.948  20.562  0.00  0.00    +0.000 A 
ATOM     20  C   UNL     1       2.071  13.215  20.728  0.00  0.00    +0.000 A 
ENDBRANCH   4  14
BRANCH   1  22
ATOM     21  O   UNL     1      -4.500  12.174  18.740  0.00  0.00    +0.000 OA
ATOM     22  C   UNL     1      -3.726  12.502  19.642  0.00  0.00    +0.000 C 
BRANCH  22  23
ATOM     23  C   UNL     1      -4.241  13.163  20.871  0.00  0.00    +0.000 A 
ATOM     24  C   UNL     1      -4.062  12.575  22.131  0.00  0.00    +0.000 A 
ATOM     25  C   UNL     1      -4.544  13.203  23.280  0.00  0.00    +0.000 A 
ATOM     26  C   UNL     1      -5.243  14.398  23.163  0.00  0.00    +0.000 A 
ATOM     27  C   UNL     1      -5.461  14.977  21.917  0.00  0.00    +0.000 A 
ATOM     28  C   UNL     1      -4.963  14.359  20.764  0.00  0.00    +0.000 A 
BRANCH  26  29
ATOM     29  O   UNL     1      -5.739  15.034  24.263  0.00  0.00    +0.000 OA
ATOM     30  H   UNL     1      -5.190  14.808  25.033  0.00  0.00    +0.000 HD
ENDBRANCH  26  29
ENDBRANCH  22  23
ENDBRANCH   1  22
BRANCH   2  31
ATOM     31  O   UNL     1      -2.481  10.002  18.585  0.00  0.00    +0.000 OA
ATOM     32  H   UNL     1      -3.173  10.326  17.967  0.00  0.00    +0.000 HD
ENDBRANCH   2  31
TORSDOF 6
ENDMDL
MODEL 9
REMARK VINA RESULT:      -7.0      3.454      7.866
REMARK  Name = 
REMARK  6 active torsions:
REMARK  status: ('A' for Active; 'I' for Inactive)
REMARK    1  A    between atoms: C_2  and  C_3
REMARK    2  A    between atoms: C_2  and  C_10
REMARK    3  A    between atoms: C_6  and  O_7
REMARK    4  A    between atoms: C_11  and  O_12
REMARK    5  A    between atoms: N_13  and  C_14
REMARK    6  A    between atoms: N_21  and  C_22
REMARK                            x       y       z     vdW  Elec       q    Type
REMARK                         _______ _______ _______ _____ _____    ______ ____
ROOT
ATOM      1  C   UNL     1       0.393  10.618  18.840  0.00  0.00    +0.000 A 
ATOM      2  C   UNL     1      -0.878  10.448  18.439  0.00  0.00    +0.000 A 
ATOM      3  N   UNL     1      -1.797  11.189  19.188  0.00  0.00    +0.000 N 
ATOM      4  N   UNL     1      -1.028  12.009  20.042  0.00  0.00    +0.000 N 
ATOM      5  C   UNL     1       0.307  11.582  19.955  0.00  0.00    +0.000 A 
ATOM      6  O   UNL     1       1.245  11.878  20.676  0.00  0.00    +0.000 OA
ENDROOT
BRANCH   3   7
ATOM      7  C   UNL     1      -3.078  11.630  18.717  0.00  0.00    +0.000 A 
ATOM      8  C   UNL     1      -3.446  11.451  17.368  0.00  0.00    +0.000 A 
ATOM      9  C   UNL     1      -4.717  11.803  16.888  0.00  0.00    +0.000 A 
ATOM     10  C   UNL     1      -5.668  12.319  17.758  0.00  0.00    +0.000 A 
ATOM     11 CL   UNL     1      -7.237  12.727  17.186  0.00  0.00    +0.000 Cl
ATOM     12  C   UNL     1      -5.349  12.505  19.095  0.00  0.00    +0.000 A 
ATOM     13  C   UNL     1      -4.062  12.190  19.557  0.00  0.00    +0.000 A 
ENDBRANCH   3   7
BRANCH   4  14
ATOM     14  C   UNL     1      -1.491  12.599  21.241  0.00  0.00    +0.000 A 
ATOM     15  C   UNL     1      -1.592  14.000  21.279  0.00  0.00    +0.000 A 
ATOM     16  C   UNL     1      -2.142  14.645  22.384  0.00  0.00    +0.000 A 
ATOM     17  C   UNL     1      -2.571  13.890  23.470  0.00  0.00    +0.000 A 
ATOM     18 CL   UNL     1      -3.264  14.682  24.832  0.00  0.00    +0.000 Cl
ATOM     19  C   UNL     1      -2.456  12.500  23.457  0.00  0.00    +0.000 A 
ATOM     20  C   UNL     1      -1.919  11.851  22.342  0.00  0.00    +0.000 A 
ENDBRANCH   4  14
BRANCH   1  22
ATOM     21  O   UNL     1       2.292  10.567  17.469  0.00  0.00    +0.000 OA
ATOM     22  C   UNL     1       1.582   9.966  18.277  0.00  0.00    +0.000 C 
BRANCH  22  23
ATOM     23  C   UNL     1       1.945   8.594  18.721  0.00  0.00    +0.000 A 
ATOM     24  C   UNL     1       1.634   8.152  20.016  0.00  0.00    +0.000 A 
ATOM     25  C   UNL     1       1.974   6.862  20.424  0.00  0.00    +0.000 A 
ATOM     26  C   UNL     1       2.662   6.028  19.551  0.00  0.00    +0.000 A 
ATOM     27  C   UNL     1       3.010   6.463  18.276  0.00  0.00    +0.000 A 
ATOM     28  C   UNL     1       2.655   7.751  17.857  0.00  0.00    +0.000 A 
BRANCH  26  29
ATOM     29  O   UNL     1       3.021   4.766  19.920  0.00  0.00    +0.000 OA
ATOM     30  H   UNL     1       2.712   4.139  19.244  0.00  0.00    +0.000 HD
ENDBRANCH  26  29
ENDBRANCH  22  23
ENDBRANCH   1  22
BRANCH   2  31
ATOM     31  O   UNL     1      -1.246   9.669  17.363  0.00  0.00    +0.000 OA
ATOM     32  H   UNL     1      -1.182  10.219  16.551  0.00  0.00    +0.000 HD
ENDBRANCH   2  31
TORSDOF 6
ENDMDL
