MODEL 1
REMARK VINA RESULT:      -8.7      0.000      0.000
REMARK  Name = 
REMARK  11 active torsions:
REMARK  status: ('A' for Active; 'I' for Inactive)
REMARK    1  A    between atoms: C_1  and  C_2
REMARK    2  A    between atoms: C_2  and  C_3
REMARK    3  A    between atoms: C_2  and  C_4
REMARK    4  A    between atoms: C_2  and  C_5
REMARK    5  A    between atoms: C_5  and  C_7
REMARK    6  A    between atoms: C_13  and  C_14
REMARK    7  A    between atoms: C_14  and  O_16
REMARK    8  A    between atoms: O_16  and  C_17
REMARK    9  A    between atoms: C_17  and  C_18
REMARK   10  A    between atoms: C_18  and  C_19
REMARK   11  A    between atoms: C_19  and  C_20
REMARK                            x       y       z     vdW  Elec       q    Type
REMARK                         _______ _______ _______ _____ _____    ______ ____
ROOT
ATOM      1  C   UNL     1       4.594   3.353  18.749  0.00  0.00    +0.000 C 
ATOM      2  O   UNL     1       5.126   3.166  19.839  0.00  0.00    +0.000 OA
ATOM      3  N   UNL     1       5.215   4.005  17.699  0.00  0.00    +0.000 N 
ATOM      4  C   UNL     1       4.704   4.269  16.368  0.00  0.00    +0.000 C 
ATOM      5  C   UNL     1       5.920   4.025  15.492  0.00  0.00    +0.000 C 
ATOM      6  C   UNL     1       7.078   4.558  16.335  0.00  0.00    +0.000 C 
ATOM      7  C   UNL     1       6.636   4.344  17.788  0.00  0.00    +0.000 C 
ENDROOT
BRANCH   1   8
ATOM      8  C   UNL     1       3.178   2.817  18.529  0.00  0.00    +0.000 C 
ATOM      9  O   UNL     1       3.057   1.663  18.123  0.00  0.00    +0.000 OA
BRANCH   8  11
ATOM     10  C   UNL     1       0.874   2.811  19.484  0.00  0.00    +0.000 C 
ATOM     11  C   UNL     1       1.997   3.702  18.936  0.00  0.00    +0.000 C 
ATOM     12  C   UNL     1       1.485   4.427  17.678  0.00  0.00    +0.000 C 
ATOM     13  C   UNL     1       2.390   4.758  19.978  0.00  0.00    +0.000 C 
ENDBRANCH   8  11
ENDBRANCH   1   8
BRANCH   7  14
ATOM     14  C   UNL     1       6.941   5.580  18.648  0.00  0.00    +0.000 C 
ATOM     15  O   UNL     1       7.397   5.514  19.784  0.00  0.00    +0.000 OA
BRANCH  14  16
ATOM     16  O   UNL     1       6.612   6.742  18.011  0.00  0.00    +0.000 OA
BRANCH  16  17
ATOM     17  C   UNL     1       7.717   7.478  17.474  0.00  0.00    +0.000 C 
BRANCH  17  18
ATOM     18  C   UNL     1       8.402   8.344  18.522  0.00  0.00    +0.000 C 
BRANCH  18  19
ATOM     19  C   UNL     1       8.304   9.820  18.138  0.00  0.00    +0.000 C 
BRANCH  19  20
ATOM     20  C   UNL     1       9.413  10.620  18.771  0.00  0.00    +0.000 A 
ATOM     21  C   UNL     1       9.391  10.902  20.142  0.00  0.00    +0.000 A 
ATOM     22  C   UNL     1      10.392  11.687  20.714  0.00  0.00    +0.000 A 
ATOM     23  C   UNL     1      11.422  12.192  19.922  0.00  0.00    +0.000 A 
ATOM     24  C   UNL     1      11.455  11.910  18.558  0.00  0.00    +0.000 A 
ATOM     25  C   UNL     1      10.455  11.127  17.983  0.00  0.00    +0.000 A 
ENDBRANCH  19  20
ENDBRANCH  18  19
ENDBRANCH  17  18
ENDBRANCH  16  17
ENDBRANCH  14  16
ENDBRANCH   7  14
TORSDOF 8
ENDMDL
MODEL 2
REMARK VINA RESULT:      -8.5      0.718      1.524
REMARK  Name = 
REMARK  11 active torsions:
REMARK  status: ('A' for Active; 'I' for Inactive)
REMARK    1  A    between atoms: C_1  and  C_2
REMARK    2  A    between atoms: C_2  and  C_3
REMARK    3  A    between atoms: C_2  and  C_4
REMARK    4  A    between atoms: C_2  and  C_5
REMARK    5  A    between atoms: C_5  and  C_7
REMARK    6  A    between atoms: C_13  and  C_14
REMARK    7  A    between atoms: C_14  and  O_16
REMARK    8  A    between atoms: O_16  and  C_17
REMARK    9  A    between atoms: C_17  and  C_18
REMARK   10  A    between atoms: C_18  and  C_19
REMARK   11  A    between atoms: C_19  and  C_20
REMARK                            x       y       z     vdW  Elec       q    Type
REMARK                         _______ _______ _______ _____ _____    ______ ____
ROOT
ATOM      1  C   UNL     1       4.967   3.742  18.474  0.00  0.00    +0.000 C 
ATOM      2  O   UNL     1       5.610   3.642  19.514  0.00  0.00    +0.000 OA
ATOM      3  N   UNL     1       5.495   4.240  17.295  0.00  0.00    +0.000 N 
ATOM      4  C   UNL     1       4.848   4.390  16.007  0.00  0.00    +0.000 C 
ATOM      5  C   UNL     1       5.943   3.982  15.037  0.00  0.00    +0.000 C 
ATOM      6  C   UNL     1       7.213   4.533  15.685  0.00  0.00    +0.000 C 
ATOM      7  C   UNL     1       6.931   4.503  17.192  0.00  0.00    +0.000 C 
ENDROOT
BRANCH   1   8
ATOM      8  C   UNL     1       3.512   3.271  18.470  0.00  0.00    +0.000 C 
ATOM      9  O   UNL     1       3.295   2.077  18.274  0.00  0.00    +0.000 OA
BRANCH   8  11
ATOM     10  C   UNL     1       3.083   5.618  19.196  0.00  0.00    +0.000 C 
ATOM     11  C   UNL     1       2.421   4.284  18.826  0.00  0.00    +0.000 C 
ATOM     12  C   UNL     1       1.655   3.754  20.052  0.00  0.00    +0.000 C 
ATOM     13  C   UNL     1       1.420   4.489  17.682  0.00  0.00    +0.000 C 
ENDBRANCH   8  11
ENDBRANCH   1   8
BRANCH   7  14
ATOM     14  C   UNL     1       7.389   5.804  17.869  0.00  0.00    +0.000 C 
ATOM     15  O   UNL     1       7.766   5.859  19.034  0.00  0.00    +0.000 OA
BRANCH  14  16
ATOM     16  O   UNL     1       7.290   6.879  17.033  0.00  0.00    +0.000 OA
BRANCH  16  17
ATOM     17  C   UNL     1       7.173   8.149  17.683  0.00  0.00    +0.000 C 
BRANCH  17  18
ATOM     18  C   UNL     1       8.512   8.861  17.812  0.00  0.00    +0.000 C 
BRANCH  18  19
ATOM     19  C   UNL     1       8.298  10.359  18.032  0.00  0.00    +0.000 C 
BRANCH  19  20
ATOM     20  C   UNL     1       9.523  10.999  18.632  0.00  0.00    +0.000 A 
ATOM     21  C   UNL     1      10.598  11.377  17.819  0.00  0.00    +0.000 A 
ATOM     22  C   UNL     1      11.751  11.921  18.384  0.00  0.00    +0.000 A 
ATOM     23  C   UNL     1      11.837  12.094  19.764  0.00  0.00    +0.000 A 
ATOM     24  C   UNL     1      10.769  11.726  20.581  0.00  0.00    +0.000 A 
ATOM     25  C   UNL     1       9.616  11.181  20.019  0.00  0.00    +0.000 A 
ENDBRANCH  19  20
ENDBRANCH  18  19
ENDBRANCH  17  18
ENDBRANCH  16  17
ENDBRANCH  14  16
ENDBRANCH   7  14
TORSDOF 8
ENDMDL
MODEL 3
REMARK VINA RESULT:      -8.2      1.290      1.888
REMARK  Name = 
REMARK  11 active torsions:
REMARK  status: ('A' for Active; 'I' for Inactive)
REMARK    1  A    between atoms: C_1  and  C_2
REMARK    2  A    between atoms: C_2  and  C_3
REMARK    3  A    between atoms: C_2  and  C_4
REMARK    4  A    between atoms: C_2  and  C_5
REMARK    5  A    between atoms: C_5  and  C_7
REMARK    6  A    between atoms: C_13  and  C_14
REMARK    7  A    between atoms: C_14  and  O_16
REMARK    8  A    between atoms: O_16  and  C_17
REMARK    9  A    between atoms: C_17  and  C_18
REMARK   10  A    between atoms: C_18  and  C_19
REMARK   11  A    between atoms: C_19  and  C_20
REMARK                            x       y       z     vdW  Elec       q    Type
REMARK                         _______ _______ _______ _____ _____    ______ ____
ROOT
ATOM      1  C   UNL     1       4.979   4.472  18.782  0.00  0.00    +0.000 C 
ATOM      2  O   UNL     1       5.594   5.053  19.670  0.00  0.00    +0.000 OA
ATOM      3  N   UNL     1       5.326   4.538  17.444  0.00  0.00    +0.000 N 
ATOM      4  C   UNL     1       4.696   3.888  16.312  0.00  0.00    +0.000 C 
ATOM      5  C   UNL     1       5.885   3.470  15.466  0.00  0.00    +0.000 C 
ATOM      6  C   UNL     1       6.871   4.624  15.644  0.00  0.00    +0.000 C 
ATOM      7  C   UNL     1       6.584   5.173  17.047  0.00  0.00    +0.000 C 
ENDROOT
BRANCH   1   8
ATOM      8  C   UNL     1       3.778   3.609  19.173  0.00  0.00    +0.000 C 
ATOM      9  O   UNL     1       3.994   2.454  19.537  0.00  0.00    +0.000 OA
BRANCH   8  11
ATOM     10  C   UNL     1       1.523   3.633  18.108  0.00  0.00    +0.000 C 
ATOM     11  C   UNL     1       2.395   4.262  19.203  0.00  0.00    +0.000 C 
ATOM     12  C   UNL     1       2.565   5.762  18.899  0.00  0.00    +0.000 C 
ATOM     13  C   UNL     1       1.711   4.120  20.569  0.00  0.00    +0.000 C 
ENDBRANCH   8  11
ENDBRANCH   1   8
BRANCH   7  14
ATOM     14  C   UNL     1       6.547   6.709  17.045  0.00  0.00    +0.000 C 
ATOM     15  O   UNL     1       5.507   7.357  17.030  0.00  0.00    +0.000 OA
BRANCH  14  16
ATOM     16  O   UNL     1       7.800   7.252  17.026  0.00  0.00    +0.000 OA
BRANCH  16  17
ATOM     17  C   UNL     1       8.184   7.943  18.220  0.00  0.00    +0.000 C 
BRANCH  17  18
ATOM     18  C   UNL     1       8.362   9.438  17.992  0.00  0.00    +0.000 C 
BRANCH  18  19
ATOM     19  C   UNL     1       9.207  10.048  19.110  0.00  0.00    +0.000 C 
BRANCH  19  20
ATOM     20  C   UNL     1       9.659  11.439  18.750  0.00  0.00    +0.000 A 
ATOM     21  C   UNL     1      10.547  11.645  17.687  0.00  0.00    +0.000 A 
ATOM     22  C   UNL     1      11.004  12.929  17.390  0.00  0.00    +0.000 A 
ATOM     23  C   UNL     1      10.576  14.015  18.151  0.00  0.00    +0.000 A 
ATOM     24  C   UNL     1       9.687  13.821  19.207  0.00  0.00    +0.000 A 
ATOM     25  C   UNL     1       9.230  12.538  19.507  0.00  0.00    +0.000 A 
ENDBRANCH  19  20
ENDBRANCH  18  19
ENDBRANCH  17  18
ENDBRANCH  16  17
ENDBRANCH  14  16
ENDBRANCH   7  14
TORSDOF 8
ENDMDL
MODEL 4
REMARK VINA RESULT:      -8.1      1.236      1.537
REMARK  Name = 
REMARK  11 active torsions:
REMARK  status: ('A' for Active; 'I' for Inactive)
REMARK    1  A    between atoms: C_1  and  C_2
REMARK    2  A    between atoms: C_2  and  C_3
REMARK    3  A    between atoms: C_2  and  C_4
REMARK    4  A    between atoms: C_2  and  C_5
REMARK    5  A    between atoms: C_5  and  C_7
REMARK    6  A    between atoms: C_13  and  C_14
REMARK    7  A    between atoms: C_14  and  O_16
REMARK    8  A    between atoms: O_16  and  C_17
REMARK    9  A    between atoms: C_17  and  C_18
REMARK   10  A    between atoms: C_18  and  C_19
REMARK   11  A    between atoms: C_19  and  C_20
REMARK                            x       y       z     vdW  Elec       q    Type
REMARK                         _______ _______ _______ _____ _____    ______ ____
ROOT
ATOM      1  C   UNL     1       5.041   4.294  18.738  0.00  0.00    +0.000 C 
ATOM      2  O   UNL     1       5.660   4.832  19.650  0.00  0.00    +0.000 OA
ATOM      3  N   UNL     1       5.373   4.436  17.402  0.00  0.00    +0.000 N 
ATOM      4  C   UNL     1       4.737   3.842  16.243  0.00  0.00    +0.000 C 
ATOM      5  C   UNL     1       5.921   3.482  15.363  0.00  0.00    +0.000 C 
ATOM      6  C   UNL     1       6.897   4.636  15.593  0.00  0.00    +0.000 C 
ATOM      7  C   UNL     1       6.620   5.104  17.027  0.00  0.00    +0.000 C 
ENDROOT
BRANCH   1   8
ATOM      8  C   UNL     1       3.853   3.398  19.094  0.00  0.00    +0.000 C 
ATOM      9  O   UNL     1       4.074   2.208  19.308  0.00  0.00    +0.000 OA
BRANCH   8  11
ATOM     10  C   UNL     1       1.398   3.082  18.788  0.00  0.00    +0.000 C 
ATOM     11  C   UNL     1       2.482   4.053  19.277  0.00  0.00    +0.000 C 
ATOM     12  C   UNL     1       2.436   5.324  18.409  0.00  0.00    +0.000 C 
ATOM     13  C   UNL     1       2.215   4.452  20.734  0.00  0.00    +0.000 C 
ENDBRANCH   8  11
ENDBRANCH   1   8
BRANCH   7  14
ATOM     14  C   UNL     1       6.569   6.638  17.109  0.00  0.00    +0.000 C 
ATOM     15  O   UNL     1       5.526   7.270  17.234  0.00  0.00    +0.000 OA
BRANCH  14  16
ATOM     16  O   UNL     1       7.808   7.199  16.991  0.00  0.00    +0.000 OA
BRANCH  16  17
ATOM     17  C   UNL     1       8.285   7.876  18.159  0.00  0.00    +0.000 C 
BRANCH  17  18
ATOM     18  C   UNL     1       8.287   9.390  17.993  0.00  0.00    +0.000 C 
BRANCH  18  19
ATOM     19  C   UNL     1       9.006  10.052  19.167  0.00  0.00    +0.000 C 
BRANCH  19  20
ATOM     20  C   UNL     1       9.653  11.346  18.746  0.00  0.00    +0.000 A 
ATOM     21  C   UNL     1       9.312  12.548  19.377  0.00  0.00    +0.000 A 
ATOM     22  C   UNL     1       9.875  13.752  18.950  0.00  0.00    +0.000 A 
ATOM     23  C   UNL     1      10.782  13.761  17.893  0.00  0.00    +0.000 A 
ATOM     24  C   UNL     1      11.132  12.568  17.264  0.00  0.00    +0.000 A 
ATOM     25  C   UNL     1      10.571  11.365  17.688  0.00  0.00    +0.000 A 
ENDBRANCH  19  20
ENDBRANCH  18  19
ENDBRANCH  17  18
ENDBRANCH  16  17
ENDBRANCH  14  16
ENDBRANCH   7  14
TORSDOF 8
ENDMDL
MODEL 5
REMARK VINA RESULT:      -8.1      0.500      1.057
REMARK  Name = 
REMARK  11 active torsions:
REMARK  status: ('A' for Active; 'I' for Inactive)
REMARK    1  A    between atoms: C_1  and  C_2
REMARK    2  A    between atoms: C_2  and  C_3
REMARK    3  A    between atoms: C_2  and  C_4
REMARK    4  A    between atoms: C_2  and  C_5
REMARK    5  A    between atoms: C_5  and  C_7
REMARK    6  A    between atoms: C_13  and  C_14
REMARK    7  A    between atoms: C_14  and  O_16
REMARK    8  A    between atoms: O_16  and  C_17
REMARK    9  A    between atoms: C_17  and  C_18
REMARK   10  A    between atoms: C_18  and  C_19
REMARK   11  A    between atoms: C_19  and  C_20
REMARK                            x       y       z     vdW  Elec       q    Type
REMARK                         _______ _______ _______ _____ _____    ______ ____
ROOT
ATOM      1  C   UNL     1       4.789   3.562  18.662  0.00  0.00    +0.000 C 
ATOM      2  O   UNL     1       5.352   3.303  19.720  0.00  0.00    +0.000 OA
ATOM      3  N   UNL     1       5.405   4.214  17.609  0.00  0.00    +0.000 N 
ATOM      4  C   UNL     1       4.857   4.558  16.312  0.00  0.00    +0.000 C 
ATOM      5  C   UNL     1       6.018   4.274  15.375  0.00  0.00    +0.000 C 
ATOM      6  C   UNL     1       7.241   4.705  16.185  0.00  0.00    +0.000 C 
ATOM      7  C   UNL     1       6.847   4.463  17.648  0.00  0.00    +0.000 C 
ENDROOT
BRANCH   1   8
ATOM      8  C   UNL     1       3.335   3.121  18.485  0.00  0.00    +0.000 C 
ATOM      9  O   UNL     1       3.124   1.967  18.119  0.00  0.00    +0.000 OA
BRANCH   8  11
ATOM     10  C   UNL     1       2.863   5.318  19.568  0.00  0.00    +0.000 C 
ATOM     11  C   UNL     1       2.227   4.099  18.885  0.00  0.00    +0.000 C 
ATOM     12  C   UNL     1       1.304   3.392  19.895  0.00  0.00    +0.000 C 
ATOM     13  C   UNL     1       1.381   4.546  17.686  0.00  0.00    +0.000 C 
ENDBRANCH   8  11
ENDBRANCH   1   8
BRANCH   7  14
ATOM     14  C   UNL     1       7.263   5.646  18.537  0.00  0.00    +0.000 C 
ATOM     15  O   UNL     1       7.651   5.515  19.692  0.00  0.00    +0.000 OA
BRANCH  14  16
ATOM     16  O   UNL     1       7.113   6.844  17.899  0.00  0.00    +0.000 OA
BRANCH  16  17
ATOM     17  C   UNL     1       8.220   7.745  18.023  0.00  0.00    +0.000 C 
BRANCH  17  18
ATOM     18  C   UNL     1       7.774   9.191  18.188  0.00  0.00    +0.000 C 
BRANCH  18  19
ATOM     19  C   UNL     1       8.779  10.134  17.527  0.00  0.00    +0.000 C 
BRANCH  19  20
ATOM     20  C   UNL     1       9.660  10.795  18.554  0.00  0.00    +0.000 A 
ATOM     21  C   UNL     1       9.245  10.894  19.888  0.00  0.00    +0.000 A 
ATOM     22  C   UNL     1      10.040  11.553  20.826  0.00  0.00    +0.000 A 
ATOM     23  C   UNL     1      11.255  12.115  20.438  0.00  0.00    +0.000 A 
ATOM     24  C   UNL     1      11.679  12.016  19.114  0.00  0.00    +0.000 A 
ATOM     25  C   UNL     1      10.885  11.359  18.175  0.00  0.00    +0.000 A 
ENDBRANCH  19  20
ENDBRANCH  18  19
ENDBRANCH  17  18
ENDBRANCH  16  17
ENDBRANCH  14  16
ENDBRANCH   7  14
TORSDOF 8
ENDMDL
MODEL 6
REMARK VINA RESULT:      -8.0      1.288      1.927
REMARK  Name = 
REMARK  11 active torsions:
REMARK  status: ('A' for Active; 'I' for Inactive)
REMARK    1  A    between atoms: C_1  and  C_2
REMARK    2  A    between atoms: C_2  and  C_3
REMARK    3  A    between atoms: C_2  and  C_4
REMARK    4  A    between atoms: C_2  and  C_5
REMARK    5  A    between atoms: C_5  and  C_7
REMARK    6  A    between atoms: C_13  and  C_14
REMARK    7  A    between atoms: C_14  and  O_16
REMARK    8  A    between atoms: O_16  and  C_17
REMARK    9  A    between atoms: C_17  and  C_18
REMARK   10  A    between atoms: C_18  and  C_19
REMARK   11  A    between atoms: C_19  and  C_20
REMARK                            x       y       z     vdW  Elec       q    Type
REMARK                         _______ _______ _______ _____ _____    ______ ____
ROOT
ATOM      1  C   UNL     1       4.640   4.456  18.853  0.00  0.00    +0.000 C 
ATOM      2  O   UNL     1       5.007   5.181  19.772  0.00  0.00    +0.000 OA
ATOM      3  N   UNL     1       5.155   4.528  17.570  0.00  0.00    +0.000 N 
ATOM      4  C   UNL     1       4.820   3.722  16.413  0.00  0.00    +0.000 C 
ATOM      5  C   UNL     1       6.172   3.500  15.761  0.00  0.00    +0.000 C 
ATOM      6  C   UNL     1       6.897   4.827  15.986  0.00  0.00    +0.000 C 
ATOM      7  C   UNL     1       6.320   5.372  17.298  0.00  0.00    +0.000 C 
ENDROOT
BRANCH   1   8
ATOM      8  C   UNL     1       3.572   3.399  19.142  0.00  0.00    +0.000 C 
ATOM      9  O   UNL     1       3.949   2.281  19.487  0.00  0.00    +0.000 OA
BRANCH   8  11
ATOM     10  C   UNL     1       1.740   4.492  20.434  0.00  0.00    +0.000 C 
ATOM     11  C   UNL     1       2.102   3.824  19.101  0.00  0.00    +0.000 C 
ATOM     12  C   UNL     1       1.241   2.558  18.932  0.00  0.00    +0.000 C 
ATOM     13  C   UNL     1       1.801   4.773  17.935  0.00  0.00    +0.000 C 
ENDBRANCH   8  11
ENDBRANCH   1   8
BRANCH   7  14
ATOM     14  C   UNL     1       6.006   6.871  17.186  0.00  0.00    +0.000 C 
ATOM     15  O   UNL     1       4.888   7.340  17.364  0.00  0.00    +0.000 OA
BRANCH  14  16
ATOM     16  O   UNL     1       7.105   7.600  16.832  0.00  0.00    +0.000 OA
BRANCH  16  17
ATOM     17  C   UNL     1       7.865   8.129  17.924  0.00  0.00    +0.000 C 
BRANCH  17  18
ATOM     18  C   UNL     1       8.130   9.621  17.777  0.00  0.00    +0.000 C 
BRANCH  18  19
ATOM     19  C   UNL     1       9.108  10.095  18.853  0.00  0.00    +0.000 C 
BRANCH  19  20
ATOM     20  C   UNL     1       9.744  11.405  18.468  0.00  0.00    +0.000 A 
ATOM     21  C   UNL     1      10.996  11.430  17.842  0.00  0.00    +0.000 A 
ATOM     22  C   UNL     1      11.605  12.647  17.535  0.00  0.00    +0.000 A 
ATOM     23  C   UNL     1      10.966  13.846  17.848  0.00  0.00    +0.000 A 
ATOM     24  C   UNL     1       9.717  13.830  18.465  0.00  0.00    +0.000 A 
ATOM     25  C   UNL     1       9.107  12.615  18.775  0.00  0.00    +0.000 A 
ENDBRANCH  19  20
ENDBRANCH  18  19
ENDBRANCH  17  18
ENDBRANCH  16  17
ENDBRANCH  14  16
ENDBRANCH   7  14
TORSDOF 8
ENDMDL
MODEL 7
REMARK VINA RESULT:      -8.0      1.135      1.774
REMARK  Name = 
REMARK  11 active torsions:
REMARK  status: ('A' for Active; 'I' for Inactive)
REMARK    1  A    between atoms: C_1  and  C_2
REMARK    2  A    between atoms: C_2  and  C_3
REMARK    3  A    between atoms: C_2  and  C_4
REMARK    4  A    between atoms: C_2  and  C_5
REMARK    5  A    between atoms: C_5  and  C_7
REMARK    6  A    between atoms: C_13  and  C_14
REMARK    7  A    between atoms: C_14  and  O_16
REMARK    8  A    between atoms: O_16  and  C_17
REMARK    9  A    between atoms: C_17  and  C_18
REMARK   10  A    between atoms: C_18  and  C_19
REMARK   11  A    between atoms: C_19  and  C_20
REMARK                            x       y       z     vdW  Elec       q    Type
REMARK                         _______ _______ _______ _____ _____    ______ ____
ROOT
ATOM      1  C   UNL     1       5.159   4.367  19.009  0.00  0.00    +0.000 C 
ATOM      2  O   UNL     1       5.789   4.941  19.891  0.00  0.00    +0.000 OA
ATOM      3  N   UNL     1       5.426   4.514  17.660  0.00  0.00    +0.000 N 
ATOM      4  C   UNL     1       4.771   3.882  16.532  0.00  0.00    +0.000 C 
ATOM      5  C   UNL     1       5.932   3.573  15.605  0.00  0.00    +0.000 C 
ATOM      6  C   UNL     1       6.861   4.773  15.786  0.00  0.00    +0.000 C 
ATOM      7  C   UNL     1       6.623   5.239  17.228  0.00  0.00    +0.000 C 
ENDROOT
BRANCH   1   8
ATOM      8  C   UNL     1       4.032   3.418  19.421  0.00  0.00    +0.000 C 
ATOM      9  O   UNL     1       4.329   2.257  19.697  0.00  0.00    +0.000 OA
BRANCH   8  11
ATOM     10  C   UNL     1       1.721   3.413  18.481  0.00  0.00    +0.000 C 
ATOM     11  C   UNL     1       2.622   3.993  19.580  0.00  0.00    +0.000 C 
ATOM     12  C   UNL     1       2.703   5.520  19.399  0.00  0.00    +0.000 C 
ATOM     13  C   UNL     1       2.024   3.700  20.962  0.00  0.00    +0.000 C 
ENDBRANCH   8  11
ENDBRANCH   1   8
BRANCH   7  14
ATOM     14  C   UNL     1       6.501   6.769  17.303  0.00  0.00    +0.000 C 
ATOM     15  O   UNL     1       5.674   7.410  16.665  0.00  0.00    +0.000 OA
BRANCH  14  16
ATOM     16  O   UNL     1       7.437   7.317  18.132  0.00  0.00    +0.000 OA
BRANCH  16  17
ATOM     17  C   UNL     1       8.230   8.359  17.552  0.00  0.00    +0.000 C 
BRANCH  17  18
ATOM     18  C   UNL     1       8.655   9.403  18.576  0.00  0.00    +0.000 C 
BRANCH  18  19
ATOM     19  C   UNL     1       8.699  10.789  17.934  0.00  0.00    +0.000 C 
BRANCH  19  20
ATOM     20  C   UNL     1       9.950  11.530  18.328  0.00  0.00    +0.000 A 
ATOM     21  C   UNL     1      10.455  12.552  17.516  0.00  0.00    +0.000 A 
ATOM     22  C   UNL     1      11.642  13.201  17.858  0.00  0.00    +0.000 A 
ATOM     23  C   UNL     1      12.330  12.834  19.013  0.00  0.00    +0.000 A 
ATOM     24  C   UNL     1      11.830  11.822  19.831  0.00  0.00    +0.000 A 
ATOM     25  C   UNL     1      10.645  11.172  19.491  0.00  0.00    +0.000 A 
ENDBRANCH  19  20
ENDBRANCH  18  19
ENDBRANCH  17  18
ENDBRANCH  16  17
ENDBRANCH  14  16
ENDBRANCH   7  14
TORSDOF 8
ENDMDL
MODEL 8
REMARK VINA RESULT:      -7.9      1.339      2.022
REMARK  Name = 
REMARK  11 active torsions:
REMARK  status: ('A' for Active; 'I' for Inactive)
REMARK    1  A    between atoms: C_1  and  C_2
REMARK    2  A    between atoms: C_2  and  C_3
REMARK    3  A    between atoms: C_2  and  C_4
REMARK    4  A    between atoms: C_2  and  C_5
REMARK    5  A    between atoms: C_5  and  C_7
REMARK    6  A    between atoms: C_13  and  C_14
REMARK    7  A    between atoms: C_14  and  O_16
REMARK    8  A    between atoms: O_16  and  C_17
REMARK    9  A    between atoms: C_17  and  C_18
REMARK   10  A    between atoms: C_18  and  C_19
REMARK   11  A    between atoms: C_19  and  C_20
REMARK                            x       y       z     vdW  Elec       q    Type
REMARK                         _______ _______ _______ _____ _____    ______ ____
ROOT
ATOM      1  C   UNL     1       4.769   4.741  19.085  0.00  0.00    +0.000 C 
ATOM      2  O   UNL     1       5.524   4.254  19.920  0.00  0.00    +0.000 OA
ATOM      3  N   UNL     1       5.209   5.382  17.940  0.00  0.00    +0.000 N 
ATOM      4  C   UNL     1       4.423   5.977  16.878  0.00  0.00    +0.000 C 
ATOM      5  C   UNL     1       5.199   5.587  15.632  0.00  0.00    +0.000 C 
ATOM      6  C   UNL     1       6.657   5.673  16.082  0.00  0.00    +0.000 C 
ATOM      7  C   UNL     1       6.627   5.340  17.579  0.00  0.00    +0.000 C 
ENDROOT
BRANCH   1   8
ATOM      8  C   UNL     1       3.261   4.616  19.307  0.00  0.00    +0.000 C 
ATOM      9  O   UNL     1       2.686   5.537  19.882  0.00  0.00    +0.000 OA
BRANCH   8  11
ATOM     10  C   UNL     1       1.404   3.916  17.795  0.00  0.00    +0.000 C 
ATOM     11  C   UNL     1       2.536   3.412  18.700  0.00  0.00    +0.000 C 
ATOM     12  C   UNL     1       1.923   2.590  19.849  0.00  0.00    +0.000 C 
ATOM     13  C   UNL     1       3.481   2.501  17.905  0.00  0.00    +0.000 C 
ENDBRANCH   8  11
ENDBRANCH   1   8
BRANCH   7  14
ATOM     14  C   UNL     1       7.514   6.305  18.380  0.00  0.00    +0.000 C 
ATOM     15  O   UNL     1       8.265   5.941  19.278  0.00  0.00    +0.000 OA
BRANCH  14  16
ATOM     16  O   UNL     1       7.338   7.603  17.995  0.00  0.00    +0.000 OA
BRANCH  16  17
ATOM     17  C   UNL     1       8.538   8.377  17.888  0.00  0.00    +0.000 C 
BRANCH  17  18
ATOM     18  C   UNL     1       8.320   9.839  18.253  0.00  0.00    +0.000 C 
BRANCH  18  19
ATOM     19  C   UNL     1       9.219  10.234  19.423  0.00  0.00    +0.000 C 
BRANCH  19  20
ATOM     20  C   UNL     1      10.262  11.233  18.993  0.00  0.00    +0.000 A 
ATOM     21  C   UNL     1      10.194  11.830  17.728  0.00  0.00    +0.000 A 
ATOM     22  C   UNL     1      11.189  12.715  17.314  0.00  0.00    +0.000 A 
ATOM     23  C   UNL     1      12.256  13.012  18.160  0.00  0.00    +0.000 A 
ATOM     24  C   UNL     1      12.328  12.428  19.423  0.00  0.00    +0.000 A 
ATOM     25  C   UNL     1      11.335  11.542  19.839  0.00  0.00    +0.000 A 
ENDBRANCH  19  20
ENDBRANCH  18  19
ENDBRANCH  17  18
ENDBRANCH  16  17
ENDBRANCH  14  16
ENDBRANCH   7  14
TORSDOF 8
ENDMDL
MODEL 9
REMARK VINA RESULT:      -7.9      0.991      1.248
REMARK  Name = 
REMARK  11 active torsions:
REMARK  status: ('A' for Active; 'I' for Inactive)
REMARK    1  A    between atoms: C_1  and  C_2
REMARK    2  A    between atoms: C_2  and  C_3
REMARK    3  A    between atoms: C_2  and  C_4
REMARK    4  A    between atoms: C_2  and  C_5
REMARK    5  A    between atoms: C_5  and  C_7
REMARK    6  A    between atoms: C_13  and  C_14
REMARK    7  A    between atoms: C_14  and  O_16
REMARK    8  A    between atoms: O_16  and  C_17
REMARK    9  A    between atoms: C_17  and  C_18
REMARK   10  A    between atoms: C_18  and  C_19
REMARK   11  A    between atoms: C_19  and  C_20
REMARK                            x       y       z     vdW  Elec       q    Type
REMARK                         _______ _______ _______ _____ _____    ______ ____
ROOT
ATOM      1  C   UNL     1       5.099   4.235  18.580  0.00  0.00    +0.000 C 
ATOM      2  O   UNL     1       5.762   4.534  19.567  0.00  0.00    +0.000 OA
ATOM      3  N   UNL     1       5.505   4.491  17.282  0.00  0.00    +0.000 N 
ATOM      4  C   UNL     1       4.825   4.173  16.041  0.00  0.00    +0.000 C 
ATOM      5  C   UNL     1       5.966   3.731  15.142  0.00  0.00    +0.000 C 
ATOM      6  C   UNL     1       7.114   4.657  15.544  0.00  0.00    +0.000 C 
ATOM      7  C   UNL     1       6.862   4.975  17.023  0.00  0.00    +0.000 C 
ENDROOT
BRANCH   1   8
ATOM      8  C   UNL     1       3.762   3.522  18.789  0.00  0.00    +0.000 C 
ATOM      9  O   UNL     1       3.779   2.301  18.935  0.00  0.00    +0.000 OA
BRANCH   8  11
ATOM     10  C   UNL     1       1.892   4.150  20.316  0.00  0.00    +0.000 C 
ATOM     11  C   UNL     1       2.498   4.375  18.924  0.00  0.00    +0.000 C 
ATOM     12  C   UNL     1       1.486   3.904  17.863  0.00  0.00    +0.000 C 
ATOM     13  C   UNL     1       2.774   5.867  18.702  0.00  0.00    +0.000 C 
ENDBRANCH   8  11
ENDBRANCH   1   8
BRANCH   7  14
ATOM     14  C   UNL     1       7.068   6.470  17.312  0.00  0.00    +0.000 C 
ATOM     15  O   UNL     1       6.391   7.354  16.799  0.00  0.00    +0.000 OA
BRANCH  14  16
ATOM     16  O   UNL     1       8.107   6.688  18.170  0.00  0.00    +0.000 OA
BRANCH  16  17
ATOM     17  C   UNL     1       8.225   8.028  18.660  0.00  0.00    +0.000 C 
BRANCH  17  18
ATOM     18  C   UNL     1       8.423   9.040  17.540  0.00  0.00    +0.000 C 
BRANCH  18  19
ATOM     19  C   UNL     1       8.250  10.462  18.073  0.00  0.00    +0.000 C 
BRANCH  19  20
ATOM     20  C   UNL     1       9.533  10.978  18.669  0.00  0.00    +0.000 A 
ATOM     21  C   UNL     1       9.634  11.212  20.045  0.00  0.00    +0.000 A 
ATOM     22  C   UNL     1      10.808  11.739  20.586  0.00  0.00    +0.000 A 
ATOM     23  C   UNL     1      11.887  12.034  19.755  0.00  0.00    +0.000 A 
ATOM     24  C   UNL     1      11.798  11.798  18.385  0.00  0.00    +0.000 A 
ATOM     25  C   UNL     1      10.626  11.272  17.842  0.00  0.00    +0.000 A 
ENDBRANCH  19  20
ENDBRANCH  18  19
ENDBRANCH  17  18
ENDBRANCH  16  17
ENDBRANCH  14  16
ENDBRANCH   7  14
TORSDOF 8
ENDMDL
