MODEL 1
REMARK VINA RESULT:      -8.3      0.000      0.000
REMARK  Name = 
REMARK  9 active torsions:
REMARK  status: ('A' for Active; 'I' for Inactive)
REMARK    1  A    between atoms: C_1  and  C_2
REMARK    2  A    between atoms: N_4  and  C_5
REMARK    3  A    between atoms: C_5  and  C_6
REMARK    4  A    between atoms: N_8  and  C_9
REMARK    5  A    between atoms: C_13  and  C_14
REMARK    6  A    between atoms: C_18  and  C_20
REMARK    7  A    between atoms: C_20  and  O_21
REMARK    8  A    between atoms: C_20  and  C_22
REMARK    9  A    between atoms: C_22  and  O_23
REMARK                            x       y       z     vdW  Elec       q    Type
REMARK                         _______ _______ _______ _____ _____    ______ ____
ROOT
ATOM      1  C   UNL     1       3.004   6.899  18.658  0.00  0.00    +0.000 A 
ATOM      2  C   UNL     1       2.335   6.874  19.886  0.00  0.00    +0.000 A 
ATOM      3  C   UNL     1       1.495   7.923  20.260  0.00  0.00    +0.000 A 
ATOM      4  F   UNL     1       0.920   7.875  21.471  0.00  0.00    +0.000 F 
ATOM      5  C   UNL     1       1.274   9.015  19.422  0.00  0.00    +0.000 A 
ATOM      6  C   UNL     1       1.928   9.025  18.189  0.00  0.00    +0.000 A 
ATOM      7  F   UNL     1       1.731  10.034  17.328  0.00  0.00    +0.000 F 
ATOM      8  C   UNL     1       2.796   7.995  17.813  0.00  0.00    +0.000 A 
ENDROOT
BRANCH   5   9
ATOM      9  C   UNL     1       0.391  10.110  19.823  0.00  0.00    +0.000 C 
ATOM     10  C   UNL     1      -0.733  10.381  19.131  0.00  0.00    +0.000 C 
ATOM     11  C   UNL     1      -1.690  11.488  19.475  0.00  0.00    +0.000 C 
ATOM     12  N   UNL     1      -1.325  12.148  20.725  0.00  0.00    +0.000 N 
ATOM     13  C   UNL     1      -2.333  12.796  21.433  0.00  0.00    +0.000 C 
ATOM     14  O   UNL     1      -3.504  12.777  21.046  0.00  0.00    +0.000 OA
ATOM     15  C   UNL     1       0.112  12.303  20.976  0.00  0.00    +0.000 C 
ATOM     16  C   UNL     1       0.805  10.942  21.001  0.00  0.00    +0.000 C 
BRANCH  13  17
ATOM     17  C   UNL     1      -1.950  13.509  22.749  0.00  0.00    +0.000 C 
BRANCH  17  18
ATOM     18  O   UNL     1      -1.798  14.919  22.580  0.00  0.00    +0.000 OA
ATOM     19  H   UNL     1      -1.386  15.057  21.708  0.00  0.00    +0.000 HD
ENDBRANCH  17  18
BRANCH  17  20
ATOM     20  C   UNL     1      -3.007  13.237  23.833  0.00  0.00    +0.000 C 
BRANCH  20  21
ATOM     21  O   UNL     1      -3.489  11.892  23.779  0.00  0.00    +0.000 OA
ATOM     22  H   UNL     1      -2.760  11.326  23.468  0.00  0.00    +0.000 HD
ENDBRANCH  20  21
ENDBRANCH  17  20
ENDBRANCH  13  17
ENDBRANCH   5   9
BRANCH   1  25
ATOM     23  C   UNL     1       5.800   4.591  18.145  0.00  0.00    +0.000 C 
ATOM     24  C   UNL     1       5.308   6.022  18.184  0.00  0.00    +0.000 C 
ATOM     25  N   UNL     1       3.890   5.858  18.300  0.00  0.00    +0.000 N 
ATOM     26  C   UNL     1       3.536   4.565  17.947  0.00  0.00    +0.000 C 
ATOM     27  O   UNL     1       2.420   4.094  17.806  0.00  0.00    +0.000 OA
ATOM     28  O   UNL     1       4.663   3.827  17.707  0.00  0.00    +0.000 OA
BRANCH  23  29
ATOM     29  C   UNL     1       6.952   4.385  17.170  0.00  0.00    +0.000 C 
BRANCH  29  33
ATOM     30  C   UNL     1       6.250   3.846  13.489  0.00  0.00    +0.000 C 
ATOM     31  C   UNL     1       6.830   4.490  14.718  0.00  0.00    +0.000 C 
ATOM     32  O   UNL     1       7.524   5.501  14.675  0.00  0.00    +0.000 OA
ATOM     33  N   UNL     1       6.488   3.865  15.894  0.00  0.00    +0.000 N 
ATOM     34  H   UNL     1       6.199   2.891  15.858  0.00  0.00    +0.000 HD
ENDBRANCH  29  33
ENDBRANCH  23  29
ENDBRANCH   1  25
TORSDOF 8
ENDMDL
MODEL 2
REMARK VINA RESULT:      -8.2      0.296      1.509
REMARK  Name = 
REMARK  9 active torsions:
REMARK  status: ('A' for Active; 'I' for Inactive)
REMARK    1  A    between atoms: C_1  and  C_2
REMARK    2  A    between atoms: N_4  and  C_5
REMARK    3  A    between atoms: C_5  and  C_6
REMARK    4  A    between atoms: N_8  and  C_9
REMARK    5  A    between atoms: C_13  and  C_14
REMARK    6  A    between atoms: C_18  and  C_20
REMARK    7  A    between atoms: C_20  and  O_21
REMARK    8  A    between atoms: C_20  and  C_22
REMARK    9  A    between atoms: C_22  and  O_23
REMARK                            x       y       z     vdW  Elec       q    Type
REMARK                         _______ _______ _______ _____ _____    ______ ____
ROOT
ATOM      1  C   UNL     1       2.948   6.985  18.713  0.00  0.00    +0.000 A 
ATOM      2  C   UNL     1       2.783   8.071  17.848  0.00  0.00    +0.000 A 
ATOM      3  C   UNL     1       1.909   9.110  18.169  0.00  0.00    +0.000 A 
ATOM      4  F   UNL     1       1.747  10.101  17.278  0.00  0.00    +0.000 F 
ATOM      5  C   UNL     1       1.190   9.116  19.363  0.00  0.00    +0.000 A 
ATOM      6  C   UNL     1       1.375   8.039  20.232  0.00  0.00    +0.000 A 
ATOM      7  F   UNL     1       0.734   8.006  21.410  0.00  0.00    +0.000 F 
ATOM      8  C   UNL     1       2.225   6.977  19.912  0.00  0.00    +0.000 A 
ENDROOT
BRANCH   5   9
ATOM      9  C   UNL     1       0.276  10.210  19.690  0.00  0.00    +0.000 C 
ATOM     10  C   UNL     1      -0.878  10.372  19.014  0.00  0.00    +0.000 C 
ATOM     11  C   UNL     1      -1.868  11.470  19.285  0.00  0.00    +0.000 C 
ATOM     12  N   UNL     1      -1.492  12.260  20.456  0.00  0.00    +0.000 N 
ATOM     13  C   UNL     1      -2.503  12.933  21.133  0.00  0.00    +0.000 C 
ATOM     14  O   UNL     1      -3.684  12.835  20.790  0.00  0.00    +0.000 OA
ATOM     15  C   UNL     1      -0.055  12.491  20.642  0.00  0.00    +0.000 C 
ATOM     16  C   UNL     1       0.692  11.165  20.771  0.00  0.00    +0.000 C 
BRANCH  13  17
ATOM     17  C   UNL     1      -2.110  13.781  22.363  0.00  0.00    +0.000 C 
BRANCH  17  18
ATOM     18  O   UNL     1      -2.634  15.109  22.298  0.00  0.00    +0.000 OA
ATOM     19  H   UNL     1      -3.485  15.102  22.771  0.00  0.00    +0.000 HD
ENDBRANCH  17  18
BRANCH  17  20
ATOM     20  C   UNL     1      -2.594  13.105  23.657  0.00  0.00    +0.000 C 
BRANCH  20  21
ATOM     21  O   UNL     1      -3.444  11.988  23.386  0.00  0.00    +0.000 OA
ATOM     22  H   UNL     1      -2.966  11.180  23.641  0.00  0.00    +0.000 HD
ENDBRANCH  20  21
ENDBRANCH  17  20
ENDBRANCH  13  17
ENDBRANCH   5   9
BRANCH   1  25
ATOM     23  C   UNL     1       5.656   4.563  18.260  0.00  0.00    +0.000 C 
ATOM     24  C   UNL     1       5.227   6.014  18.313  0.00  0.00    +0.000 C 
ATOM     25  N   UNL     1       3.800   5.912  18.367  0.00  0.00    +0.000 N 
ATOM     26  C   UNL     1       3.404   4.645  17.967  0.00  0.00    +0.000 C 
ATOM     27  O   UNL     1       2.275   4.229  17.768  0.00  0.00    +0.000 OA
ATOM     28  O   UNL     1       4.507   3.862  17.756  0.00  0.00    +0.000 OA
BRANCH  23  29
ATOM     29  C   UNL     1       6.839   4.326  17.328  0.00  0.00    +0.000 C 
BRANCH  29  33
ATOM     30  C   UNL     1       6.252   3.887  13.615  0.00  0.00    +0.000 C 
ATOM     31  C   UNL     1       6.803   4.490  14.877  0.00  0.00    +0.000 C 
ATOM     32  O   UNL     1       7.520   5.486  14.881  0.00  0.00    +0.000 OA
ATOM     33  N   UNL     1       6.407   3.846  16.026  0.00  0.00    +0.000 N 
ATOM     34  H   UNL     1       6.099   2.880  15.957  0.00  0.00    +0.000 HD
ENDBRANCH  29  33
ENDBRANCH  23  29
ENDBRANCH   1  25
TORSDOF 8
ENDMDL
MODEL 3
REMARK VINA RESULT:      -7.6      1.086      1.514
REMARK  Name = 
REMARK  9 active torsions:
REMARK  status: ('A' for Active; 'I' for Inactive)
REMARK    1  A    between atoms: C_1  and  C_2
REMARK    2  A    between atoms: N_4  and  C_5
REMARK    3  A    between atoms: C_5  and  C_6
REMARK    4  A    between atoms: N_8  and  C_9
REMARK    5  A    between atoms: C_13  and  C_14
REMARK    6  A    between atoms: C_18  and  C_20
REMARK    7  A    between atoms: C_20  and  O_21
REMARK    8  A    between atoms: C_20  and  C_22
REMARK    9  A    between atoms: C_22  and  O_23
REMARK                            x       y       z     vdW  Elec       q    Type
REMARK                         _______ _______ _______ _____ _____    ______ ____
ROOT
ATOM      1  C   UNL     1       2.725   6.960  18.818  0.00  0.00    +0.000 A 
ATOM      2  C   UNL     1       2.314   7.049  20.152  0.00  0.00    +0.000 A 
ATOM      3  C   UNL     1       1.588   8.153  20.601  0.00  0.00    +0.000 A 
ATOM      4  F   UNL     1       1.265   8.214  21.902  0.00  0.00    +0.000 F 
ATOM      5  C   UNL     1       1.229   9.189  19.740  0.00  0.00    +0.000 A 
ATOM      6  C   UNL     1       1.624   9.085  18.405  0.00  0.00    +0.000 A 
ATOM      7  F   UNL     1       1.282  10.036  17.523  0.00  0.00    +0.000 F 
ATOM      8  C   UNL     1       2.377   7.999  17.947  0.00  0.00    +0.000 A 
ENDROOT
BRANCH   5   9
ATOM      9  C   UNL     1       0.468  10.342  20.220  0.00  0.00    +0.000 C 
ATOM     10  C   UNL     1       0.898  11.598  19.992  0.00  0.00    +0.000 C 
ATOM     11  C   UNL     1       0.179  12.835  20.454  0.00  0.00    +0.000 C 
ATOM     12  N   UNL     1      -1.110  12.514  21.063  0.00  0.00    +0.000 N 
ATOM     13  C   UNL     1      -2.090  13.500  21.061  0.00  0.00    +0.000 C 
ATOM     14  O   UNL     1      -1.900  14.594  20.524  0.00  0.00    +0.000 OA
ATOM     15  C   UNL     1      -1.155  11.284  21.863  0.00  0.00    +0.000 C 
ATOM     16  C   UNL     1      -0.779  10.073  21.010  0.00  0.00    +0.000 C 
BRANCH  13  17
ATOM     17  C   UNL     1      -3.449  13.172  21.717  0.00  0.00    +0.000 C 
BRANCH  17  18
ATOM     18  O   UNL     1      -3.855  14.168  22.658  0.00  0.00    +0.000 OA
ATOM     19  H   UNL     1      -4.175  13.697  23.448  0.00  0.00    +0.000 HD
ENDBRANCH  17  18
BRANCH  17  20
ATOM     20  C   UNL     1      -4.539  13.013  20.643  0.00  0.00    +0.000 C 
BRANCH  20  21
ATOM     21  O   UNL     1      -3.977  12.796  19.346  0.00  0.00    +0.000 OA
ATOM     22  H   UNL     1      -3.488  13.598  19.094  0.00  0.00    +0.000 HD
ENDBRANCH  20  21
ENDBRANCH  17  20
ENDBRANCH  13  17
ENDBRANCH   5   9
BRANCH   1  25
ATOM     23  C   UNL     1       5.230   4.368  18.180  0.00  0.00    +0.000 C 
ATOM     24  C   UNL     1       4.929   5.835  18.400  0.00  0.00    +0.000 C 
ATOM     25  N   UNL     1       3.497   5.863  18.375  0.00  0.00    +0.000 N 
ATOM     26  C   UNL     1       3.015   4.698  17.799  0.00  0.00    +0.000 C 
ATOM     27  O   UNL     1       1.866   4.419  17.497  0.00  0.00    +0.000 OA
ATOM     28  O   UNL     1       4.054   3.847  17.539  0.00  0.00    +0.000 OA
BRANCH  23  29
ATOM     29  C   UNL     1       6.439   4.138  17.280  0.00  0.00    +0.000 C 
BRANCH  29  33
ATOM     30  C   UNL     1       6.082   3.829  13.524  0.00  0.00    +0.000 C 
ATOM     31  C   UNL     1       6.621   4.326  14.837  0.00  0.00    +0.000 C 
ATOM     32  O   UNL     1       7.484   5.195  14.916  0.00  0.00    +0.000 OA
ATOM     33  N   UNL     1       6.040   3.744  15.938  0.00  0.00    +0.000 N 
ATOM     34  H   UNL     1       5.589   2.840  15.826  0.00  0.00    +0.000 HD
ENDBRANCH  29  33
ENDBRANCH  23  29
ENDBRANCH   1  25
TORSDOF 8
ENDMDL
MODEL 4
REMARK VINA RESULT:      -7.5      1.586      2.292
REMARK  Name = 
REMARK  9 active torsions:
REMARK  status: ('A' for Active; 'I' for Inactive)
REMARK    1  A    between atoms: C_1  and  C_2
REMARK    2  A    between atoms: N_4  and  C_5
REMARK    3  A    between atoms: C_5  and  C_6
REMARK    4  A    between atoms: N_8  and  C_9
REMARK    5  A    between atoms: C_13  and  C_14
REMARK    6  A    between atoms: C_18  and  C_20
REMARK    7  A    between atoms: C_20  and  O_21
REMARK    8  A    between atoms: C_20  and  C_22
REMARK    9  A    between atoms: C_22  and  O_23
REMARK                            x       y       z     vdW  Elec       q    Type
REMARK                         _______ _______ _______ _____ _____    ______ ____
ROOT
ATOM      1  C   UNL     1       3.679   6.279  17.783  0.00  0.00    +0.000 A 
ATOM      2  C   UNL     1       3.079   5.856  18.973  0.00  0.00    +0.000 A 
ATOM      3  C   UNL     1       2.254   6.717  19.699  0.00  0.00    +0.000 A 
ATOM      4  F   UNL     1       1.748   6.279  20.862  0.00  0.00    +0.000 F 
ATOM      5  C   UNL     1       1.982   8.010  19.257  0.00  0.00    +0.000 A 
ATOM      6  C   UNL     1       2.567   8.419  18.058  0.00  0.00    +0.000 A 
ATOM      7  F   UNL     1       2.316   9.643  17.567  0.00  0.00    +0.000 F 
ATOM      8  C   UNL     1       3.419   7.579  17.335  0.00  0.00    +0.000 A 
ENDROOT
BRANCH   5   9
ATOM      9  C   UNL     1       1.116   8.905  20.025  0.00  0.00    +0.000 C 
ATOM     10  C   UNL     1       0.912   8.707  21.342  0.00  0.00    +0.000 C 
ATOM     11  C   UNL     1       0.036   9.576  22.201  0.00  0.00    +0.000 C 
ATOM     12  N   UNL     1      -0.461  10.736  21.465  0.00  0.00    +0.000 N 
ATOM     13  C   UNL     1      -0.822  11.861  22.199  0.00  0.00    +0.000 C 
ATOM     14  O   UNL     1      -0.687  11.900  23.425  0.00  0.00    +0.000 OA
ATOM     15  C   UNL     1      -0.792  10.510  20.054  0.00  0.00    +0.000 C 
ATOM     16  C   UNL     1       0.432  10.017  19.285  0.00  0.00    +0.000 C 
BRANCH  13  17
ATOM     17  C   UNL     1      -1.362  13.086  21.429  0.00  0.00    +0.000 C 
BRANCH  17  18
ATOM     18  O   UNL     1      -2.506  13.666  22.059  0.00  0.00    +0.000 OA
ATOM     19  H   UNL     1      -2.707  14.489  21.580  0.00  0.00    +0.000 HD
ENDBRANCH  17  18
BRANCH  17  20
ATOM     20  C   UNL     1      -0.265  14.154  21.283  0.00  0.00    +0.000 C 
BRANCH  20  21
ATOM     21  O   UNL     1       0.514  14.280  22.475  0.00  0.00    +0.000 OA
ATOM     22  H   UNL     1       1.404  14.580  22.221  0.00  0.00    +0.000 HD
ENDBRANCH  20  21
ENDBRANCH  17  20
ENDBRANCH  13  17
ENDBRANCH   5   9
BRANCH   1  25
ATOM     23  C   UNL     1       6.438   4.615  16.043  0.00  0.00    +0.000 C 
ATOM     24  C   UNL     1       5.642   5.883  16.269  0.00  0.00    +0.000 C 
ATOM     25  N   UNL     1       4.549   5.421  17.072  0.00  0.00    +0.000 N 
ATOM     26  C   UNL     1       4.451   4.042  16.983  0.00  0.00    +0.000 C 
ATOM     27  O   UNL     1       3.578   3.312  17.424  0.00  0.00    +0.000 OA
ATOM     28  O   UNL     1       5.494   3.551  16.246  0.00  0.00    +0.000 OA
BRANCH  23  29
ATOM     29  C   UNL     1       7.013   4.518  14.635  0.00  0.00    +0.000 C 
BRANCH  29  33
ATOM     30  C   UNL     1       5.516   2.649  11.703  0.00  0.00    +0.000 C 
ATOM     31  C   UNL     1       6.431   3.591  12.435  0.00  0.00    +0.000 C 
ATOM     32  O   UNL     1       7.272   4.280  11.865  0.00  0.00    +0.000 OA
ATOM     33  N   UNL     1       6.222   3.635  13.793  0.00  0.00    +0.000 N 
ATOM     34  H   UNL     1       5.763   2.844  14.238  0.00  0.00    +0.000 HD
ENDBRANCH  29  33
ENDBRANCH  23  29
ENDBRANCH   1  25
TORSDOF 8
ENDMDL
MODEL 5
REMARK VINA RESULT:      -7.5      0.655      1.813
REMARK  Name = 
REMARK  9 active torsions:
REMARK  status: ('A' for Active; 'I' for Inactive)
REMARK    1  A    between atoms: C_1  and  C_2
REMARK    2  A    between atoms: N_4  and  C_5
REMARK    3  A    between atoms: C_5  and  C_6
REMARK    4  A    between atoms: N_8  and  C_9
REMARK    5  A    between atoms: C_13  and  C_14
REMARK    6  A    between atoms: C_18  and  C_20
REMARK    7  A    between atoms: C_20  and  O_21
REMARK    8  A    between atoms: C_20  and  C_22
REMARK    9  A    between atoms: C_22  and  O_23
REMARK                            x       y       z     vdW  Elec       q    Type
REMARK                         _______ _______ _______ _____ _____    ______ ____
ROOT
ATOM      1  C   UNL     1       2.964   6.948  18.695  0.00  0.00    +0.000 A 
ATOM      2  C   UNL     1       2.742   8.035  17.843  0.00  0.00    +0.000 A 
ATOM      3  C   UNL     1       1.884   9.069  18.219  0.00  0.00    +0.000 A 
ATOM      4  F   UNL     1       1.664  10.061  17.342  0.00  0.00    +0.000 F 
ATOM      5  C   UNL     1       1.238   9.069  19.454  0.00  0.00    +0.000 A 
ATOM      6  C   UNL     1       1.479   7.992  20.308  0.00  0.00    +0.000 A 
ATOM      7  F   UNL     1       0.910   7.952  21.522  0.00  0.00    +0.000 F 
ATOM      8  C   UNL     1       2.314   6.934  19.935  0.00  0.00    +0.000 A 
ENDROOT
BRANCH   5   9
ATOM      9  C   UNL     1       0.339  10.158  19.838  0.00  0.00    +0.000 C 
ATOM     10  C   UNL     1      -0.827  10.351  19.192  0.00  0.00    +0.000 C 
ATOM     11  C   UNL     1      -1.803  11.446  19.522  0.00  0.00    +0.000 C 
ATOM     12  N   UNL     1      -1.397  12.192  20.710  0.00  0.00    +0.000 N 
ATOM     13  C   UNL     1      -2.388  12.849  21.431  0.00  0.00    +0.000 C 
ATOM     14  O   UNL     1      -3.576  12.771  21.110  0.00  0.00    +0.000 OA
ATOM     15  C   UNL     1       0.046  12.407  20.874  0.00  0.00    +0.000 C 
ATOM     16  C   UNL     1       0.785  11.072  20.942  0.00  0.00    +0.000 C 
BRANCH  13  17
ATOM     17  C   UNL     1      -1.963  13.651  22.682  0.00  0.00    +0.000 C 
BRANCH  17  18
ATOM     18  O   UNL     1      -0.887  13.030  23.387  0.00  0.00    +0.000 OA
ATOM     19  H   UNL     1      -0.518  12.349  22.798  0.00  0.00    +0.000 HD
ENDBRANCH  17  18
BRANCH  17  20
ATOM     20  C   UNL     1      -1.557  15.082  22.289  0.00  0.00    +0.000 C 
BRANCH  20  21
ATOM     21  O   UNL     1      -2.584  15.738  21.541  0.00  0.00    +0.000 OA
ATOM     22  H   UNL     1      -3.274  16.022  22.165  0.00  0.00    +0.000 HD
ENDBRANCH  20  21
ENDBRANCH  17  20
ENDBRANCH  13  17
ENDBRANCH   5   9
BRANCH   1  25
ATOM     23  C   UNL     1       5.637   4.515  18.114  0.00  0.00    +0.000 C 
ATOM     24  C   UNL     1       5.228   5.967  18.233  0.00  0.00    +0.000 C 
ATOM     25  N   UNL     1       3.799   5.881  18.296  0.00  0.00    +0.000 N 
ATOM     26  C   UNL     1       3.384   4.636  17.848  0.00  0.00    +0.000 C 
ATOM     27  O   UNL     1       2.248   4.243  17.642  0.00  0.00    +0.000 OA
ATOM     28  O   UNL     1       4.475   3.850  17.593  0.00  0.00    +0.000 OA
BRANCH  23  29
ATOM     29  C   UNL     1       6.808   4.303  17.162  0.00  0.00    +0.000 C 
BRANCH  29  33
ATOM     30  C   UNL     1       6.200   3.823  13.457  0.00  0.00    +0.000 C 
ATOM     31  C   UNL     1       6.766   4.434  14.709  0.00  0.00    +0.000 C 
ATOM     32  O   UNL     1       7.499   5.418  14.697  0.00  0.00    +0.000 OA
ATOM     33  N   UNL     1       6.365   3.812  15.868  0.00  0.00    +0.000 N 
ATOM     34  H   UNL     1       6.041   2.851  15.813  0.00  0.00    +0.000 HD
ENDBRANCH  29  33
ENDBRANCH  23  29
ENDBRANCH   1  25
TORSDOF 8
ENDMDL
MODEL 6
REMARK VINA RESULT:      -7.5      1.695      2.829
REMARK  Name = 
REMARK  9 active torsions:
REMARK  status: ('A' for Active; 'I' for Inactive)
REMARK    1  A    between atoms: C_1  and  C_2
REMARK    2  A    between atoms: N_4  and  C_5
REMARK    3  A    between atoms: C_5  and  C_6
REMARK    4  A    between atoms: N_8  and  C_9
REMARK    5  A    between atoms: C_13  and  C_14
REMARK    6  A    between atoms: C_18  and  C_20
REMARK    7  A    between atoms: C_20  and  O_21
REMARK    8  A    between atoms: C_20  and  C_22
REMARK    9  A    between atoms: C_22  and  O_23
REMARK                            x       y       z     vdW  Elec       q    Type
REMARK                         _______ _______ _______ _____ _____    ______ ____
ROOT
ATOM      1  C   UNL     1       3.646   6.278  17.845  0.00  0.00    +0.000 A 
ATOM      2  C   UNL     1       3.414   7.578  17.383  0.00  0.00    +0.000 A 
ATOM      3  C   UNL     1       2.586   8.448  18.093  0.00  0.00    +0.000 A 
ATOM      4  F   UNL     1       2.354   9.665  17.578  0.00  0.00    +0.000 F 
ATOM      5  C   UNL     1       1.980   8.065  19.290  0.00  0.00    +0.000 A 
ATOM      6  C   UNL     1       2.232   6.774  19.755  0.00  0.00    +0.000 A 
ATOM      7  F   UNL     1       1.701   6.360  20.916  0.00  0.00    +0.000 F 
ATOM      8  C   UNL     1       3.036   5.881  19.041  0.00  0.00    +0.000 A 
ENDROOT
BRANCH   5   9
ATOM      9  C   UNL     1       1.113   8.984  20.026  0.00  0.00    +0.000 C 
ATOM     10  C   UNL     1       1.144   9.036  21.371  0.00  0.00    +0.000 C 
ATOM     11  C   UNL     1       0.284   9.948  22.202  0.00  0.00    +0.000 C 
ATOM     12  N   UNL     1      -0.491  10.865  21.370  0.00  0.00    +0.000 N 
ATOM     13  C   UNL     1      -0.906  12.063  21.942  0.00  0.00    +0.000 C 
ATOM     14  O   UNL     1      -0.595  12.366  23.096  0.00  0.00    +0.000 OA
ATOM     15  C   UNL     1      -0.993  10.317  20.104  0.00  0.00    +0.000 C 
ATOM     16  C   UNL     1       0.163   9.831  19.231  0.00  0.00    +0.000 C 
BRANCH  13  17
ATOM     17  C   UNL     1      -1.738  13.030  21.071  0.00  0.00    +0.000 C 
BRANCH  17  18
ATOM     18  O   UNL     1      -2.600  13.861  21.852  0.00  0.00    +0.000 OA
ATOM     19  H   UNL     1      -2.276  14.774  21.757  0.00  0.00    +0.000 HD
ENDBRANCH  17  18
BRANCH  17  20
ATOM     20  C   UNL     1      -0.814  13.915  20.218  0.00  0.00    +0.000 C 
BRANCH  20  21
ATOM     21  O   UNL     1      -1.039  13.723  18.820  0.00  0.00    +0.000 OA
ATOM     22  H   UNL     1      -0.190  13.846  18.361  0.00  0.00    +0.000 HD
ENDBRANCH  20  21
ENDBRANCH  17  20
ENDBRANCH  13  17
ENDBRANCH   5   9
BRANCH   1  25
ATOM     23  C   UNL     1       6.238   4.525  15.944  0.00  0.00    +0.000 C 
ATOM     24  C   UNL     1       5.459   5.802  16.176  0.00  0.00    +0.000 C 
ATOM     25  N   UNL     1       4.450   5.384  17.102  0.00  0.00    +0.000 N 
ATOM     26  C   UNL     1       4.351   4.001  17.097  0.00  0.00    +0.000 C 
ATOM     27  O   UNL     1       3.528   3.296  17.657  0.00  0.00    +0.000 OA
ATOM     28  O   UNL     1       5.322   3.472  16.292  0.00  0.00    +0.000 OA
BRANCH  23  29
ATOM     29  C   UNL     1       6.678   4.352  14.496  0.00  0.00    +0.000 C 
BRANCH  29  33
ATOM     30  C   UNL     1       4.521   3.184  11.613  0.00  0.00    +0.000 C 
ATOM     31  C   UNL     1       5.778   3.458  12.392  0.00  0.00    +0.000 C 
ATOM     32  O   UNL     1       6.899   3.236  11.945  0.00  0.00    +0.000 OA
ATOM     33  N   UNL     1       5.560   4.007  13.633  0.00  0.00    +0.000 N 
ATOM     34  H   UNL     1       4.651   3.873  14.069  0.00  0.00    +0.000 HD
ENDBRANCH  29  33
ENDBRANCH  23  29
ENDBRANCH   1  25
TORSDOF 8
ENDMDL
MODEL 7
REMARK VINA RESULT:      -7.5      1.252      1.361
REMARK  Name = 
REMARK  9 active torsions:
REMARK  status: ('A' for Active; 'I' for Inactive)
REMARK    1  A    between atoms: C_1  and  C_2
REMARK    2  A    between atoms: N_4  and  C_5
REMARK    3  A    between atoms: C_5  and  C_6
REMARK    4  A    between atoms: N_8  and  C_9
REMARK    5  A    between atoms: C_13  and  C_14
REMARK    6  A    between atoms: C_18  and  C_20
REMARK    7  A    between atoms: C_20  and  O_21
REMARK    8  A    between atoms: C_20  and  C_22
REMARK    9  A    between atoms: C_22  and  O_23
REMARK                            x       y       z     vdW  Elec       q    Type
REMARK                         _______ _______ _______ _____ _____    ______ ____
ROOT
ATOM      1  C   UNL     1       2.486   7.156  19.034  0.00  0.00    +0.000 A 
ATOM      2  C   UNL     1       1.921   7.382  20.294  0.00  0.00    +0.000 A 
ATOM      3  C   UNL     1       1.221   8.560  20.558  0.00  0.00    +0.000 A 
ATOM      4  F   UNL     1       0.746   8.751  21.798  0.00  0.00    +0.000 F 
ATOM      5  C   UNL     1       1.040   9.536  19.580  0.00  0.00    +0.000 A 
ATOM      6  C   UNL     1       1.588   9.295  18.319  0.00  0.00    +0.000 A 
ATOM      7  F   UNL     1       1.421  10.185  17.329  0.00  0.00    +0.000 F 
ATOM      8  C   UNL     1       2.318   8.134  18.047  0.00  0.00    +0.000 A 
ENDROOT
BRANCH   5   9
ATOM      9  C   UNL     1       0.304  10.767  19.867  0.00  0.00    +0.000 C 
ATOM     10  C   UNL     1      -1.042  10.792  19.832  0.00  0.00    +0.000 C 
ATOM     11  C   UNL     1      -1.872  12.014  20.111  0.00  0.00    +0.000 C 
ATOM     12  N   UNL     1      -1.049  13.137  20.553  0.00  0.00    +0.000 N 
ATOM     13  C   UNL     1      -1.658  14.122  21.323  0.00  0.00    +0.000 C 
ATOM     14  O   UNL     1      -2.840  14.034  21.662  0.00  0.00    +0.000 OA
ATOM     15  C   UNL     1       0.267  13.260  19.916  0.00  0.00    +0.000 C 
ATOM     16  C   UNL     1       1.103  12.004  20.156  0.00  0.00    +0.000 C 
BRANCH  13  17
ATOM     17  C   UNL     1      -0.796  15.319  21.782  0.00  0.00    +0.000 C 
BRANCH  17  18
ATOM     18  O   UNL     1      -1.396  16.576  21.463  0.00  0.00    +0.000 OA
ATOM     19  H   UNL     1      -1.627  16.548  20.518  0.00  0.00    +0.000 HD
ENDBRANCH  17  18
BRANCH  17  20
ATOM     20  C   UNL     1      -0.540  15.246  23.297  0.00  0.00    +0.000 C 
BRANCH  20  21
ATOM     21  O   UNL     1      -0.994  14.010  23.852  0.00  0.00    +0.000 OA
ATOM     22  H   UNL     1      -0.301  13.676  24.448  0.00  0.00    +0.000 HD
ENDBRANCH  20  21
ENDBRANCH  17  20
ENDBRANCH  13  17
ENDBRANCH   5   9
BRANCH   1  25
ATOM     23  C   UNL     1       4.931   4.438  18.840  0.00  0.00    +0.000 C 
ATOM     24  C   UNL     1       4.664   5.928  18.813  0.00  0.00    +0.000 C 
ATOM     25  N   UNL     1       3.233   5.983  18.781  0.00  0.00    +0.000 N 
ATOM     26  C   UNL     1       2.723   4.750  18.406  0.00  0.00    +0.000 C 
ATOM     27  O   UNL     1       1.568   4.451  18.153  0.00  0.00    +0.000 OA
ATOM     28  O   UNL     1       3.742   3.844  18.293  0.00  0.00    +0.000 OA
BRANCH  23  29
ATOM     29  C   UNL     1       6.132   4.034  17.993  0.00  0.00    +0.000 C 
BRANCH  29  33
ATOM     30  C   UNL     1       6.050   4.006  14.209  0.00  0.00    +0.000 C 
ATOM     31  C   UNL     1       6.585   4.266  15.590  0.00  0.00    +0.000 C 
ATOM     32  O   UNL     1       7.651   4.840  15.793  0.00  0.00    +0.000 OA
ATOM     33  N   UNL     1       5.762   3.832  16.601  0.00  0.00    +0.000 N 
ATOM     34  H   UNL     1       5.083   3.105  16.394  0.00  0.00    +0.000 HD
ENDBRANCH  29  33
ENDBRANCH  23  29
ENDBRANCH   1  25
TORSDOF 8
ENDMDL
MODEL 8
REMARK VINA RESULT:      -7.4      0.892      1.356
REMARK  Name = 
REMARK  9 active torsions:
REMARK  status: ('A' for Active; 'I' for Inactive)
REMARK    1  A    between atoms: C_1  and  C_2
REMARK    2  A    between atoms: N_4  and  C_5
REMARK    3  A    between atoms: C_5  and  C_6
REMARK    4  A    between atoms: N_8  and  C_9
REMARK    5  A    between atoms: C_13  and  C_14
REMARK    6  A    between atoms: C_18  and  C_20
REMARK    7  A    between atoms: C_20  and  O_21
REMARK    8  A    between atoms: C_20  and  C_22
REMARK    9  A    between atoms: C_22  and  O_23
REMARK                            x       y       z     vdW  Elec       q    Type
REMARK                         _______ _______ _______ _____ _____    ______ ____
ROOT
ATOM      1  C   UNL     1       2.906   7.010  18.731  0.00  0.00    +0.000 A 
ATOM      2  C   UNL     1       2.223   7.071  19.950  0.00  0.00    +0.000 A 
ATOM      3  C   UNL     1       1.417   8.167  20.260  0.00  0.00    +0.000 A 
ATOM      4  F   UNL     1       0.829   8.202  21.465  0.00  0.00    +0.000 F 
ATOM      5  C   UNL     1       1.244   9.222  19.364  0.00  0.00    +0.000 A 
ATOM      6  C   UNL     1       1.911   9.145  18.141  0.00  0.00    +0.000 A 
ATOM      7  F   UNL     1       1.759  10.116  17.227  0.00  0.00    +0.000 F 
ATOM      8  C   UNL     1       2.746   8.068  17.828  0.00  0.00    +0.000 A 
ENDROOT
BRANCH   5   9
ATOM      9  C   UNL     1       0.397  10.366  19.699  0.00  0.00    +0.000 C 
ATOM     10  C   UNL     1      -0.910  10.377  19.374  0.00  0.00    +0.000 C 
ATOM     11  C   UNL     1      -1.847  11.513  19.677  0.00  0.00    +0.000 C 
ATOM     12  N   UNL     1      -1.200  12.545  20.484  0.00  0.00    +0.000 N 
ATOM     13  C   UNL     1      -2.014  13.360  21.265  0.00  0.00    +0.000 C 
ATOM     14  O   UNL     1      -3.235  13.192  21.314  0.00  0.00    +0.000 OA
ATOM     15  C   UNL     1       0.212  12.805  20.184  0.00  0.00    +0.000 C 
ATOM     16  C   UNL     1       1.046  11.539  20.374  0.00  0.00    +0.000 C 
BRANCH  13  17
ATOM     17  C   UNL     1      -1.337  14.463  22.109  0.00  0.00    +0.000 C 
BRANCH  17  18
ATOM     18  O   UNL     1      -0.119  14.018  22.710  0.00  0.00    +0.000 OA
ATOM     19  H   UNL     1       0.512  13.858  21.986  0.00  0.00    +0.000 HD
ENDBRANCH  17  18
BRANCH  17  20
ATOM     20  C   UNL     1      -1.056  15.704  21.245  0.00  0.00    +0.000 C 
BRANCH  20  21
ATOM     21  O   UNL     1      -1.968  15.804  20.149  0.00  0.00    +0.000 OA
ATOM     22  H   UNL     1      -1.891  14.990  19.621  0.00  0.00    +0.000 HD
ENDBRANCH  20  21
ENDBRANCH  17  20
ENDBRANCH  13  17
ENDBRANCH   5   9
BRANCH   1  25
ATOM     23  C   UNL     1       5.609   4.564  18.400  0.00  0.00    +0.000 C 
ATOM     24  C   UNL     1       5.184   6.017  18.386  0.00  0.00    +0.000 C 
ATOM     25  N   UNL     1       3.756   5.921  18.437  0.00  0.00    +0.000 N 
ATOM     26  C   UNL     1       3.359   4.638  18.093  0.00  0.00    +0.000 C 
ATOM     27  O   UNL     1       2.230   4.216  17.908  0.00  0.00    +0.000 OA
ATOM     28  O   UNL     1       4.460   3.844  17.923  0.00  0.00    +0.000 OA
BRANCH  23  29
ATOM     29  C   UNL     1       6.796   4.282  17.485  0.00  0.00    +0.000 C 
BRANCH  29  33
ATOM     30  C   UNL     1       6.220   3.937  13.760  0.00  0.00    +0.000 C 
ATOM     31  C   UNL     1       6.772   4.504  15.039  0.00  0.00    +0.000 C 
ATOM     32  O   UNL     1       7.500   5.491  15.069  0.00  0.00    +0.000 OA
ATOM     33  N   UNL     1       6.365   3.838  16.170  0.00  0.00    +0.000 N 
ATOM     34  H   UNL     1       6.046   2.877  16.077  0.00  0.00    +0.000 HD
ENDBRANCH  29  33
ENDBRANCH  23  29
ENDBRANCH   1  25
TORSDOF 8
ENDMDL
MODEL 9
REMARK VINA RESULT:      -7.4      1.735     10.837
REMARK  Name = 
REMARK  9 active torsions:
REMARK  status: ('A' for Active; 'I' for Inactive)
REMARK    1  A    between atoms: C_1  and  C_2
REMARK    2  A    between atoms: N_4  and  C_5
REMARK    3  A    between atoms: C_5  and  C_6
REMARK    4  A    between atoms: N_8  and  C_9
REMARK    5  A    between atoms: C_13  and  C_14
REMARK    6  A    between atoms: C_18  and  C_20
REMARK    7  A    between atoms: C_20  and  O_21
REMARK    8  A    between atoms: C_20  and  C_22
REMARK    9  A    between atoms: C_22  and  O_23
REMARK                            x       y       z     vdW  Elec       q    Type
REMARK                         _______ _______ _______ _____ _____    ______ ____
ROOT
ATOM      1  C   UNL     1       0.486   9.500  20.649  0.00  0.00    +0.000 A 
ATOM      2  C   UNL     1       0.939   9.798  19.360  0.00  0.00    +0.000 A 
ATOM      3  C   UNL     1       1.763   8.907  18.672  0.00  0.00    +0.000 A 
ATOM      4  F   UNL     1       2.213   9.266  17.460  0.00  0.00    +0.000 F 
ATOM      5  C   UNL     1       2.146   7.688  19.229  0.00  0.00    +0.000 A 
ATOM      6  C   UNL     1       1.674   7.387  20.508  0.00  0.00    +0.000 A 
ATOM      7  F   UNL     1       1.983   6.215  21.083  0.00  0.00    +0.000 F 
ATOM      8  C   UNL     1       0.871   8.282  21.222  0.00  0.00    +0.000 A 
ENDROOT
BRANCH   5   9
ATOM      9  C   UNL     1       3.010   6.761  18.500  0.00  0.00    +0.000 C 
ATOM     10  C   UNL     1       2.540   5.578  18.059  0.00  0.00    +0.000 C 
ATOM     11  C   UNL     1       3.362   4.570  17.306  0.00  0.00    +0.000 C 
ATOM     12  N   UNL     1       4.694   5.083  16.994  0.00  0.00    +0.000 N 
ATOM     13  C   UNL     1       5.361   4.532  15.906  0.00  0.00    +0.000 C 
ATOM     14  O   UNL     1       4.834   3.671  15.197  0.00  0.00    +0.000 OA
ATOM     15  C   UNL     1       5.312   5.932  18.019  0.00  0.00    +0.000 C 
ATOM     16  C   UNL     1       4.444   7.157  18.300  0.00  0.00    +0.000 C 
BRANCH  13  17
ATOM     17  C   UNL     1       6.775   5.061  15.579  0.00  0.00    +0.000 C 
BRANCH  17  18
ATOM     18  O   UNL     1       7.792   4.402  16.337  0.00  0.00    +0.000 OA
ATOM     19  H   UNL     1       8.476   5.067  16.532  0.00  0.00    +0.000 HD
ENDBRANCH  17  18
BRANCH  17  20
ATOM     20  C   UNL     1       7.074   4.902  14.079  0.00  0.00    +0.000 C 
BRANCH  20  21
ATOM     21  O   UNL     1       8.203   5.682  13.678  0.00  0.00    +0.000 OA
ATOM     22  H   UNL     1       8.814   5.099  13.196  0.00  0.00    +0.000 HD
ENDBRANCH  20  21
ENDBRANCH  17  20
ENDBRANCH  13  17
ENDBRANCH   5   9
BRANCH   1  25
ATOM     23  C   UNL     1      -1.987  11.917  21.854  0.00  0.00    +0.000 C 
ATOM     24  C   UNL     1      -1.059  11.476  20.742  0.00  0.00    +0.000 C 
ATOM     25  N   UNL     1      -0.312  10.423  21.362  0.00  0.00    +0.000 N 
ATOM     26  C   UNL     1      -0.445  10.502  22.740  0.00  0.00    +0.000 C 
ATOM     27  O   UNL     1       0.137   9.859  23.597  0.00  0.00    +0.000 OA
ATOM     28  O   UNL     1      -1.335  11.490  23.062  0.00  0.00    +0.000 OA
BRANCH  23  29
ATOM     29  C   UNL     1      -2.189  13.426  21.896  0.00  0.00    +0.000 C 
BRANCH  29  33
ATOM     30  C   UNL     1      -2.865  14.910  25.312  0.00  0.00    +0.000 C 
ATOM     31  C   UNL     1      -3.168  14.377  23.939  0.00  0.00    +0.000 C 
ATOM     32  O   UNL     1      -4.301  14.356  23.469  0.00  0.00    +0.000 OA
ATOM     33  N   UNL     1      -2.060  13.946  23.248  0.00  0.00    +0.000 N 
ATOM     34  H   UNL     1      -1.230  13.690  23.775  0.00  0.00    +0.000 HD
ENDBRANCH  29  33
ENDBRANCH  23  29
ENDBRANCH   1  25
TORSDOF 8
ENDMDL
