MODEL 1
REMARK VINA RESULT:      -6.4      0.000      0.000
REMARK  Name = 
REMARK  21 active torsions:
REMARK  status: ('A' for Active; 'I' for Inactive)
REMARK    1  A    between atoms: C_1  and  C_2
REMARK    2  A    between atoms: C_2  and  C_3
REMARK    3  A    between atoms: C_3  and  C_4
REMARK    4  A    between atoms: C_4  and  C_5
REMARK    5  A    between atoms: C_5  and  C_6
REMARK    6  A    between atoms: C_6  and  O_7
REMARK    7  A    between atoms: C_6  and  C_8
REMARK    8  A    between atoms: C_8  and  C_9
REMARK    9  A    between atoms: C_9  and  C_10
REMARK   10  A    between atoms: C_11  and  O_12
REMARK   11  A    between atoms: C_14  and  O_15
REMARK   12  A    between atoms: C_16  and  C_17
REMARK   13  A    between atoms: C_17  and  C_18
REMARK   14  A    between atoms: C_19  and  C_20
REMARK   15  A    between atoms: C_20  and  C_21
REMARK   16  A    between atoms: C_21  and  C_22
REMARK   17  A    between atoms: C_22  and  C_23
REMARK   18  A    between atoms: C_23  and  O_25
REMARK   19  A    between atoms: O_25  and  C_26
REMARK   20  A    between atoms: C_26  and  C_27
REMARK   21  A    between atoms: C_26  and  C_28
REMARK                            x       y       z     vdW  Elec       q    Type
REMARK                         _______ _______ _______ _____ _____    ______ ____
ROOT
ATOM      1  C   UNL     1       5.844   4.182  16.687  0.00  0.00    +0.000 C 
ATOM      2  C   UNL     1       7.136   4.854  17.168  0.00  0.00    +0.000 C 
ATOM      3  C   UNL     1       6.815   5.428  18.531  0.00  0.00    +0.000 C 
ATOM      4  C   UNL     1       5.352   5.826  18.472  0.00  0.00    +0.000 C 
ATOM      5  C   UNL     1       4.695   5.005  17.337  0.00  0.00    +0.000 C 
ENDROOT
BRANCH   2   6
ATOM      6  O   UNL     1       8.195   3.913  17.279  0.00  0.00    +0.000 OA
ATOM      7  H   UNL     1       8.415   3.803  18.221  0.00  0.00    +0.000 HD
ENDBRANCH   2   6
BRANCH   4   8
ATOM      8  O   UNL     1       4.789   5.649  19.762  0.00  0.00    +0.000 OA
ATOM      9  H   UNL     1       5.499   5.699  20.425  0.00  0.00    +0.000 HD
ENDBRANCH   4   8
BRANCH   1  10
ATOM     10  C   UNL     1       5.757   4.123  15.142  0.00  0.00    +0.000 C 
BRANCH  10  11
ATOM     11  C   UNL     1       6.526   5.269  14.463  0.00  0.00    +0.000 C 
BRANCH  11  12
ATOM     12  C   UNL     1       7.556   4.806  13.426  0.00  0.00    +0.000 C 
BRANCH  12  13
ATOM     13  O   UNL     1       8.482   5.856  13.165  0.00  0.00    +0.000 OA
ATOM     14  H   UNL     1       8.640   5.883  12.206  0.00  0.00    +0.000 HD
ENDBRANCH  12  13
BRANCH  12  15
ATOM     15  C   UNL     1       6.836   4.402  12.130  0.00  0.00    +0.000 C 
BRANCH  15  16
ATOM     16  C   UNL     1       7.310   3.058  11.582  0.00  0.00    +0.000 C 
BRANCH  16  17
ATOM     17  C   UNL     1       6.214   2.000  11.712  0.00  0.00    +0.000 C 
BRANCH  17  19
ATOM     18  C   UNL     1       6.017  -0.492  11.433  0.00  0.00    +0.000 C 
ATOM     19  C   UNL     1       6.503   0.804  10.810  0.00  0.00    +0.000 C 
ENDBRANCH  17  19
ENDBRANCH  16  17
ENDBRANCH  15  16
ENDBRANCH  12  15
ENDBRANCH  11  12
ENDBRANCH  10  11
ENDBRANCH   1  10
BRANCH   5  20
ATOM     20  C   UNL     1       3.537   4.091  17.773  0.00  0.00    +0.000 C 
BRANCH  20  21
ATOM     21  C   UNL     1       3.956   2.709  18.196  0.00  0.00    +0.000 C 
ATOM     22  C   UNL     1       3.151   1.748  18.665  0.00  0.00    +0.000 C 
BRANCH  22  23
ATOM     23  C   UNL     1       1.681   1.917  18.918  0.00  0.00    +0.000 C 
BRANCH  23  24
ATOM     24  C   UNL     1       1.393   2.575  20.256  0.00  0.00    +0.000 C 
BRANCH  24  25
ATOM     25  C   UNL     1       0.750   3.955  20.115  0.00  0.00    +0.000 C 
BRANCH  25  26
ATOM     26  C   UNL     1       1.583   4.982  20.840  0.00  0.00    +0.000 C 
ATOM     27  O   UNL     1       2.670   4.763  21.347  0.00  0.00    +0.000 OA
BRANCH  26  28
ATOM     28  O   UNL     1       0.946   6.185  20.833  0.00  0.00    +0.000 OA
BRANCH  28  29
ATOM     29  C   UNL     1       1.816   7.321  20.683  0.00  0.00    +0.000 C 
ATOM     30  C   UNL     1       2.111   7.551  19.205  0.00  0.00    +0.000 C 
ATOM     31  C   UNL     1       1.110   8.525  21.289  0.00  0.00    +0.000 C 
ENDBRANCH  28  29
ENDBRANCH  26  28
ENDBRANCH  25  26
ENDBRANCH  24  25
ENDBRANCH  23  24
ENDBRANCH  22  23
ENDBRANCH  20  21
ENDBRANCH   5  20
TORSDOF 18
ENDMDL
MODEL 2
REMARK VINA RESULT:      -6.3      5.375      7.530
REMARK  Name = 
REMARK  21 active torsions:
REMARK  status: ('A' for Active; 'I' for Inactive)
REMARK    1  A    between atoms: C_1  and  C_2
REMARK    2  A    between atoms: C_2  and  C_3
REMARK    3  A    between atoms: C_3  and  C_4
REMARK    4  A    between atoms: C_4  and  C_5
REMARK    5  A    between atoms: C_5  and  C_6
REMARK    6  A    between atoms: C_6  and  O_7
REMARK    7  A    between atoms: C_6  and  C_8
REMARK    8  A    between atoms: C_8  and  C_9
REMARK    9  A    between atoms: C_9  and  C_10
REMARK   10  A    between atoms: C_11  and  O_12
REMARK   11  A    between atoms: C_14  and  O_15
REMARK   12  A    between atoms: C_16  and  C_17
REMARK   13  A    between atoms: C_17  and  C_18
REMARK   14  A    between atoms: C_19  and  C_20
REMARK   15  A    between atoms: C_20  and  C_21
REMARK   16  A    between atoms: C_21  and  C_22
REMARK   17  A    between atoms: C_22  and  C_23
REMARK   18  A    between atoms: C_23  and  O_25
REMARK   19  A    between atoms: O_25  and  C_26
REMARK   20  A    between atoms: C_26  and  C_27
REMARK   21  A    between atoms: C_26  and  C_28
REMARK                            x       y       z     vdW  Elec       q    Type
REMARK                         _______ _______ _______ _____ _____    ______ ____
ROOT
ATOM      1  C   UNL     1       5.815   6.593  17.463  0.00  0.00    +0.000 C 
ATOM      2  C   UNL     1       4.749   5.712  18.125  0.00  0.00    +0.000 C 
ATOM      3  C   UNL     1       5.348   5.262  19.439  0.00  0.00    +0.000 C 
ATOM      4  C   UNL     1       6.840   5.142  19.188  0.00  0.00    +0.000 C 
ATOM      5  C   UNL     1       7.175   6.026  17.963  0.00  0.00    +0.000 C 
ENDROOT
BRANCH   2   6
ATOM      6  O   UNL     1       3.554   6.443  18.365  0.00  0.00    +0.000 OA
ATOM      7  H   UNL     1       3.601   6.829  19.258  0.00  0.00    +0.000 HD
ENDBRANCH   2   6
BRANCH   4   8
ATOM      8  O   UNL     1       7.523   5.473  20.388  0.00  0.00    +0.000 OA
ATOM      9  H   UNL     1       7.378   4.764  21.038  0.00  0.00    +0.000 HD
ENDBRANCH   4   8
BRANCH   1  10
ATOM     10  C   UNL     1       5.687   6.607  15.920  0.00  0.00    +0.000 C 
BRANCH  10  11
ATOM     11  C   UNL     1       6.515   5.497  15.250  0.00  0.00    +0.000 C 
BRANCH  11  12
ATOM     12  C   UNL     1       5.710   4.241  14.895  0.00  0.00    +0.000 C 
BRANCH  12  13
ATOM     13  O   UNL     1       6.202   3.128  15.635  0.00  0.00    +0.000 OA
ATOM     14  H   UNL     1       7.148   3.277  15.803  0.00  0.00    +0.000 HD
ENDBRANCH  12  13
BRANCH  12  15
ATOM     15  C   UNL     1       5.825   3.966  13.388  0.00  0.00    +0.000 C 
BRANCH  15  16
ATOM     16  C   UNL     1       4.542   3.393  12.790  0.00  0.00    +0.000 C 
BRANCH  16  17
ATOM     17  C   UNL     1       4.743   3.028  11.319  0.00  0.00    +0.000 C 
BRANCH  17  19
ATOM     18  C   UNL     1       3.128   4.252   9.828  0.00  0.00    +0.000 C 
ATOM     19  C   UNL     1       3.406   2.966  10.587  0.00  0.00    +0.000 C 
ENDBRANCH  17  19
ENDBRANCH  16  17
ENDBRANCH  15  16
ENDBRANCH  12  15
ENDBRANCH  11  12
ENDBRANCH  10  11
ENDBRANCH   1  10
BRANCH   5  20
ATOM     20  C   UNL     1       8.184   7.157  18.225  0.00  0.00    +0.000 C 
BRANCH  20  21
ATOM     21  C   UNL     1       7.767   8.503  17.699  0.00  0.00    +0.000 C 
ATOM     22  C   UNL     1       8.211   9.691  18.127  0.00  0.00    +0.000 C 
BRANCH  22  23
ATOM     23  C   UNL     1       9.164   9.882  19.271  0.00  0.00    +0.000 C 
BRANCH  23  24
ATOM     24  C   UNL     1      10.092  11.066  19.062  0.00  0.00    +0.000 C 
BRANCH  24  25
ATOM     25  C   UNL     1       9.811  11.823  17.764  0.00  0.00    +0.000 C 
BRANCH  25  26
ATOM     26  C   UNL     1       9.435  13.250  18.076  0.00  0.00    +0.000 C 
ATOM     27  O   UNL     1       8.294  13.682  18.086  0.00  0.00    +0.000 OA
BRANCH  26  28
ATOM     28  O   UNL     1      10.553  13.975  18.351  0.00  0.00    +0.000 OA
BRANCH  28  29
ATOM     29  C   UNL     1      10.378  14.984  19.361  0.00  0.00    +0.000 C 
ATOM     30  C   UNL     1      10.584  14.371  20.742  0.00  0.00    +0.000 C 
ATOM     31  C   UNL     1      11.398  16.082  19.097  0.00  0.00    +0.000 C 
ENDBRANCH  28  29
ENDBRANCH  26  28
ENDBRANCH  25  26
ENDBRANCH  24  25
ENDBRANCH  23  24
ENDBRANCH  22  23
ENDBRANCH  20  21
ENDBRANCH   5  20
TORSDOF 18
ENDMDL
MODEL 3
REMARK VINA RESULT:      -6.3      3.404      5.337
REMARK  Name = 
REMARK  21 active torsions:
REMARK  status: ('A' for Active; 'I' for Inactive)
REMARK    1  A    between atoms: C_1  and  C_2
REMARK    2  A    between atoms: C_2  and  C_3
REMARK    3  A    between atoms: C_3  and  C_4
REMARK    4  A    between atoms: C_4  and  C_5
REMARK    5  A    between atoms: C_5  and  C_6
REMARK    6  A    between atoms: C_6  and  O_7
REMARK    7  A    between atoms: C_6  and  C_8
REMARK    8  A    between atoms: C_8  and  C_9
REMARK    9  A    between atoms: C_9  and  C_10
REMARK   10  A    between atoms: C_11  and  O_12
REMARK   11  A    between atoms: C_14  and  O_15
REMARK   12  A    between atoms: C_16  and  C_17
REMARK   13  A    between atoms: C_17  and  C_18
REMARK   14  A    between atoms: C_19  and  C_20
REMARK   15  A    between atoms: C_20  and  C_21
REMARK   16  A    between atoms: C_21  and  C_22
REMARK   17  A    between atoms: C_22  and  C_23
REMARK   18  A    between atoms: C_23  and  O_25
REMARK   19  A    between atoms: O_25  and  C_26
REMARK   20  A    between atoms: C_26  and  C_27
REMARK   21  A    between atoms: C_26  and  C_28
REMARK                            x       y       z     vdW  Elec       q    Type
REMARK                         _______ _______ _______ _____ _____    ______ ____
ROOT
ATOM      1  C   UNL     1       4.178   4.311  19.004  0.00  0.00    +0.000 C 
ATOM      2  C   UNL     1       4.115   3.007  19.809  0.00  0.00    +0.000 C 
ATOM      3  C   UNL     1       2.690   2.899  20.303  0.00  0.00    +0.000 C 
ATOM      4  C   UNL     1       2.227   4.327  20.530  0.00  0.00    +0.000 C 
ATOM      5  C   UNL     1       3.126   5.246  19.669  0.00  0.00    +0.000 C 
ENDROOT
BRANCH   2   6
ATOM      6  O   UNL     1       4.428   1.885  18.994  0.00  0.00    +0.000 OA
ATOM      7  H   UNL     1       3.679   1.717  18.395  0.00  0.00    +0.000 HD
ENDBRANCH   2   6
BRANCH   4   8
ATOM      8  O   UNL     1       0.837   4.395  20.252  0.00  0.00    +0.000 OA
ATOM      9  H   UNL     1       0.673   5.141  19.651  0.00  0.00    +0.000 HD
ENDBRANCH   4   8
BRANCH   1  10
ATOM     10  C   UNL     1       5.604   4.914  18.978  0.00  0.00    +0.000 C 
BRANCH  10  11
ATOM     11  C   UNL     1       6.166   5.037  17.551  0.00  0.00    +0.000 C 
BRANCH  11  12
ATOM     12  C   UNL     1       5.280   4.404  16.471  0.00  0.00    +0.000 C 
BRANCH  12  13
ATOM     13  O   UNL     1       5.572   3.015  16.362  0.00  0.00    +0.000 OA
ATOM     14  H   UNL     1       6.030   2.872  15.516  0.00  0.00    +0.000 HD
ENDBRANCH  12  13
BRANCH  12  15
ATOM     15  C   UNL     1       5.529   5.104  15.127  0.00  0.00    +0.000 C 
BRANCH  15  16
ATOM     16  C   UNL     1       6.919   4.822  14.559  0.00  0.00    +0.000 C 
BRANCH  16  17
ATOM     17  C   UNL     1       6.820   4.094  13.218  0.00  0.00    +0.000 C 
BRANCH  17  19
ATOM     18  C   UNL     1       5.257   2.822  11.712  0.00  0.00    +0.000 C 
ATOM     19  C   UNL     1       5.364   3.812  12.859  0.00  0.00    +0.000 C 
ENDBRANCH  17  19
ENDBRANCH  16  17
ENDBRANCH  15  16
ENDBRANCH  12  15
ENDBRANCH  11  12
ENDBRANCH  10  11
ENDBRANCH   1  10
BRANCH   5  20
ATOM     20  C   UNL     1       2.388   6.087  18.615  0.00  0.00    +0.000 C 
BRANCH  20  21
ATOM     21  C   UNL     1       3.140   7.301  18.142  0.00  0.00    +0.000 C 
ATOM     22  C   UNL     1       2.610   8.492  17.842  0.00  0.00    +0.000 C 
BRANCH  22  23
ATOM     23  C   UNL     1       1.141   8.800  17.861  0.00  0.00    +0.000 C 
BRANCH  23  24
ATOM     24  C   UNL     1       0.833  10.129  18.529  0.00  0.00    +0.000 C 
BRANCH  24  25
ATOM     25  C   UNL     1      -0.605  10.220  19.040  0.00  0.00    +0.000 C 
BRANCH  25  26
ATOM     26  C   UNL     1      -1.138  11.613  18.817  0.00  0.00    +0.000 C 
ATOM     27  O   UNL     1      -1.160  12.492  19.662  0.00  0.00    +0.000 OA
BRANCH  26  28
ATOM     28  O   UNL     1      -1.580  11.741  17.537  0.00  0.00    +0.000 OA
BRANCH  28  29
ATOM     29  C   UNL     1      -2.685  10.885  17.197  0.00  0.00    +0.000 C 
ATOM     30  C   UNL     1      -3.965  11.423  17.826  0.00  0.00    +0.000 C 
ATOM     31  C   UNL     1      -2.797  10.856  15.680  0.00  0.00    +0.000 C 
ENDBRANCH  28  29
ENDBRANCH  26  28
ENDBRANCH  25  26
ENDBRANCH  24  25
ENDBRANCH  23  24
ENDBRANCH  22  23
ENDBRANCH  20  21
ENDBRANCH   5  20
TORSDOF 18
ENDMDL
MODEL 4
REMARK VINA RESULT:      -6.3      3.125      6.092
REMARK  Name = 
REMARK  21 active torsions:
REMARK  status: ('A' for Active; 'I' for Inactive)
REMARK    1  A    between atoms: C_1  and  C_2
REMARK    2  A    between atoms: C_2  and  C_3
REMARK    3  A    between atoms: C_3  and  C_4
REMARK    4  A    between atoms: C_4  and  C_5
REMARK    5  A    between atoms: C_5  and  C_6
REMARK    6  A    between atoms: C_6  and  O_7
REMARK    7  A    between atoms: C_6  and  C_8
REMARK    8  A    between atoms: C_8  and  C_9
REMARK    9  A    between atoms: C_9  and  C_10
REMARK   10  A    between atoms: C_11  and  O_12
REMARK   11  A    between atoms: C_14  and  O_15
REMARK   12  A    between atoms: C_16  and  C_17
REMARK   13  A    between atoms: C_17  and  C_18
REMARK   14  A    between atoms: C_19  and  C_20
REMARK   15  A    between atoms: C_20  and  C_21
REMARK   16  A    between atoms: C_21  and  C_22
REMARK   17  A    between atoms: C_22  and  C_23
REMARK   18  A    between atoms: C_23  and  O_25
REMARK   19  A    between atoms: O_25  and  C_26
REMARK   20  A    between atoms: C_26  and  C_27
REMARK   21  A    between atoms: C_26  and  C_28
REMARK                            x       y       z     vdW  Elec       q    Type
REMARK                         _______ _______ _______ _____ _____    ______ ____
ROOT
ATOM      1  C   UNL     1       5.410   5.220  18.235  0.00  0.00    +0.000 C 
ATOM      2  C   UNL     1       6.317   4.377  17.329  0.00  0.00    +0.000 C 
ATOM      3  C   UNL     1       6.413   5.139  16.026  0.00  0.00    +0.000 C 
ATOM      4  C   UNL     1       5.075   5.837  15.860  0.00  0.00    +0.000 C 
ATOM      5  C   UNL     1       4.437   5.950  17.265  0.00  0.00    +0.000 C 
ENDROOT
BRANCH   2   6
ATOM      6  O   UNL     1       7.611   4.227  17.896  0.00  0.00    +0.000 OA
ATOM      7  H   UNL     1       8.238   4.774  17.389  0.00  0.00    +0.000 HD
ENDBRANCH   2   6
BRANCH   4   8
ATOM      8  O   UNL     1       5.293   7.066  15.185  0.00  0.00    +0.000 OA
ATOM      9  H   UNL     1       6.187   7.386  15.395  0.00  0.00    +0.000 HD
ENDBRANCH   4   8
BRANCH   1  10
ATOM     10  C   UNL     1       4.683   4.359  19.298  0.00  0.00    +0.000 C 
BRANCH  10  11
ATOM     11  C   UNL     1       4.893   2.851  19.080  0.00  0.00    +0.000 C 
BRANCH  11  12
ATOM     12  C   UNL     1       3.606   2.077  18.769  0.00  0.00    +0.000 C 
BRANCH  12  13
ATOM     13  O   UNL     1       3.927   0.742  18.391  0.00  0.00    +0.000 OA
ATOM     14  H   UNL     1       3.344   0.493  17.654  0.00  0.00    +0.000 HD
ENDBRANCH  12  13
BRANCH  12  15
ATOM     15  C   UNL     1       2.845   2.779  17.635  0.00  0.00    +0.000 C 
BRANCH  15  16
ATOM     16  C   UNL     1       1.582   3.490  18.120  0.00  0.00    +0.000 C 
BRANCH  16  17
ATOM     17  C   UNL     1       0.744   2.566  19.004  0.00  0.00    +0.000 C 
BRANCH  17  19
ATOM     18  C   UNL     1       1.256   4.469  20.568  0.00  0.00    +0.000 C 
ATOM     19  C   UNL     1       0.768   3.035  20.456  0.00  0.00    +0.000 C 
ENDBRANCH  17  19
ENDBRANCH  16  17
ENDBRANCH  15  16
ENDBRANCH  12  15
ENDBRANCH  11  12
ENDBRANCH  10  11
ENDBRANCH   1  10
BRANCH   5  20
ATOM     20  C   UNL     1       4.151   7.384  17.743  0.00  0.00    +0.000 C 
BRANCH  20  21
ATOM     21  C   UNL     1       2.727   7.834  17.557  0.00  0.00    +0.000 C 
ATOM     22  C   UNL     1       1.809   7.970  18.521  0.00  0.00    +0.000 C 
BRANCH  22  23
ATOM     23  C   UNL     1       2.032   7.624  19.964  0.00  0.00    +0.000 C 
BRANCH  23  24
ATOM     24  C   UNL     1       1.750   8.792  20.893  0.00  0.00    +0.000 C 
BRANCH  24  25
ATOM     25  C   UNL     1       0.321   8.789  21.438  0.00  0.00    +0.000 C 
BRANCH  25  26
ATOM     26  C   UNL     1      -0.267  10.174  21.334  0.00  0.00    +0.000 C 
ATOM     27  O   UNL     1      -1.109  10.630  22.090  0.00  0.00    +0.000 OA
BRANCH  26  28
ATOM     28  O   UNL     1       0.286  10.835  20.282  0.00  0.00    +0.000 OA
BRANCH  28  29
ATOM     29  C   UNL     1      -0.666  11.429  19.382  0.00  0.00    +0.000 C 
ATOM     30  C   UNL     1      -0.025  12.608  18.659  0.00  0.00    +0.000 C 
ATOM     31  C   UNL     1      -1.097  10.355  18.393  0.00  0.00    +0.000 C 
ENDBRANCH  28  29
ENDBRANCH  26  28
ENDBRANCH  25  26
ENDBRANCH  24  25
ENDBRANCH  23  24
ENDBRANCH  22  23
ENDBRANCH  20  21
ENDBRANCH   5  20
TORSDOF 18
ENDMDL
MODEL 5
REMARK VINA RESULT:      -6.3      2.648      4.852
REMARK  Name = 
REMARK  21 active torsions:
REMARK  status: ('A' for Active; 'I' for Inactive)
REMARK    1  A    between atoms: C_1  and  C_2
REMARK    2  A    between atoms: C_2  and  C_3
REMARK    3  A    between atoms: C_3  and  C_4
REMARK    4  A    between atoms: C_4  and  C_5
REMARK    5  A    between atoms: C_5  and  C_6
REMARK    6  A    between atoms: C_6  and  O_7
REMARK    7  A    between atoms: C_6  and  C_8
REMARK    8  A    between atoms: C_8  and  C_9
REMARK    9  A    between atoms: C_9  and  C_10
REMARK   10  A    between atoms: C_11  and  O_12
REMARK   11  A    between atoms: C_14  and  O_15
REMARK   12  A    between atoms: C_16  and  C_17
REMARK   13  A    between atoms: C_17  and  C_18
REMARK   14  A    between atoms: C_19  and  C_20
REMARK   15  A    between atoms: C_20  and  C_21
REMARK   16  A    between atoms: C_21  and  C_22
REMARK   17  A    between atoms: C_22  and  C_23
REMARK   18  A    between atoms: C_23  and  O_25
REMARK   19  A    between atoms: O_25  and  C_26
REMARK   20  A    between atoms: C_26  and  C_27
REMARK   21  A    between atoms: C_26  and  C_28
REMARK                            x       y       z     vdW  Elec       q    Type
REMARK                         _______ _______ _______ _____ _____    ______ ____
ROOT
ATOM      1  C   UNL     1       3.919   5.437  18.310  0.00  0.00    +0.000 C 
ATOM      2  C   UNL     1       3.854   3.907  18.378  0.00  0.00    +0.000 C 
ATOM      3  C   UNL     1       2.649   3.586  19.235  0.00  0.00    +0.000 C 
ATOM      4  C   UNL     1       2.556   4.714  20.247  0.00  0.00    +0.000 C 
ATOM      5  C   UNL     1       3.314   5.927  19.657  0.00  0.00    +0.000 C 
ENDROOT
BRANCH   2   6
ATOM      6  O   UNL     1       3.688   3.342  17.084  0.00  0.00    +0.000 OA
ATOM      7  H   UNL     1       3.306   4.018  16.496  0.00  0.00    +0.000 HD
ENDBRANCH   2   6
BRANCH   4   8
ATOM      8  O   UNL     1       1.187   4.933  20.547  0.00  0.00    +0.000 OA
ATOM      9  H   UNL     1       0.648   4.303  20.038  0.00  0.00    +0.000 HD
ENDBRANCH   4   8
BRANCH   1  10
ATOM     10  C   UNL     1       5.359   5.951  18.063  0.00  0.00    +0.000 C 
BRANCH  10  11
ATOM     11  C   UNL     1       6.235   4.921  17.328  0.00  0.00    +0.000 C 
BRANCH  11  12
ATOM     12  C   UNL     1       6.537   5.282  15.869  0.00  0.00    +0.000 C 
BRANCH  12  13
ATOM     13  O   UNL     1       5.593   6.243  15.405  0.00  0.00    +0.000 OA
ATOM     14  H   UNL     1       4.706   5.939  15.664  0.00  0.00    +0.000 HD
ENDBRANCH  12  13
BRANCH  12  15
ATOM     15  C   UNL     1       6.472   4.016  15.001  0.00  0.00    +0.000 C 
BRANCH  15  16
ATOM     16  C   UNL     1       5.698   4.226  13.702  0.00  0.00    +0.000 C 
BRANCH  16  17
ATOM     17  C   UNL     1       6.433   3.590  12.522  0.00  0.00    +0.000 C 
BRANCH  17  19
ATOM     18  C   UNL     1       4.214   3.235  11.391  0.00  0.00    +0.000 C 
ATOM     19  C   UNL     1       5.532   2.597  11.792  0.00  0.00    +0.000 C 
ENDBRANCH  17  19
ENDBRANCH  16  17
ENDBRANCH  15  16
ENDBRANCH  12  15
ENDBRANCH  11  12
ENDBRANCH  10  11
ENDBRANCH   1  10
BRANCH   5  20
ATOM     20  C   UNL     1       2.468   7.195  19.456  0.00  0.00    +0.000 C 
BRANCH  20  21
ATOM     21  C   UNL     1       2.538   7.782  18.073  0.00  0.00    +0.000 C 
ATOM     22  C   UNL     1       1.877   8.861  17.637  0.00  0.00    +0.000 C 
BRANCH  22  23
ATOM     23  C   UNL     1       0.883   9.638  18.452  0.00  0.00    +0.000 C 
BRANCH  23  24
ATOM     24  C   UNL     1       1.429  10.978  18.913  0.00  0.00    +0.000 C 
BRANCH  24  25
ATOM     25  C   UNL     1       0.366  11.862  19.566  0.00  0.00    +0.000 C 
BRANCH  25  26
ATOM     26  C   UNL     1       0.707  12.081  21.019  0.00  0.00    +0.000 C 
ATOM     27  O   UNL     1       0.846  13.174  21.543  0.00  0.00    +0.000 OA
BRANCH  26  28
ATOM     28  O   UNL     1       0.827  10.883  21.653  0.00  0.00    +0.000 OA
BRANCH  28  29
ATOM     29  C   UNL     1      -0.413  10.174  21.829  0.00  0.00    +0.000 C 
ATOM     30  C   UNL     1      -0.159   8.672  21.769  0.00  0.00    +0.000 C 
ATOM     31  C   UNL     1      -0.983  10.574  23.182  0.00  0.00    +0.000 C 
ENDBRANCH  28  29
ENDBRANCH  26  28
ENDBRANCH  25  26
ENDBRANCH  24  25
ENDBRANCH  23  24
ENDBRANCH  22  23
ENDBRANCH  20  21
ENDBRANCH   5  20
TORSDOF 18
ENDMDL
MODEL 6
REMARK VINA RESULT:      -6.3      2.562      4.938
REMARK  Name = 
REMARK  21 active torsions:
REMARK  status: ('A' for Active; 'I' for Inactive)
REMARK    1  A    between atoms: C_1  and  C_2
REMARK    2  A    between atoms: C_2  and  C_3
REMARK    3  A    between atoms: C_3  and  C_4
REMARK    4  A    between atoms: C_4  and  C_5
REMARK    5  A    between atoms: C_5  and  C_6
REMARK    6  A    between atoms: C_6  and  O_7
REMARK    7  A    between atoms: C_6  and  C_8
REMARK    8  A    between atoms: C_8  and  C_9
REMARK    9  A    between atoms: C_9  and  C_10
REMARK   10  A    between atoms: C_11  and  O_12
REMARK   11  A    between atoms: C_14  and  O_15
REMARK   12  A    between atoms: C_16  and  C_17
REMARK   13  A    between atoms: C_17  and  C_18
REMARK   14  A    between atoms: C_19  and  C_20
REMARK   15  A    between atoms: C_20  and  C_21
REMARK   16  A    between atoms: C_21  and  C_22
REMARK   17  A    between atoms: C_22  and  C_23
REMARK   18  A    between atoms: C_23  and  O_25
REMARK   19  A    between atoms: O_25  and  C_26
REMARK   20  A    between atoms: C_26  and  C_27
REMARK   21  A    between atoms: C_26  and  C_28
REMARK                            x       y       z     vdW  Elec       q    Type
REMARK                         _______ _______ _______ _____ _____    ______ ____
ROOT
ATOM      1  C   UNL     1       4.125   4.367  19.184  0.00  0.00    +0.000 C 
ATOM      2  C   UNL     1       4.100   2.999  19.878  0.00  0.00    +0.000 C 
ATOM      3  C   UNL     1       2.663   2.778  20.293  0.00  0.00    +0.000 C 
ATOM      4  C   UNL     1       2.112   4.156  20.611  0.00  0.00    +0.000 C 
ATOM      5  C   UNL     1       2.996   5.189  19.871  0.00  0.00    +0.000 C 
ENDROOT
BRANCH   2   6
ATOM      6  O   UNL     1       4.510   1.967  18.991  0.00  0.00    +0.000 OA
ATOM      7  H   UNL     1       5.221   2.310  18.422  0.00  0.00    +0.000 HD
ENDBRANCH   2   6
BRANCH   4   8
ATOM      8  O   UNL     1       0.734   4.176  20.274  0.00  0.00    +0.000 OA
ATOM      9  H   UNL     1       0.280   3.470  20.767  0.00  0.00    +0.000 HD
ENDBRANCH   4   8
BRANCH   1  10
ATOM     10  C   UNL     1       5.516   5.043  19.275  0.00  0.00    +0.000 C 
BRANCH  10  11
ATOM     11  C   UNL     1       6.089   5.399  17.893  0.00  0.00    +0.000 C 
BRANCH  11  12
ATOM     12  C   UNL     1       6.586   4.191  17.089  0.00  0.00    +0.000 C 
BRANCH  12  13
ATOM     13  O   UNL     1       8.009   4.149  17.114  0.00  0.00    +0.000 OA
ATOM     14  H   UNL     1       8.280   3.704  17.935  0.00  0.00    +0.000 HD
ENDBRANCH  12  13
BRANCH  12  15
ATOM     15  C   UNL     1       6.085   4.295  15.641  0.00  0.00    +0.000 C 
BRANCH  15  16
ATOM     16  C   UNL     1       7.061   5.033  14.727  0.00  0.00    +0.000 C 
BRANCH  16  17
ATOM     17  C   UNL     1       6.930   4.545  13.284  0.00  0.00    +0.000 C 
BRANCH  17  19
ATOM     18  C   UNL     1       5.085   3.497  11.932  0.00  0.00    +0.000 C 
ATOM     19  C   UNL     1       5.931   3.395  13.189  0.00  0.00    +0.000 C 
ENDBRANCH  17  19
ENDBRANCH  16  17
ENDBRANCH  15  16
ENDBRANCH  12  15
ENDBRANCH  11  12
ENDBRANCH  10  11
ENDBRANCH   1  10
BRANCH   5  20
ATOM     20  C   UNL     1       2.258   6.075  18.854  0.00  0.00    +0.000 C 
BRANCH  20  21
ATOM     21  C   UNL     1       3.137   7.053  18.122  0.00  0.00    +0.000 C 
ATOM     22  C   UNL     1       2.788   8.281  17.720  0.00  0.00    +0.000 C 
BRANCH  22  23
ATOM     23  C   UNL     1       1.416   8.870  17.874  0.00  0.00    +0.000 C 
BRANCH  23  24
ATOM     24  C   UNL     1       1.435  10.207  18.593  0.00  0.00    +0.000 C 
BRANCH  24  25
ATOM     25  C   UNL     1       0.933  10.116  20.035  0.00  0.00    +0.000 C 
BRANCH  25  26
ATOM     26  C   UNL     1       0.401  11.456  20.476  0.00  0.00    +0.000 C 
ATOM     27  O   UNL     1       0.082  12.360  19.721  0.00  0.00    +0.000 OA
BRANCH  26  28
ATOM     28  O   UNL     1       0.323  11.500  21.834  0.00  0.00    +0.000 OA
BRANCH  28  29
ATOM     29  C   UNL     1      -0.810  10.808  22.389  0.00  0.00    +0.000 C 
ATOM     30  C   UNL     1      -0.330   9.719  23.343  0.00  0.00    +0.000 C 
ATOM     31  C   UNL     1      -1.661  11.834  23.123  0.00  0.00    +0.000 C 
ENDBRANCH  28  29
ENDBRANCH  26  28
ENDBRANCH  25  26
ENDBRANCH  24  25
ENDBRANCH  23  24
ENDBRANCH  22  23
ENDBRANCH  20  21
ENDBRANCH   5  20
TORSDOF 18
ENDMDL
MODEL 7
REMARK VINA RESULT:      -6.2      3.470      6.553
REMARK  Name = 
REMARK  21 active torsions:
REMARK  status: ('A' for Active; 'I' for Inactive)
REMARK    1  A    between atoms: C_1  and  C_2
REMARK    2  A    between atoms: C_2  and  C_3
REMARK    3  A    between atoms: C_3  and  C_4
REMARK    4  A    between atoms: C_4  and  C_5
REMARK    5  A    between atoms: C_5  and  C_6
REMARK    6  A    between atoms: C_6  and  O_7
REMARK    7  A    between atoms: C_6  and  C_8
REMARK    8  A    between atoms: C_8  and  C_9
REMARK    9  A    between atoms: C_9  and  C_10
REMARK   10  A    between atoms: C_11  and  O_12
REMARK   11  A    between atoms: C_14  and  O_15
REMARK   12  A    between atoms: C_16  and  C_17
REMARK   13  A    between atoms: C_17  and  C_18
REMARK   14  A    between atoms: C_19  and  C_20
REMARK   15  A    between atoms: C_20  and  C_21
REMARK   16  A    between atoms: C_21  and  C_22
REMARK   17  A    between atoms: C_22  and  C_23
REMARK   18  A    between atoms: C_23  and  O_25
REMARK   19  A    between atoms: O_25  and  C_26
REMARK   20  A    between atoms: C_26  and  C_27
REMARK   21  A    between atoms: C_26  and  C_28
REMARK                            x       y       z     vdW  Elec       q    Type
REMARK                         _______ _______ _______ _____ _____    ______ ____
ROOT
ATOM      1  C   UNL     1       1.759   4.233  18.394  0.00  0.00    +0.000 C 
ATOM      2  C   UNL     1       1.636   3.507  19.739  0.00  0.00    +0.000 C 
ATOM      3  C   UNL     1       1.540   4.596  20.784  0.00  0.00    +0.000 C 
ATOM      4  C   UNL     1       2.377   5.746  20.255  0.00  0.00    +0.000 C 
ATOM      5  C   UNL     1       2.487   5.569  18.721  0.00  0.00    +0.000 C 
ENDROOT
BRANCH   2   6
ATOM      6  O   UNL     1       0.470   2.696  19.780  0.00  0.00    +0.000 OA
ATOM      7  H   UNL     1       0.444   2.232  20.636  0.00  0.00    +0.000 HD
ENDBRANCH   2   6
BRANCH   4   8
ATOM      8  O   UNL     1       1.791   6.963  20.690  0.00  0.00    +0.000 OA
ATOM      9  H   UNL     1       2.000   7.661  20.046  0.00  0.00    +0.000 HD
ENDBRANCH   4   8
BRANCH   1  10
ATOM     10  C   UNL     1       2.495   3.378  17.333  0.00  0.00    +0.000 C 
BRANCH  10  11
ATOM     11  C   UNL     1       3.626   4.151  16.634  0.00  0.00    +0.000 C 
BRANCH  11  12
ATOM     12  C   UNL     1       5.023   3.560  16.860  0.00  0.00    +0.000 C 
BRANCH  12  13
ATOM     13  O   UNL     1       5.241   3.360  18.253  0.00  0.00    +0.000 OA
ATOM     14  H   UNL     1       6.154   3.047  18.370  0.00  0.00    +0.000 HD
ENDBRANCH  12  13
BRANCH  12  15
ATOM     15  C   UNL     1       6.084   4.513  16.290  0.00  0.00    +0.000 C 
BRANCH  15  16
ATOM     16  C   UNL     1       5.643   5.975  16.316  0.00  0.00    +0.000 C 
BRANCH  16  17
ATOM     17  C   UNL     1       5.998   6.625  17.654  0.00  0.00    +0.000 C 
BRANCH  17  19
ATOM     18  C   UNL     1       7.842   8.337  17.641  0.00  0.00    +0.000 C 
ATOM     19  C   UNL     1       7.501   6.862  17.761  0.00  0.00    +0.000 C 
ENDBRANCH  17  19
ENDBRANCH  16  17
ENDBRANCH  15  16
ENDBRANCH  12  15
ENDBRANCH  11  12
ENDBRANCH  10  11
ENDBRANCH   1  10
BRANCH   5  20
ATOM     20  C   UNL     1       1.922   6.728  17.884  0.00  0.00    +0.000 C 
BRANCH  20  21
ATOM     21  C   UNL     1       2.732   7.995  17.942  0.00  0.00    +0.000 C 
ATOM     22  C   UNL     1       2.247   9.242  17.973  0.00  0.00    +0.000 C 
BRANCH  22  23
ATOM     23  C   UNL     1       0.790   9.592  17.882  0.00  0.00    +0.000 C 
BRANCH  23  24
ATOM     24  C   UNL     1       0.252  10.178  19.176  0.00  0.00    +0.000 C 
BRANCH  24  25
ATOM     25  C   UNL     1       0.057  11.694  19.108  0.00  0.00    +0.000 C 
BRANCH  25  26
ATOM     26  C   UNL     1      -1.408  12.026  19.236  0.00  0.00    +0.000 C 
ATOM     27  O   UNL     1      -1.848  13.038  19.756  0.00  0.00    +0.000 OA
BRANCH  26  28
ATOM     28  O   UNL     1      -2.159  11.037  18.681  0.00  0.00    +0.000 OA
BRANCH  28  29
ATOM     29  C   UNL     1      -2.801  11.396  17.445  0.00  0.00    +0.000 C 
ATOM     30  C   UNL     1      -2.508  10.339  16.386  0.00  0.00    +0.000 C 
ATOM     31  C   UNL     1      -4.296  11.495  17.714  0.00  0.00    +0.000 C 
ENDBRANCH  28  29
ENDBRANCH  26  28
ENDBRANCH  25  26
ENDBRANCH  24  25
ENDBRANCH  23  24
ENDBRANCH  22  23
ENDBRANCH  20  21
ENDBRANCH   5  20
TORSDOF 18
ENDMDL
MODEL 8
REMARK VINA RESULT:      -6.2      3.345      6.646
REMARK  Name = 
REMARK  21 active torsions:
REMARK  status: ('A' for Active; 'I' for Inactive)
REMARK    1  A    between atoms: C_1  and  C_2
REMARK    2  A    between atoms: C_2  and  C_3
REMARK    3  A    between atoms: C_3  and  C_4
REMARK    4  A    between atoms: C_4  and  C_5
REMARK    5  A    between atoms: C_5  and  C_6
REMARK    6  A    between atoms: C_6  and  O_7
REMARK    7  A    between atoms: C_6  and  C_8
REMARK    8  A    between atoms: C_8  and  C_9
REMARK    9  A    between atoms: C_9  and  C_10
REMARK   10  A    between atoms: C_11  and  O_12
REMARK   11  A    between atoms: C_14  and  O_15
REMARK   12  A    between atoms: C_16  and  C_17
REMARK   13  A    between atoms: C_17  and  C_18
REMARK   14  A    between atoms: C_19  and  C_20
REMARK   15  A    between atoms: C_20  and  C_21
REMARK   16  A    between atoms: C_21  and  C_22
REMARK   17  A    between atoms: C_22  and  C_23
REMARK   18  A    between atoms: C_23  and  O_25
REMARK   19  A    between atoms: O_25  and  C_26
REMARK   20  A    between atoms: C_26  and  C_27
REMARK   21  A    between atoms: C_26  and  C_28
REMARK                            x       y       z     vdW  Elec       q    Type
REMARK                         _______ _______ _______ _____ _____    ______ ____
ROOT
ATOM      1  C   UNL     1       5.456   5.219  18.302  0.00  0.00    +0.000 C 
ATOM      2  C   UNL     1       6.628   4.527  17.595  0.00  0.00    +0.000 C 
ATOM      3  C   UNL     1       6.760   5.213  16.253  0.00  0.00    +0.000 C 
ATOM      4  C   UNL     1       5.350   5.613  15.859  0.00  0.00    +0.000 C 
ATOM      5  C   UNL     1       4.508   5.677  17.156  0.00  0.00    +0.000 C 
ENDROOT
BRANCH   2   6
ATOM      6  O   UNL     1       7.834   4.677  18.333  0.00  0.00    +0.000 OA
ATOM      7  H   UNL     1       7.609   4.896  19.255  0.00  0.00    +0.000 HD
ENDBRANCH   2   6
BRANCH   4   8
ATOM      8  O   UNL     1       5.419   6.819  15.113  0.00  0.00    +0.000 OA
ATOM      9  H   UNL     1       4.612   7.336  15.276  0.00  0.00    +0.000 HD
ENDBRANCH   4   8
BRANCH   1  10
ATOM     10  C   UNL     1       4.767   4.293  19.334  0.00  0.00    +0.000 C 
BRANCH  10  11
ATOM     11  C   UNL     1       4.981   2.802  19.024  0.00  0.00    +0.000 C 
BRANCH  11  12
ATOM     12  C   UNL     1       3.691   1.973  19.003  0.00  0.00    +0.000 C 
BRANCH  12  13
ATOM     13  O   UNL     1       3.920   0.742  18.326  0.00  0.00    +0.000 OA
ATOM     14  H   UNL     1       4.063   0.054  18.998  0.00  0.00    +0.000 HD
ENDBRANCH  12  13
BRANCH  12  15
ATOM     15  C   UNL     1       2.582   2.767  18.297  0.00  0.00    +0.000 C 
BRANCH  15  16
ATOM     16  C   UNL     1       1.212   2.579  18.947  0.00  0.00    +0.000 C 
BRANCH  16  17
ATOM     17  C   UNL     1       0.808   3.829  19.730  0.00  0.00    +0.000 C 
BRANCH  17  19
ATOM     18  C   UNL     1       1.570   2.686  21.838  0.00  0.00    +0.000 C 
ATOM     19  C   UNL     1       1.629   3.957  21.010  0.00  0.00    +0.000 C 
ENDBRANCH  17  19
ENDBRANCH  16  17
ENDBRANCH  15  16
ENDBRANCH  12  15
ENDBRANCH  11  12
ENDBRANCH  10  11
ENDBRANCH   1  10
BRANCH   5  20
ATOM     20  C   UNL     1       3.885   7.048  17.467  0.00  0.00    +0.000 C 
BRANCH  20  21
ATOM     21  C   UNL     1       2.806   7.022  18.515  0.00  0.00    +0.000 C 
ATOM     22  C   UNL     1       1.901   7.982  18.742  0.00  0.00    +0.000 C 
BRANCH  22  23
ATOM     23  C   UNL     1       1.857   9.298  18.021  0.00  0.00    +0.000 C 
BRANCH  23  24
ATOM     24  C   UNL     1       0.459   9.891  17.978  0.00  0.00    +0.000 C 
BRANCH  24  25
ATOM     25  C   UNL     1      -0.085  10.236  19.365  0.00  0.00    +0.000 C 
BRANCH  25  26
ATOM     26  C   UNL     1      -1.321  11.089  19.231  0.00  0.00    +0.000 C 
ATOM     27  O   UNL     1      -2.276  10.822  18.520  0.00  0.00    +0.000 OA
BRANCH  26  28
ATOM     28  O   UNL     1      -1.214  12.190  20.023  0.00  0.00    +0.000 OA
BRANCH  28  29
ATOM     29  C   UNL     1      -1.672  12.001  21.374  0.00  0.00    +0.000 C 
ATOM     30  C   UNL     1      -0.656  12.586  22.348  0.00  0.00    +0.000 C 
ATOM     31  C   UNL     1      -3.017  12.702  21.506  0.00  0.00    +0.000 C 
ENDBRANCH  28  29
ENDBRANCH  26  28
ENDBRANCH  25  26
ENDBRANCH  24  25
ENDBRANCH  23  24
ENDBRANCH  22  23
ENDBRANCH  20  21
ENDBRANCH   5  20
TORSDOF 18
ENDMDL
MODEL 9
REMARK VINA RESULT:      -6.2      3.852      6.901
REMARK  Name = 
REMARK  21 active torsions:
REMARK  status: ('A' for Active; 'I' for Inactive)
REMARK    1  A    between atoms: C_1  and  C_2
REMARK    2  A    between atoms: C_2  and  C_3
REMARK    3  A    between atoms: C_3  and  C_4
REMARK    4  A    between atoms: C_4  and  C_5
REMARK    5  A    between atoms: C_5  and  C_6
REMARK    6  A    between atoms: C_6  and  O_7
REMARK    7  A    between atoms: C_6  and  C_8
REMARK    8  A    between atoms: C_8  and  C_9
REMARK    9  A    between atoms: C_9  and  C_10
REMARK   10  A    between atoms: C_11  and  O_12
REMARK   11  A    between atoms: C_14  and  O_15
REMARK   12  A    between atoms: C_16  and  C_17
REMARK   13  A    between atoms: C_17  and  C_18
REMARK   14  A    between atoms: C_19  and  C_20
REMARK   15  A    between atoms: C_20  and  C_21
REMARK   16  A    between atoms: C_21  and  C_22
REMARK   17  A    between atoms: C_22  and  C_23
REMARK   18  A    between atoms: C_23  and  O_25
REMARK   19  A    between atoms: O_25  and  C_26
REMARK   20  A    between atoms: C_26  and  C_27
REMARK   21  A    between atoms: C_26  and  C_28
REMARK                            x       y       z     vdW  Elec       q    Type
REMARK                         _______ _______ _______ _____ _____    ______ ____
ROOT
ATOM      1  C   UNL     1       3.383   4.914  17.997  0.00  0.00    +0.000 C 
ATOM      2  C   UNL     1       2.929   3.456  18.141  0.00  0.00    +0.000 C 
ATOM      3  C   UNL     1       1.914   3.453  19.263  0.00  0.00    +0.000 C 
ATOM      4  C   UNL     1       2.361   4.542  20.222  0.00  0.00    +0.000 C 
ATOM      5  C   UNL     1       3.258   5.519  19.425  0.00  0.00    +0.000 C 
ENDROOT
BRANCH   2   6
ATOM      6  O   UNL     1       2.325   2.985  16.944  0.00  0.00    +0.000 OA
ATOM      7  H   UNL     1       3.029   2.730  16.321  0.00  0.00    +0.000 HD
ENDBRANCH   2   6
BRANCH   4   8
ATOM      8  O   UNL     1       1.207   5.115  20.817  0.00  0.00    +0.000 OA
ATOM      9  H   UNL     1       0.593   4.402  21.062  0.00  0.00    +0.000 HD
ENDBRANCH   4   8
BRANCH   1  10
ATOM     10  C   UNL     1       4.810   5.026  17.407  0.00  0.00    +0.000 C 
BRANCH  10  11
ATOM     11  C   UNL     1       5.829   5.563  18.427  0.00  0.00    +0.000 C 
BRANCH  11  12
ATOM     12  C   UNL     1       7.277   5.572  17.922  0.00  0.00    +0.000 C 
BRANCH  12  13
ATOM     13  O   UNL     1       7.998   4.492  18.506  0.00  0.00    +0.000 OA
ATOM     14  H   UNL     1       8.750   4.286  17.925  0.00  0.00    +0.000 HD
ENDBRANCH  12  13
BRANCH  12  15
ATOM     15  C   UNL     1       7.940   6.909  18.286  0.00  0.00    +0.000 C 
BRANCH  15  16
ATOM     16  C   UNL     1       7.387   8.084  17.482  0.00  0.00    +0.000 C 
BRANCH  16  17
ATOM     17  C   UNL     1       8.197   9.353  17.747  0.00  0.00    +0.000 C 
BRANCH  17  19
ATOM     18  C   UNL     1       9.529  10.594  19.484  0.00  0.00    +0.000 C 
ATOM     19  C   UNL     1       8.943   9.254  19.075  0.00  0.00    +0.000 C 
ENDBRANCH  17  19
ENDBRANCH  16  17
ENDBRANCH  15  16
ENDBRANCH  12  15
ENDBRANCH  11  12
ENDBRANCH  10  11
ENDBRANCH   1  10
BRANCH   5  20
ATOM     20  C   UNL     1       2.757   6.972  19.369  0.00  0.00    +0.000 C 
BRANCH  20  21
ATOM     21  C   UNL     1       2.309   7.428  18.008  0.00  0.00    +0.000 C 
ATOM     22  C   UNL     1       2.030   8.687  17.648  0.00  0.00    +0.000 C 
BRANCH  22  23
ATOM     23  C   UNL     1       2.050   9.864  18.580  0.00  0.00    +0.000 C 
BRANCH  23  24
ATOM     24  C   UNL     1       0.722  10.599  18.617  0.00  0.00    +0.000 C 
BRANCH  24  25
ATOM     25  C   UNL     1      -0.428   9.784  18.024  0.00  0.00    +0.000 C 
BRANCH  25  26
ATOM     26  C   UNL     1      -1.729  10.523  18.213  0.00  0.00    +0.000 C 
ATOM     27  O   UNL     1      -1.900  11.439  19.000  0.00  0.00    +0.000 OA
BRANCH  26  28
ATOM     28  O   UNL     1      -2.674  10.022  17.371  0.00  0.00    +0.000 OA
BRANCH  28  29
ATOM     29  C   UNL     1      -3.129  10.946  16.367  0.00  0.00    +0.000 C 
ATOM     30  C   UNL     1      -2.962  10.326  14.984  0.00  0.00    +0.000 C 
ATOM     31  C   UNL     1      -4.593  11.250  16.652  0.00  0.00    +0.000 C 
ENDBRANCH  28  29
ENDBRANCH  26  28
ENDBRANCH  25  26
ENDBRANCH  24  25
ENDBRANCH  23  24
ENDBRANCH  22  23
ENDBRANCH  20  21
ENDBRANCH   5  20
TORSDOF 18
ENDMDL
