MODEL 1
REMARK VINA RESULT:      -8.5      0.000      0.000
REMARK  Name = 
REMARK  6 active torsions:
REMARK  status: ('A' for Active; 'I' for Inactive)
REMARK    1  A    between atoms: C_1  and  O_2
REMARK    2  A    between atoms: O_2  and  C_3
REMARK    3  A    between atoms: C_3  and  C_4
REMARK    4  A    between atoms: C_8  and  O_9
REMARK    5  A    between atoms: O_9  and  C_10
REMARK    6  A    between atoms: C_10  and  C_11
REMARK                            x       y       z     vdW  Elec       q    Type
REMARK                         _______ _______ _______ _____ _____    ______ ____
ROOT
ATOM      1  C   UNL     1       4.376   4.469  16.967  0.00  0.00    +0.000 A 
ATOM      2  C   UNL     1       3.983   3.131  17.168  0.00  0.00    +0.000 A 
ATOM      3  C   UNL     1       2.953   2.798  18.048  0.00  0.00    +0.000 A 
ATOM      4  C   UNL     1       2.290   3.794  18.754  0.00  0.00    +0.000 A 
ATOM      5  C   UNL     1       2.649   5.129  18.572  0.00  0.00    +0.000 A 
ATOM      6  C   UNL     1       3.716   5.454  17.728  0.00  0.00    +0.000 A 
ENDROOT
BRANCH   1   7
ATOM      7  C   UNL     1       5.483   4.863  15.970  0.00  0.00    +0.000 C 
ATOM      8  C   UNL     1       5.812   6.376  15.912  0.00  0.00    +0.000 C 
ATOM      9  C   UNL     1       6.536   6.852  17.170  0.00  0.00    +0.000 C 
ATOM     10  O   UNL     1       7.732   6.111  17.386  0.00  0.00    +0.000 OA
ATOM     11  C   UNL     1       7.477   4.717  17.550  0.00  0.00    +0.000 C 
ATOM     12  C   UNL     1       6.824   4.152  16.299  0.00  0.00    +0.000 C 
BRANCH   7  14
ATOM     13  C   UNL     1       6.220   3.948  13.828  0.00  0.00    +0.000 C 
ATOM     14  O   UNL     1       5.145   4.375  14.651  0.00  0.00    +0.000 OA
ENDBRANCH   7  14
ENDBRANCH   1   7
BRANCH   5  15
ATOM     15  O   UNL     1       2.006   6.188  19.160  0.00  0.00    +0.000 OA
BRANCH  15  16
ATOM     16  C   UNL     1       2.417   7.458  18.658  0.00  0.00    +0.000 C 
BRANCH  16  17
ATOM     17  C   UNL     1       1.661   8.560  19.350  0.00  0.00    +0.000 A 
ATOM     18  C   UNL     1       1.266   9.692  18.629  0.00  0.00    +0.000 A 
ATOM     19  C   UNL     1       0.456  10.658  19.223  0.00  0.00    +0.000 A 
ATOM     20  C   UNL     1       0.036  10.519  20.552  0.00  0.00    +0.000 A 
ATOM     21  C   UNL     1      -0.836  11.444  21.141  0.00  0.00    +0.000 A 
ATOM     22  C   UNL     1      -1.245  11.294  22.466  0.00  0.00    +0.000 A 
ATOM     23  C   UNL     1      -0.764  10.231  23.226  0.00  0.00    +0.000 A 
ATOM     24  C   UNL     1       0.100   9.297  22.654  0.00  0.00    +0.000 A 
ATOM     25  C   UNL     1       0.492   9.415  21.311  0.00  0.00    +0.000 A 
ATOM     26  C   UNL     1       1.307   8.448  20.702  0.00  0.00    +0.000 A 
ENDBRANCH  16  17
ENDBRANCH  15  16
ENDBRANCH   5  15
TORSDOF 5
ENDMDL
MODEL 2
REMARK VINA RESULT:      -8.5      1.187      2.362
REMARK  Name = 
REMARK  6 active torsions:
REMARK  status: ('A' for Active; 'I' for Inactive)
REMARK    1  A    between atoms: C_1  and  O_2
REMARK    2  A    between atoms: O_2  and  C_3
REMARK    3  A    between atoms: C_3  and  C_4
REMARK    4  A    between atoms: C_8  and  O_9
REMARK    5  A    between atoms: O_9  and  C_10
REMARK    6  A    between atoms: C_10  and  C_11
REMARK                            x       y       z     vdW  Elec       q    Type
REMARK                         _______ _______ _______ _____ _____    ______ ____
ROOT
ATOM      1  C   UNL     1       4.338   4.258  17.906  0.00  0.00    +0.000 A 
ATOM      2  C   UNL     1       3.720   3.143  17.307  0.00  0.00    +0.000 A 
ATOM      3  C   UNL     1       2.413   2.774  17.628  0.00  0.00    +0.000 A 
ATOM      4  C   UNL     1       1.691   3.507  18.561  0.00  0.00    +0.000 A 
ATOM      5  C   UNL     1       2.271   4.621  19.166  0.00  0.00    +0.000 A 
ATOM      6  C   UNL     1       3.597   4.958  18.879  0.00  0.00    +0.000 A 
ENDROOT
BRANCH   1   7
ATOM      7  C   UNL     1       5.765   4.708  17.535  0.00  0.00    +0.000 C 
ATOM      8  C   UNL     1       6.328   4.103  16.225  0.00  0.00    +0.000 C 
ATOM      9  C   UNL     1       5.640   4.676  14.988  0.00  0.00    +0.000 C 
ATOM     10  O   UNL     1       5.755   6.095  14.947  0.00  0.00    +0.000 OA
ATOM     11  C   UNL     1       5.158   6.713  16.085  0.00  0.00    +0.000 C 
ATOM     12  C   UNL     1       5.846   6.249  17.358  0.00  0.00    +0.000 C 
BRANCH   7  14
ATOM     13  C   UNL     1       7.348   5.546  19.197  0.00  0.00    +0.000 C 
ATOM     14  O   UNL     1       6.661   4.436  18.637  0.00  0.00    +0.000 OA
ENDBRANCH   7  14
ENDBRANCH   1   7
BRANCH   5  15
ATOM     15  O   UNL     1       1.616   5.454  20.037  0.00  0.00    +0.000 OA
BRANCH  15  16
ATOM     16  C   UNL     1       2.407   6.557  20.478  0.00  0.00    +0.000 C 
BRANCH  16  17
ATOM     17  C   UNL     1       1.790   7.853  20.023  0.00  0.00    +0.000 A 
ATOM     18  C   UNL     1       1.944   8.266  18.695  0.00  0.00    +0.000 A 
ATOM     19  C   UNL     1       1.273   9.395  18.228  0.00  0.00    +0.000 A 
ATOM     20  C   UNL     1       0.447  10.139  19.081  0.00  0.00    +0.000 A 
ATOM     21  C   UNL     1      -0.291  11.233  18.608  0.00  0.00    +0.000 A 
ATOM     22  C   UNL     1      -1.108  11.966  19.468  0.00  0.00    +0.000 A 
ATOM     23  C   UNL     1      -1.176  11.629  20.818  0.00  0.00    +0.000 A 
ATOM     24  C   UNL     1      -0.454  10.539  21.305  0.00  0.00    +0.000 A 
ATOM     25  C   UNL     1       0.345   9.771  20.443  0.00  0.00    +0.000 A 
ATOM     26  C   UNL     1       1.025   8.632  20.902  0.00  0.00    +0.000 A 
ENDBRANCH  16  17
ENDBRANCH  15  16
ENDBRANCH   5  15
TORSDOF 5
ENDMDL
MODEL 3
REMARK VINA RESULT:      -8.4      1.947      3.932
REMARK  Name = 
REMARK  6 active torsions:
REMARK  status: ('A' for Active; 'I' for Inactive)
REMARK    1  A    between atoms: C_1  and  O_2
REMARK    2  A    between atoms: O_2  and  C_3
REMARK    3  A    between atoms: C_3  and  C_4
REMARK    4  A    between atoms: C_8  and  O_9
REMARK    5  A    between atoms: O_9  and  C_10
REMARK    6  A    between atoms: C_10  and  C_11
REMARK                            x       y       z     vdW  Elec       q    Type
REMARK                         _______ _______ _______ _____ _____    ______ ____
ROOT
ATOM      1  C   UNL     1       4.007   4.494  18.275  0.00  0.00    +0.000 A 
ATOM      2  C   UNL     1       4.723   4.256  17.085  0.00  0.00    +0.000 A 
ATOM      3  C   UNL     1       5.026   5.288  16.197  0.00  0.00    +0.000 A 
ATOM      4  C   UNL     1       4.616   6.587  16.471  0.00  0.00    +0.000 A 
ATOM      5  C   UNL     1       3.913   6.858  17.643  0.00  0.00    +0.000 A 
ATOM      6  C   UNL     1       3.568   5.813  18.506  0.00  0.00    +0.000 A 
ENDROOT
BRANCH   1   7
ATOM      7  C   UNL     1       3.698   3.377  19.290  0.00  0.00    +0.000 C 
ATOM      8  C   UNL     1       2.740   3.777  20.441  0.00  0.00    +0.000 C 
ATOM      9  C   UNL     1       1.306   3.967  19.952  0.00  0.00    +0.000 C 
ATOM     10  O   UNL     1       0.821   2.790  19.314  0.00  0.00    +0.000 OA
ATOM     11  C   UNL     1       1.609   2.432  18.180  0.00  0.00    +0.000 C 
ATOM     12  C   UNL     1       3.041   2.149  18.602  0.00  0.00    +0.000 C 
BRANCH   7  14
ATOM     13  C   UNL     1       4.845   1.678  20.618  0.00  0.00    +0.000 C 
ATOM     14  O   UNL     1       4.934   2.854  19.829  0.00  0.00    +0.000 OA
ENDBRANCH   7  14
ENDBRANCH   1   7
BRANCH   5  15
ATOM     15  O   UNL     1       3.534   8.115  18.042  0.00  0.00    +0.000 OA
BRANCH  15  16
ATOM     16  C   UNL     1       2.160   8.405  17.793  0.00  0.00    +0.000 C 
BRANCH  16  17
ATOM     17  C   UNL     1       1.455   8.727  19.084  0.00  0.00    +0.000 A 
ATOM     18  C   UNL     1       1.706   7.956  20.224  0.00  0.00    +0.000 A 
ATOM     19  C   UNL     1       1.162   8.321  21.454  0.00  0.00    +0.000 A 
ATOM     20  C   UNL     1       0.347   9.455  21.566  0.00  0.00    +0.000 A 
ATOM     21  C   UNL     1      -0.148   9.875  22.808  0.00  0.00    +0.000 A 
ATOM     22  C   UNL     1      -0.961  11.005  22.905  0.00  0.00    +0.000 A 
ATOM     23  C   UNL     1      -1.309  11.713  21.756  0.00  0.00    +0.000 A 
ATOM     24  C   UNL     1      -0.819  11.311  20.513  0.00  0.00    +0.000 A 
ATOM     25  C   UNL     1       0.028  10.197  20.404  0.00  0.00    +0.000 A 
ATOM     26  C   UNL     1       0.582   9.820  19.172  0.00  0.00    +0.000 A 
ENDBRANCH  16  17
ENDBRANCH  15  16
ENDBRANCH   5  15
TORSDOF 5
ENDMDL
MODEL 4
REMARK VINA RESULT:      -8.4      1.218      2.630
REMARK  Name = 
REMARK  6 active torsions:
REMARK  status: ('A' for Active; 'I' for Inactive)
REMARK    1  A    between atoms: C_1  and  O_2
REMARK    2  A    between atoms: O_2  and  C_3
REMARK    3  A    between atoms: C_3  and  C_4
REMARK    4  A    between atoms: C_8  and  O_9
REMARK    5  A    between atoms: O_9  and  C_10
REMARK    6  A    between atoms: C_10  and  C_11
REMARK                            x       y       z     vdW  Elec       q    Type
REMARK                         _______ _______ _______ _____ _____    ______ ____
ROOT
ATOM      1  C   UNL     1       4.196   4.664  18.223  0.00  0.00    +0.000 A 
ATOM      2  C   UNL     1       3.448   3.586  17.709  0.00  0.00    +0.000 A 
ATOM      3  C   UNL     1       2.128   3.363  18.099  0.00  0.00    +0.000 A 
ATOM      4  C   UNL     1       1.520   4.208  19.019  0.00  0.00    +0.000 A 
ATOM      5  C   UNL     1       2.229   5.289  19.540  0.00  0.00    +0.000 A 
ATOM      6  C   UNL     1       3.568   5.480  19.184  0.00  0.00    +0.000 A 
ENDROOT
BRANCH   1   7
ATOM      7  C   UNL     1       5.641   4.954  17.774  0.00  0.00    +0.000 C 
ATOM      8  C   UNL     1       6.125   4.147  16.543  0.00  0.00    +0.000 C 
ATOM      9  C   UNL     1       5.448   4.609  15.254  0.00  0.00    +0.000 C 
ATOM     10  O   UNL     1       5.665   5.998  15.030  0.00  0.00    +0.000 OA
ATOM     11  C   UNL     1       5.145   6.799  16.088  0.00  0.00    +0.000 C 
ATOM     12  C   UNL     1       5.831   6.450  17.399  0.00  0.00    +0.000 C 
BRANCH   7  14
ATOM     13  C   UNL     1       7.501   5.778  19.127  0.00  0.00    +0.000 C 
ATOM     14  O   UNL     1       6.544   4.757  18.886  0.00  0.00    +0.000 OA
ENDBRANCH   7  14
ENDBRANCH   1   7
BRANCH   5  15
ATOM     15  O   UNL     1       1.695   6.224  20.390  0.00  0.00    +0.000 OA
BRANCH  15  16
ATOM     16  C   UNL     1       2.013   7.569  20.034  0.00  0.00    +0.000 C 
BRANCH  16  17
ATOM     17  C   UNL     1       1.107   8.526  20.760  0.00  0.00    +0.000 A 
ATOM     18  C   UNL     1       1.049   8.504  22.158  0.00  0.00    +0.000 A 
ATOM     19  C   UNL     1       0.315   9.468  22.847  0.00  0.00    +0.000 A 
ATOM     20  C   UNL     1      -0.385  10.463  22.153  0.00  0.00    +0.000 A 
ATOM     21  C   UNL     1      -1.069  11.481  22.833  0.00  0.00    +0.000 A 
ATOM     22  C   UNL     1      -1.764  12.464  22.130  0.00  0.00    +0.000 A 
ATOM     23  C   UNL     1      -1.806  12.426  20.738  0.00  0.00    +0.000 A 
ATOM     24  C   UNL     1      -1.127  11.424  20.045  0.00  0.00    +0.000 A 
ATOM     25  C   UNL     1      -0.394  10.447  20.738  0.00  0.00    +0.000 A 
ATOM     26  C   UNL     1       0.350   9.472  20.056  0.00  0.00    +0.000 A 
ENDBRANCH  16  17
ENDBRANCH  15  16
ENDBRANCH   5  15
TORSDOF 5
ENDMDL
MODEL 5
REMARK VINA RESULT:      -8.4      0.902      2.008
REMARK  Name = 
REMARK  6 active torsions:
REMARK  status: ('A' for Active; 'I' for Inactive)
REMARK    1  A    between atoms: C_1  and  O_2
REMARK    2  A    between atoms: O_2  and  C_3
REMARK    3  A    between atoms: C_3  and  C_4
REMARK    4  A    between atoms: C_8  and  O_9
REMARK    5  A    between atoms: O_9  and  C_10
REMARK    6  A    between atoms: C_10  and  C_11
REMARK                            x       y       z     vdW  Elec       q    Type
REMARK                         _______ _______ _______ _____ _____    ______ ____
ROOT
ATOM      1  C   UNL     1       4.695   4.538  18.091  0.00  0.00    +0.000 A 
ATOM      2  C   UNL     1       4.032   3.298  18.007  0.00  0.00    +0.000 A 
ATOM      3  C   UNL     1       2.756   3.115  18.543  0.00  0.00    +0.000 A 
ATOM      4  C   UNL     1       2.111   4.167  19.182  0.00  0.00    +0.000 A 
ATOM      5  C   UNL     1       2.737   5.409  19.275  0.00  0.00    +0.000 A 
ATOM      6  C   UNL     1       4.035   5.573  18.781  0.00  0.00    +0.000 A 
ENDROOT
BRANCH   1   7
ATOM      7  C   UNL     1       6.086   4.773  17.470  0.00  0.00    +0.000 C 
ATOM      8  C   UNL     1       6.381   3.959  16.185  0.00  0.00    +0.000 C 
ATOM      9  C   UNL     1       5.573   4.462  14.991  0.00  0.00    +0.000 C 
ATOM     10  O   UNL     1       5.818   5.844  14.749  0.00  0.00    +0.000 OA
ATOM     11  C   UNL     1       5.465   6.654  15.868  0.00  0.00    +0.000 C 
ATOM     12  C   UNL     1       6.290   6.263  17.083  0.00  0.00    +0.000 C 
BRANCH   7  14
ATOM     13  C   UNL     1       7.791   5.661  18.977  0.00  0.00    +0.000 C 
ATOM     14  O   UNL     1       7.109   4.528  18.463  0.00  0.00    +0.000 OA
ENDBRANCH   7  14
ENDBRANCH   1   7
BRANCH   5  15
ATOM     15  O   UNL     1       2.154   6.527  19.814  0.00  0.00    +0.000 OA
BRANCH  15  16
ATOM     16  C   UNL     1       2.243   7.679  18.977  0.00  0.00    +0.000 C 
BRANCH  16  17
ATOM     17  C   UNL     1       1.480   8.824  19.587  0.00  0.00    +0.000 A 
ATOM     18  C   UNL     1       1.178   9.949  18.811  0.00  0.00    +0.000 A 
ATOM     19  C   UNL     1       0.363  10.958  19.322  0.00  0.00    +0.000 A 
ATOM     20  C   UNL     1      -0.155  10.868  20.620  0.00  0.00    +0.000 A 
ATOM     21  C   UNL     1      -1.033  11.839  21.122  0.00  0.00    +0.000 A 
ATOM     22  C   UNL     1      -1.540  11.738  22.418  0.00  0.00    +0.000 A 
ATOM     23  C   UNL     1      -1.152  10.680  23.237  0.00  0.00    +0.000 A 
ATOM     24  C   UNL     1      -0.283   9.702  22.751  0.00  0.00    +0.000 A 
ATOM     25  C   UNL     1       0.207   9.771  21.438  0.00  0.00    +0.000 A 
ATOM     26  C   UNL     1       1.027   8.761  20.911  0.00  0.00    +0.000 A 
ENDBRANCH  16  17
ENDBRANCH  15  16
ENDBRANCH   5  15
TORSDOF 5
ENDMDL
MODEL 6
REMARK VINA RESULT:      -8.3      1.918      3.733
REMARK  Name = 
REMARK  6 active torsions:
REMARK  status: ('A' for Active; 'I' for Inactive)
REMARK    1  A    between atoms: C_1  and  O_2
REMARK    2  A    between atoms: O_2  and  C_3
REMARK    3  A    between atoms: C_3  and  C_4
REMARK    4  A    between atoms: C_8  and  O_9
REMARK    5  A    between atoms: O_9  and  C_10
REMARK    6  A    between atoms: C_10  and  C_11
REMARK                            x       y       z     vdW  Elec       q    Type
REMARK                         _______ _______ _______ _____ _____    ______ ____
ROOT
ATOM      1  C   UNL     1       4.048   4.552  18.359  0.00  0.00    +0.000 A 
ATOM      2  C   UNL     1       4.892   4.276  17.266  0.00  0.00    +0.000 A 
ATOM      3  C   UNL     1       5.238   5.263  16.344  0.00  0.00    +0.000 A 
ATOM      4  C   UNL     1       4.745   6.554  16.486  0.00  0.00    +0.000 A 
ATOM      5  C   UNL     1       3.913   6.863  17.560  0.00  0.00    +0.000 A 
ATOM      6  C   UNL     1       3.528   5.858  18.454  0.00  0.00    +0.000 A 
ENDROOT
BRANCH   1   7
ATOM      7  C   UNL     1       3.686   3.487  19.413  0.00  0.00    +0.000 C 
ATOM      8  C   UNL     1       2.685   3.950  20.503  0.00  0.00    +0.000 C 
ATOM      9  C   UNL     1       1.275   4.127  19.945  0.00  0.00    +0.000 C 
ATOM     10  O   UNL     1       0.805   2.924  19.344  0.00  0.00    +0.000 OA
ATOM     11  C   UNL     1       1.635   2.506  18.263  0.00  0.00    +0.000 C 
ATOM     12  C   UNL     1       3.046   2.233  18.757  0.00  0.00    +0.000 C 
BRANCH   7  14
ATOM     13  C   UNL     1       4.840   1.671  20.569  0.00  0.00    +0.000 C 
ATOM     14  O   UNL     1       4.894   2.982  20.027  0.00  0.00    +0.000 OA
ENDBRANCH   7  14
ENDBRANCH   1   7
BRANCH   5  15
ATOM     15  O   UNL     1       3.439   8.121  17.833  0.00  0.00    +0.000 OA
BRANCH  15  16
ATOM     16  C   UNL     1       2.018   8.227  17.753  0.00  0.00    +0.000 C 
BRANCH  16  17
ATOM     17  C   UNL     1       1.509   9.172  18.808  0.00  0.00    +0.000 A 
ATOM     18  C   UNL     1       1.399  10.538  18.522  0.00  0.00    +0.000 A 
ATOM     19  C   UNL     1       0.809  11.404  19.442  0.00  0.00    +0.000 A 
ATOM     20  C   UNL     1       0.330  10.925  20.667  0.00  0.00    +0.000 A 
ATOM     21  C   UNL     1      -0.330  11.769  21.571  0.00  0.00    +0.000 A 
ATOM     22  C   UNL     1      -0.801  11.279  22.790  0.00  0.00    +0.000 A 
ATOM     23  C   UNL     1      -0.593   9.945  23.130  0.00  0.00    +0.000 A 
ATOM     24  C   UNL     1       0.057   9.089  22.240  0.00  0.00    +0.000 A 
ATOM     25  C   UNL     1       0.504   9.559  20.995  0.00  0.00    +0.000 A 
ATOM     26  C   UNL     1       1.099   8.697  20.061  0.00  0.00    +0.000 A 
ENDBRANCH  16  17
ENDBRANCH  15  16
ENDBRANCH   5  15
TORSDOF 5
ENDMDL
MODEL 7
REMARK VINA RESULT:      -8.3      1.471      2.821
REMARK  Name = 
REMARK  6 active torsions:
REMARK  status: ('A' for Active; 'I' for Inactive)
REMARK    1  A    between atoms: C_1  and  O_2
REMARK    2  A    between atoms: O_2  and  C_3
REMARK    3  A    between atoms: C_3  and  C_4
REMARK    4  A    between atoms: C_8  and  O_9
REMARK    5  A    between atoms: O_9  and  C_10
REMARK    6  A    between atoms: C_10  and  C_11
REMARK                            x       y       z     vdW  Elec       q    Type
REMARK                         _______ _______ _______ _____ _____    ______ ____
ROOT
ATOM      1  C   UNL     1       5.063   4.052  17.952  0.00  0.00    +0.000 A 
ATOM      2  C   UNL     1       4.375   3.004  17.310  0.00  0.00    +0.000 A 
ATOM      3  C   UNL     1       3.213   2.454  17.852  0.00  0.00    +0.000 A 
ATOM      4  C   UNL     1       2.710   2.935  19.055  0.00  0.00    +0.000 A 
ATOM      5  C   UNL     1       3.363   3.976  19.712  0.00  0.00    +0.000 A 
ATOM      6  C   UNL     1       4.555   4.490  19.190  0.00  0.00    +0.000 A 
ENDROOT
BRANCH   1   7
ATOM      7  C   UNL     1       6.324   4.702  17.350  0.00  0.00    +0.000 C 
ATOM      8  C   UNL     1       6.668   4.261  15.904  0.00  0.00    +0.000 C 
ATOM      9  C   UNL     1       5.680   4.825  14.884  0.00  0.00    +0.000 C 
ATOM     10  O   UNL     1       5.628   6.246  14.951  0.00  0.00    +0.000 OA
ATOM     11  C   UNL     1       5.215   6.707  16.236  0.00  0.00    +0.000 C 
ATOM     12  C   UNL     1       6.198   6.250  17.300  0.00  0.00    +0.000 C 
BRANCH   7  14
ATOM     13  C   UNL     1       7.901   5.573  19.000  0.00  0.00    +0.000 C 
ATOM     14  O   UNL     1       7.454   4.472  18.223  0.00  0.00    +0.000 OA
ENDBRANCH   7  14
ENDBRANCH   1   7
BRANCH   5  15
ATOM     15  O   UNL     1       2.905   4.572  20.859  0.00  0.00    +0.000 OA
BRANCH  15  16
ATOM     16  C   UNL     1       1.605   5.147  20.726  0.00  0.00    +0.000 C 
BRANCH  16  17
ATOM     17  C   UNL     1       1.706   6.525  20.130  0.00  0.00    +0.000 A 
ATOM     18  C   UNL     1       2.209   6.687  18.834  0.00  0.00    +0.000 A 
ATOM     19  C   UNL     1       2.188   7.940  18.222  0.00  0.00    +0.000 A 
ATOM     20  C   UNL     1       1.676   9.055  18.897  0.00  0.00    +0.000 A 
ATOM     21  C   UNL     1       1.581  10.305  18.270  0.00  0.00    +0.000 A 
ATOM     22  C   UNL     1       1.072  11.408  18.955  0.00  0.00    +0.000 A 
ATOM     23  C   UNL     1       0.675  11.280  20.284  0.00  0.00    +0.000 A 
ATOM     24  C   UNL     1       0.757  10.042  20.922  0.00  0.00    +0.000 A 
ATOM     25  C   UNL     1       1.235   8.915  20.235  0.00  0.00    +0.000 A 
ATOM     26  C   UNL     1       1.260   7.648  20.839  0.00  0.00    +0.000 A 
ENDBRANCH  16  17
ENDBRANCH  15  16
ENDBRANCH   5  15
TORSDOF 5
ENDMDL
MODEL 8
REMARK VINA RESULT:      -8.2      0.902      1.061
REMARK  Name = 
REMARK  6 active torsions:
REMARK  status: ('A' for Active; 'I' for Inactive)
REMARK    1  A    between atoms: C_1  and  O_2
REMARK    2  A    between atoms: O_2  and  C_3
REMARK    3  A    between atoms: C_3  and  C_4
REMARK    4  A    between atoms: C_8  and  O_9
REMARK    5  A    between atoms: O_9  and  C_10
REMARK    6  A    between atoms: C_10  and  C_11
REMARK                            x       y       z     vdW  Elec       q    Type
REMARK                         _______ _______ _______ _____ _____    ______ ____
ROOT
ATOM      1  C   UNL     1       4.736   4.847  17.372  0.00  0.00    +0.000 A 
ATOM      2  C   UNL     1       4.009   3.646  17.480  0.00  0.00    +0.000 A 
ATOM      3  C   UNL     1       2.712   3.622  17.995  0.00  0.00    +0.000 A 
ATOM      4  C   UNL     1       2.109   4.798  18.421  0.00  0.00    +0.000 A 
ATOM      5  C   UNL     1       2.799   6.006  18.320  0.00  0.00    +0.000 A 
ATOM      6  C   UNL     1       4.116   6.018  17.850  0.00  0.00    +0.000 A 
ENDROOT
BRANCH   1   7
ATOM      7  C   UNL     1       6.153   4.903  16.768  0.00  0.00    +0.000 C 
ATOM      8  C   UNL     1       6.574   6.282  16.199  0.00  0.00    +0.000 C 
ATOM      9  C   UNL     1       6.818   7.306  17.306  0.00  0.00    +0.000 C 
ATOM     10  O   UNL     1       7.805   6.845  18.224  0.00  0.00    +0.000 OA
ATOM     11  C   UNL     1       7.420   5.627  18.856  0.00  0.00    +0.000 C 
ATOM     12  C   UNL     1       7.234   4.531  17.819  0.00  0.00    +0.000 C 
BRANCH   7  14
ATOM     13  C   UNL     1       6.506   4.324  14.421  0.00  0.00    +0.000 C 
ATOM     14  O   UNL     1       6.289   3.882  15.752  0.00  0.00    +0.000 OA
ENDBRANCH   7  14
ENDBRANCH   1   7
BRANCH   5  15
ATOM     15  O   UNL     1       2.264   7.228  18.639  0.00  0.00    +0.000 OA
BRANCH  15  16
ATOM     16  C   UNL     1       2.065   7.419  20.038  0.00  0.00    +0.000 C 
BRANCH  16  17
ATOM     17  C   UNL     1       1.258   8.665  20.283  0.00  0.00    +0.000 A 
ATOM     18  C   UNL     1       1.009   9.550  19.228  0.00  0.00    +0.000 A 
ATOM     19  C   UNL     1       0.158  10.639  19.408  0.00  0.00    +0.000 A 
ATOM     20  C   UNL     1      -0.451  10.871  20.648  0.00  0.00    +0.000 A 
ATOM     21  C   UNL     1      -1.366  11.919  20.824  0.00  0.00    +0.000 A 
ATOM     22  C   UNL     1      -1.963  12.140  22.065  0.00  0.00    +0.000 A 
ATOM     23  C   UNL     1      -1.633  11.332  23.151  0.00  0.00    +0.000 A 
ATOM     24  C   UNL     1      -0.730  10.281  22.991  0.00  0.00    +0.000 A 
ATOM     25  C   UNL     1      -0.147  10.024  21.740  0.00  0.00    +0.000 A 
ATOM     26  C   UNL     1       0.711   8.931  21.546  0.00  0.00    +0.000 A 
ENDBRANCH  16  17
ENDBRANCH  15  16
ENDBRANCH   5  15
TORSDOF 5
ENDMDL
MODEL 9
REMARK VINA RESULT:      -8.2      2.537      4.599
REMARK  Name = 
REMARK  6 active torsions:
REMARK  status: ('A' for Active; 'I' for Inactive)
REMARK    1  A    between atoms: C_1  and  O_2
REMARK    2  A    between atoms: O_2  and  C_3
REMARK    3  A    between atoms: C_3  and  C_4
REMARK    4  A    between atoms: C_8  and  O_9
REMARK    5  A    between atoms: O_9  and  C_10
REMARK    6  A    between atoms: C_10  and  C_11
REMARK                            x       y       z     vdW  Elec       q    Type
REMARK                         _______ _______ _______ _____ _____    ______ ____
ROOT
ATOM      1  C   UNL     1       3.566   4.723  18.752  0.00  0.00    +0.000 A 
ATOM      2  C   UNL     1       4.423   4.856  17.642  0.00  0.00    +0.000 A 
ATOM      3  C   UNL     1       4.553   6.067  16.962  0.00  0.00    +0.000 A 
ATOM      4  C   UNL     1       3.825   7.177  17.370  0.00  0.00    +0.000 A 
ATOM      5  C   UNL     1       2.973   7.081  18.469  0.00  0.00    +0.000 A 
ATOM      6  C   UNL     1       2.808   5.853  19.117  0.00  0.00    +0.000 A 
ENDROOT
BRANCH   1   7
ATOM      7  C   UNL     1       3.439   3.406  19.544  0.00  0.00    +0.000 C 
ATOM      8  C   UNL     1       2.543   3.479  20.807  0.00  0.00    +0.000 C 
ATOM      9  C   UNL     1       1.064   3.610  20.452  0.00  0.00    +0.000 C 
ATOM     10  O   UNL     1       0.637   2.533  19.624  0.00  0.00    +0.000 OA
ATOM     11  C   UNL     1       1.361   2.481  18.397  0.00  0.00    +0.000 C 
ATOM     12  C   UNL     1       2.841   2.272  18.667  0.00  0.00    +0.000 C 
BRANCH   7  14
ATOM     13  C   UNL     1       4.822   1.680  20.580  0.00  0.00    +0.000 C 
ATOM     14  O   UNL     1       4.755   2.920  19.893  0.00  0.00    +0.000 OA
ENDBRANCH   7  14
ENDBRANCH   1   7
BRANCH   5  15
ATOM     15  O   UNL     1       2.274   8.136  18.998  0.00  0.00    +0.000 OA
BRANCH  15  16
ATOM     16  C   UNL     1       1.960   9.150  18.044  0.00  0.00    +0.000 C 
BRANCH  16  17
ATOM     17  C   UNL     1       0.638   9.787  18.378  0.00  0.00    +0.000 A 
ATOM     18  C   UNL     1       0.559  10.718  19.420  0.00  0.00    +0.000 A 
ATOM     19  C   UNL     1      -0.627  11.410  19.657  0.00  0.00    +0.000 A 
ATOM     20  C   UNL     1      -1.760  11.177  18.867  0.00  0.00    +0.000 A 
ATOM     21  C   UNL     1      -2.937  11.916  19.046  0.00  0.00    +0.000 A 
ATOM     22  C   UNL     1      -4.059  11.671  18.253  0.00  0.00    +0.000 A 
ATOM     23  C   UNL     1      -4.024  10.666  17.290  0.00  0.00    +0.000 A 
ATOM     24  C   UNL     1      -2.858   9.925  17.094  0.00  0.00    +0.000 A 
ATOM     25  C   UNL     1      -1.711  10.183  17.860  0.00  0.00    +0.000 A 
ATOM     26  C   UNL     1      -0.510   9.493  17.631  0.00  0.00    +0.000 A 
ENDBRANCH  16  17
ENDBRANCH  15  16
ENDBRANCH   5  15
TORSDOF 5
ENDMDL
