MODEL 1
REMARK VINA RESULT:      -7.3      0.000      0.000
REMARK  Name = 
REMARK  5 active torsions:
REMARK  status: ('A' for Active; 'I' for Inactive)
REMARK    1  A    between atoms: C_1  and  O_2
REMARK    2  A    between atoms: O_2  and  C_3
REMARK    3  A    between atoms: C_3  and  C_5
REMARK    4  A    between atoms: C_10  and  C_11
REMARK    5  A    between atoms: C_15  and  N_16
REMARK                            x       y       z     vdW  Elec       q    Type
REMARK                         _______ _______ _______ _____ _____    ______ ____
ROOT
ATOM      1  C   UNL     1       5.704   4.871  15.532  0.00  0.00    +0.000 A 
ATOM      2  C   UNL     1       5.109   3.770  16.292  0.00  0.00    +0.000 A 
ATOM      3  C   UNL     1       4.196   3.988  17.260  0.00  0.00    +0.000 A 
ATOM      4  C   UNL     1       3.784   5.316  17.555  0.00  0.00    +0.000 A 
ATOM      5  N   UNL     1       2.923   5.789  18.429  0.00  0.00    +0.000 NA
ATOM      6  C   UNL     1       2.922   7.157  18.249  0.00  0.00    +0.000 A 
ATOM      7  C   UNL     1       3.805   7.509  17.249  0.00  0.00    +0.000 A 
ATOM      8  N   UNL     1       4.358   6.336  16.809  0.00  0.00    +0.000 N 
ATOM      9  C   UNL     1       5.308   6.129  15.813  0.00  0.00    +0.000 A 
ENDROOT
BRANCH   6  10
ATOM     10  C   UNL     1       2.084   8.065  19.020  0.00  0.00    +0.000 A 
ATOM     11  C   UNL     1       1.772   7.814  20.363  0.00  0.00    +0.000 A 
ATOM     12  C   UNL     1       0.947   8.685  21.074  0.00  0.00    +0.000 A 
ATOM     13  C   UNL     1       0.435   9.823  20.452  0.00  0.00    +0.000 A 
ATOM     14  C   UNL     1       0.773  10.127  19.132  0.00  0.00    +0.000 A 
ATOM     15  C   UNL     1       1.560   9.219  18.413  0.00  0.00    +0.000 A 
BRANCH  14  16
ATOM     16  N   UNL     1       0.143  11.193  18.476  0.00  0.00    +0.000 N 
ATOM     17  H   UNL     1       0.671  11.564  17.694  0.00  0.00    +0.000 HD
ATOM     18  H   UNL     1      -0.826  11.006  18.238  0.00  0.00    +0.000 HD
ENDBRANCH  14  16
ENDBRANCH   6  10
BRANCH   1  19
ATOM     19  C   UNL     1       6.722   4.678  14.462  0.00  0.00    +0.000 C 
ATOM     20  O   UNL     1       7.740   5.350  14.354  0.00  0.00    +0.000 OA
BRANCH  19  22
ATOM     21  C   UNL     1       6.783   3.815  12.287  0.00  0.00    +0.000 C 
ATOM     22  O   UNL     1       6.353   3.664  13.641  0.00  0.00    +0.000 OA
ENDBRANCH  19  22
ENDBRANCH   1  19
TORSDOF 4
ENDMDL
MODEL 2
REMARK VINA RESULT:      -7.1      4.434      8.238
REMARK  Name = 
REMARK  5 active torsions:
REMARK  status: ('A' for Active; 'I' for Inactive)
REMARK    1  A    between atoms: C_1  and  O_2
REMARK    2  A    between atoms: O_2  and  C_3
REMARK    3  A    between atoms: C_3  and  C_5
REMARK    4  A    between atoms: C_10  and  C_11
REMARK    5  A    between atoms: C_15  and  N_16
REMARK                            x       y       z     vdW  Elec       q    Type
REMARK                         _______ _______ _______ _____ _____    ______ ____
ROOT
ATOM      1  C   UNL     1       0.493   9.817  21.083  0.00  0.00    +0.000 A 
ATOM      2  C   UNL     1       0.477  10.592  19.841  0.00  0.00    +0.000 A 
ATOM      3  C   UNL     1       1.077  10.148  18.719  0.00  0.00    +0.000 A 
ATOM      4  C   UNL     1       1.741   8.891  18.723  0.00  0.00    +0.000 A 
ATOM      5  N   UNL     1       2.386   8.240  17.780  0.00  0.00    +0.000 NA
ATOM      6  C   UNL     1       2.803   7.060  18.360  0.00  0.00    +0.000 A 
ATOM      7  C   UNL     1       2.403   7.006  19.679  0.00  0.00    +0.000 A 
ATOM      8  N   UNL     1       1.729   8.176  19.913  0.00  0.00    +0.000 N 
ATOM      9  C   UNL     1       1.122   8.624  21.082  0.00  0.00    +0.000 A 
ENDROOT
BRANCH   6  10
ATOM     10  C   UNL     1       3.550   6.036  17.642  0.00  0.00    +0.000 A 
ATOM     11  C   UNL     1       3.193   4.683  17.711  0.00  0.00    +0.000 A 
ATOM     12  C   UNL     1       3.938   3.717  17.035  0.00  0.00    +0.000 A 
ATOM     13  C   UNL     1       5.044   4.097  16.274  0.00  0.00    +0.000 A 
ATOM     14  C   UNL     1       5.390   5.443  16.144  0.00  0.00    +0.000 A 
ATOM     15  C   UNL     1       4.665   6.397  16.868  0.00  0.00    +0.000 A 
BRANCH  14  16
ATOM     16  N   UNL     1       6.579   5.799  15.494  0.00  0.00    +0.000 N 
ATOM     17  H   UNL     1       6.551   5.674  14.489  0.00  0.00    +0.000 HD
ATOM     18  H   UNL     1       6.929   6.714  15.763  0.00  0.00    +0.000 HD
ENDBRANCH  14  16
ENDBRANCH   6  10
BRANCH   1  19
ATOM     19  C   UNL     1      -0.147  10.272  22.348  0.00  0.00    +0.000 C 
ATOM     20  O   UNL     1       0.173   9.877  23.461  0.00  0.00    +0.000 OA
BRANCH  19  22
ATOM     21  C   UNL     1      -1.876  11.586  23.222  0.00  0.00    +0.000 C 
ATOM     22  O   UNL     1      -1.123  11.176  22.080  0.00  0.00    +0.000 OA
ENDBRANCH  19  22
ENDBRANCH   1  19
TORSDOF 4
ENDMDL
MODEL 3
REMARK VINA RESULT:      -7.0      4.476      8.349
REMARK  Name = 
REMARK  5 active torsions:
REMARK  status: ('A' for Active; 'I' for Inactive)
REMARK    1  A    between atoms: C_1  and  O_2
REMARK    2  A    between atoms: O_2  and  C_3
REMARK    3  A    between atoms: C_3  and  C_5
REMARK    4  A    between atoms: C_10  and  C_11
REMARK    5  A    between atoms: C_15  and  N_16
REMARK                            x       y       z     vdW  Elec       q    Type
REMARK                         _______ _______ _______ _____ _____    ______ ____
ROOT
ATOM      1  C   UNL     1       0.377   9.888  21.063  0.00  0.00    +0.000 A 
ATOM      2  C   UNL     1       0.304  10.601  19.786  0.00  0.00    +0.000 A 
ATOM      3  C   UNL     1       0.912  10.134  18.677  0.00  0.00    +0.000 A 
ATOM      4  C   UNL     1       1.641   8.914  18.731  0.00  0.00    +0.000 A 
ATOM      5  N   UNL     1       2.306   8.253  17.810  0.00  0.00    +0.000 NA
ATOM      6  C   UNL     1       2.792   7.125  18.439  0.00  0.00    +0.000 A 
ATOM      7  C   UNL     1       2.413   7.115  19.766  0.00  0.00    +0.000 A 
ATOM      8  N   UNL     1       1.682   8.258  19.954  0.00  0.00    +0.000 N 
ATOM      9  C   UNL     1       1.067   8.730  21.109  0.00  0.00    +0.000 A 
ENDROOT
BRANCH   6  10
ATOM     10  C   UNL     1       3.582   6.107  17.760  0.00  0.00    +0.000 A 
ATOM     11  C   UNL     1       4.522   6.443  16.775  0.00  0.00    +0.000 A 
ATOM     12  C   UNL     1       5.249   5.450  16.121  0.00  0.00    +0.000 A 
ATOM     13  C   UNL     1       5.052   4.109  16.452  0.00  0.00    +0.000 A 
ATOM     14  C   UNL     1       4.163   3.750  17.466  0.00  0.00    +0.000 A 
ATOM     15  C   UNL     1       3.402   4.751  18.080  0.00  0.00    +0.000 A 
BRANCH  14  16
ATOM     16  N   UNL     1       3.871   2.398  17.693  0.00  0.00    +0.000 N 
ATOM     17  H   UNL     1       4.219   2.046  18.578  0.00  0.00    +0.000 HD
ATOM     18  H   UNL     1       2.896   2.163  17.537  0.00  0.00    +0.000 HD
ENDBRANCH  14  16
ENDBRANCH   6  10
BRANCH   1  19
ATOM     19  C   UNL     1      -0.269  10.371  22.314  0.00  0.00    +0.000 C 
ATOM     20  O   UNL     1       0.047  10.002  23.437  0.00  0.00    +0.000 OA
BRANCH  19  22
ATOM     21  C   UNL     1      -1.428  12.283  23.007  0.00  0.00    +0.000 C 
ATOM     22  O   UNL     1      -1.247  11.265  22.022  0.00  0.00    +0.000 OA
ENDBRANCH  19  22
ENDBRANCH   1  19
TORSDOF 4
ENDMDL
MODEL 4
REMARK VINA RESULT:      -6.9      1.183      1.359
REMARK  Name = 
REMARK  5 active torsions:
REMARK  status: ('A' for Active; 'I' for Inactive)
REMARK    1  A    between atoms: C_1  and  O_2
REMARK    2  A    between atoms: O_2  and  C_3
REMARK    3  A    between atoms: C_3  and  C_5
REMARK    4  A    between atoms: C_10  and  C_11
REMARK    5  A    between atoms: C_15  and  N_16
REMARK                            x       y       z     vdW  Elec       q    Type
REMARK                         _______ _______ _______ _____ _____    ______ ____
ROOT
ATOM      1  C   UNL     1       5.539   4.814  17.095  0.00  0.00    +0.000 A 
ATOM      2  C   UNL     1       5.096   4.012  18.237  0.00  0.00    +0.000 A 
ATOM      3  C   UNL     1       4.156   4.456  19.095  0.00  0.00    +0.000 A 
ATOM      4  C   UNL     1       3.564   5.733  18.894  0.00  0.00    +0.000 A 
ATOM      5  N   UNL     1       2.642   6.384  19.568  0.00  0.00    +0.000 NA
ATOM      6  C   UNL     1       2.454   7.573  18.892  0.00  0.00    +0.000 A 
ATOM      7  C   UNL     1       3.287   7.635  17.793  0.00  0.00    +0.000 A 
ATOM      8  N   UNL     1       3.998   6.464  17.796  0.00  0.00    +0.000 N 
ATOM      9  C   UNL     1       4.973   6.023  16.907  0.00  0.00    +0.000 A 
ENDROOT
BRANCH   6  10
ATOM     10  C   UNL     1       1.496   8.587  19.307  0.00  0.00    +0.000 A 
ATOM     11  C   UNL     1       1.126   8.742  20.650  0.00  0.00    +0.000 A 
ATOM     12  C   UNL     1       0.188   9.704  21.021  0.00  0.00    +0.000 A 
ATOM     13  C   UNL     1      -0.384  10.529  20.053  0.00  0.00    +0.000 A 
ATOM     14  C   UNL     1       0.005  10.434  18.716  0.00  0.00    +0.000 A 
ATOM     15  C   UNL     1       0.910   9.430  18.349  0.00  0.00    +0.000 A 
BRANCH  14  16
ATOM     16  N   UNL     1      -0.675  11.169  17.736  0.00  0.00    +0.000 N 
ATOM     17  H   UNL     1      -0.660  10.740  16.817  0.00  0.00    +0.000 HD
ATOM     18  H   UNL     1      -1.609  11.453  18.018  0.00  0.00    +0.000 HD
ENDBRANCH  14  16
ENDBRANCH   6  10
BRANCH   1  19
ATOM     19  C   UNL     1       6.580   4.368  16.129  0.00  0.00    +0.000 C 
ATOM     20  O   UNL     1       7.766   4.662  16.212  0.00  0.00    +0.000 OA
BRANCH  19  22
ATOM     21  C   UNL     1       6.291   4.048  13.828  0.00  0.00    +0.000 C 
ATOM     22  O   UNL     1       6.022   3.603  15.158  0.00  0.00    +0.000 OA
ENDBRANCH  19  22
ENDBRANCH   1  19
TORSDOF 4
ENDMDL
MODEL 5
REMARK VINA RESULT:      -6.9      4.067      7.562
REMARK  Name = 
REMARK  5 active torsions:
REMARK  status: ('A' for Active; 'I' for Inactive)
REMARK    1  A    between atoms: C_1  and  O_2
REMARK    2  A    between atoms: O_2  and  C_3
REMARK    3  A    between atoms: C_3  and  C_5
REMARK    4  A    between atoms: C_10  and  C_11
REMARK    5  A    between atoms: C_15  and  N_16
REMARK                            x       y       z     vdW  Elec       q    Type
REMARK                         _______ _______ _______ _____ _____    ______ ____
ROOT
ATOM      1  C   UNL     1       2.997   3.893  19.786  0.00  0.00    +0.000 A 
ATOM      2  C   UNL     1       3.002   5.355  19.694  0.00  0.00    +0.000 A 
ATOM      3  C   UNL     1       3.587   5.999  18.665  0.00  0.00    +0.000 A 
ATOM      4  C   UNL     1       4.213   5.254  17.630  0.00  0.00    +0.000 A 
ATOM      5  N   UNL     1       4.838   5.632  16.536  0.00  0.00    +0.000 NA
ATOM      6  C   UNL     1       5.221   4.466  15.903  0.00  0.00    +0.000 A 
ATOM      7  C   UNL     1       4.821   3.369  16.637  0.00  0.00    +0.000 A 
ATOM      8  N   UNL     1       4.182   3.870  17.741  0.00  0.00    +0.000 N 
ATOM      9  C   UNL     1       3.590   3.190  18.801  0.00  0.00    +0.000 A 
ENDROOT
BRANCH   6  10
ATOM     10  C   UNL     1       5.936   4.442  14.635  0.00  0.00    +0.000 A 
ATOM     11  C   UNL     1       5.527   3.620  13.576  0.00  0.00    +0.000 A 
ATOM     12  C   UNL     1       6.243   3.596  12.380  0.00  0.00    +0.000 A 
ATOM     13  C   UNL     1       7.371   4.402  12.226  0.00  0.00    +0.000 A 
ATOM     14  C   UNL     1       7.769   5.271  13.243  0.00  0.00    +0.000 A 
ATOM     15  C   UNL     1       7.073   5.249  14.458  0.00  0.00    +0.000 A 
BRANCH  14  16
ATOM     16  N   UNL     1       8.978   5.969  13.132  0.00  0.00    +0.000 N 
ATOM     17  H   UNL     1       9.299   6.377  14.003  0.00  0.00    +0.000 HD
ATOM     18  H   UNL     1       9.707   5.445  12.656  0.00  0.00    +0.000 HD
ENDBRANCH  14  16
ENDBRANCH   6  10
BRANCH   1  19
ATOM     19  C   UNL     1       2.372   3.140  20.908  0.00  0.00    +0.000 C 
ATOM     20  O   UNL     1       2.589   3.366  22.091  0.00  0.00    +0.000 OA
BRANCH  19  22
ATOM     21  C   UNL     1       0.507   2.671  19.574  0.00  0.00    +0.000 C 
ATOM     22  O   UNL     1       1.543   2.181  20.425  0.00  0.00    +0.000 OA
ENDBRANCH  19  22
ENDBRANCH   1  19
TORSDOF 4
ENDMDL
MODEL 6
REMARK VINA RESULT:      -6.9      1.307      1.722
REMARK  Name = 
REMARK  5 active torsions:
REMARK  status: ('A' for Active; 'I' for Inactive)
REMARK    1  A    between atoms: C_1  and  O_2
REMARK    2  A    between atoms: O_2  and  C_3
REMARK    3  A    between atoms: C_3  and  C_5
REMARK    4  A    between atoms: C_10  and  C_11
REMARK    5  A    between atoms: C_15  and  N_16
REMARK                            x       y       z     vdW  Elec       q    Type
REMARK                         _______ _______ _______ _____ _____    ______ ____
ROOT
ATOM      1  C   UNL     1       5.438   5.108  16.416  0.00  0.00    +0.000 A 
ATOM      2  C   UNL     1       4.811   4.101  17.274  0.00  0.00    +0.000 A 
ATOM      3  C   UNL     1       3.830   4.419  18.141  0.00  0.00    +0.000 A 
ATOM      4  C   UNL     1       3.374   5.763  18.231  0.00  0.00    +0.000 A 
ATOM      5  N   UNL     1       2.447   6.324  18.975  0.00  0.00    +0.000 NA
ATOM      6  C   UNL     1       2.434   7.656  18.615  0.00  0.00    +0.000 A 
ATOM      7  C   UNL     1       3.379   7.897  17.639  0.00  0.00    +0.000 A 
ATOM      8  N   UNL     1       3.982   6.692  17.395  0.00  0.00    +0.000 N 
ATOM      9  C   UNL     1       5.002   6.381  16.502  0.00  0.00    +0.000 A 
ENDROOT
BRANCH   6  10
ATOM     10  C   UNL     1       1.530   8.635  19.202  0.00  0.00    +0.000 A 
ATOM     11  C   UNL     1       0.963   9.663  18.435  0.00  0.00    +0.000 A 
ATOM     12  C   UNL     1       0.119  10.603  19.024  0.00  0.00    +0.000 A 
ATOM     13  C   UNL     1      -0.176  10.520  20.385  0.00  0.00    +0.000 A 
ATOM     14  C   UNL     1       0.330   9.476  21.160  0.00  0.00    +0.000 A 
ATOM     15  C   UNL     1       1.217   8.568  20.570  0.00  0.00    +0.000 A 
BRANCH  14  16
ATOM     16  N   UNL     1       0.142   9.481  22.549  0.00  0.00    +0.000 N 
ATOM     17  H   UNL     1       0.580  10.265  23.020  0.00  0.00    +0.000 HD
ATOM     18  H   UNL     1      -0.827   9.353  22.826  0.00  0.00    +0.000 HD
ENDBRANCH  14  16
ENDBRANCH   6  10
BRANCH   1  19
ATOM     19  C   UNL     1       6.531   4.804  15.452  0.00  0.00    +0.000 C 
ATOM     20  O   UNL     1       7.529   5.497  15.304  0.00  0.00    +0.000 OA
BRANCH  19  22
ATOM     21  C   UNL     1       6.155   3.828  13.358  0.00  0.00    +0.000 C 
ATOM     22  O   UNL     1       6.254   3.663  14.773  0.00  0.00    +0.000 OA
ENDBRANCH  19  22
ENDBRANCH   1  19
TORSDOF 4
ENDMDL
MODEL 7
REMARK VINA RESULT:      -6.9      4.770      7.878
REMARK  Name = 
REMARK  5 active torsions:
REMARK  status: ('A' for Active; 'I' for Inactive)
REMARK    1  A    between atoms: C_1  and  O_2
REMARK    2  A    between atoms: O_2  and  C_3
REMARK    3  A    between atoms: C_3  and  C_5
REMARK    4  A    between atoms: C_10  and  C_11
REMARK    5  A    between atoms: C_15  and  N_16
REMARK                            x       y       z     vdW  Elec       q    Type
REMARK                         _______ _______ _______ _____ _____    ______ ____
ROOT
ATOM      1  C   UNL     1       1.138   9.903  19.938  0.00  0.00    +0.000 A 
ATOM      2  C   UNL     1       1.551  10.100  18.547  0.00  0.00    +0.000 A 
ATOM      3  C   UNL     1       2.043   9.090  17.803  0.00  0.00    +0.000 A 
ATOM      4  C   UNL     1       2.163   7.790  18.367  0.00  0.00    +0.000 A 
ATOM      5  N   UNL     1       2.598   6.656  17.864  0.00  0.00    +0.000 NA
ATOM      6  C   UNL     1       2.463   5.724  18.873  0.00  0.00    +0.000 A 
ATOM      7  C   UNL     1       1.942   6.316  20.005  0.00  0.00    +0.000 A 
ATOM      8  N   UNL     1       1.753   7.634  19.685  0.00  0.00    +0.000 N 
ATOM      9  C   UNL     1       1.252   8.669  20.469  0.00  0.00    +0.000 A 
ENDROOT
BRANCH   6  10
ATOM     10  C   UNL     1       2.824   4.322  18.720  0.00  0.00    +0.000 A 
ATOM     11  C   UNL     1       2.184   3.496  17.786  0.00  0.00    +0.000 A 
ATOM     12  C   UNL     1       2.529   2.150  17.675  0.00  0.00    +0.000 A 
ATOM     13  C   UNL     1       3.527   1.617  18.491  0.00  0.00    +0.000 A 
ATOM     14  C   UNL     1       4.218   2.428  19.392  0.00  0.00    +0.000 A 
ATOM     15  C   UNL     1       3.828   3.765  19.530  0.00  0.00    +0.000 A 
BRANCH  14  16
ATOM     16  N   UNL     1       5.117   1.854  20.301  0.00  0.00    +0.000 N 
ATOM     17  H   UNL     1       4.689   1.558  21.170  0.00  0.00    +0.000 HD
ATOM     18  H   UNL     1       5.703   1.133  19.890  0.00  0.00    +0.000 HD
ENDBRANCH  14  16
ENDBRANCH   6  10
BRANCH   1  19
ATOM     19  C   UNL     1       0.600  10.991  20.800  0.00  0.00    +0.000 C 
ATOM     20  O   UNL     1       0.726  11.029  22.017  0.00  0.00    +0.000 OA
BRANCH  19  22
ATOM     21  C   UNL     1      -1.466  11.798  20.051  0.00  0.00    +0.000 C 
ATOM     22  O   UNL     1      -0.042  11.915  20.042  0.00  0.00    +0.000 OA
ENDBRANCH  19  22
ENDBRANCH   1  19
TORSDOF 4
ENDMDL
MODEL 8
REMARK VINA RESULT:      -6.8      2.957      3.969
REMARK  Name = 
REMARK  5 active torsions:
REMARK  status: ('A' for Active; 'I' for Inactive)
REMARK    1  A    between atoms: C_1  and  O_2
REMARK    2  A    between atoms: O_2  and  C_3
REMARK    3  A    between atoms: C_3  and  C_5
REMARK    4  A    between atoms: C_10  and  C_11
REMARK    5  A    between atoms: C_15  and  N_16
REMARK                            x       y       z     vdW  Elec       q    Type
REMARK                         _______ _______ _______ _____ _____    ______ ____
ROOT
ATOM      1  C   UNL     1       3.700   5.181  18.701  0.00  0.00    +0.000 A 
ATOM      2  C   UNL     1       3.797   6.176  17.632  0.00  0.00    +0.000 A 
ATOM      3  C   UNL     1       3.175   7.369  17.714  0.00  0.00    +0.000 A 
ATOM      4  C   UNL     1       2.407   7.687  18.867  0.00  0.00    +0.000 A 
ATOM      5  N   UNL     1       1.720   8.760  19.191  0.00  0.00    +0.000 NA
ATOM      6  C   UNL     1       1.197   8.505  20.443  0.00  0.00    +0.000 A 
ATOM      7  C   UNL     1       1.575   7.250  20.873  0.00  0.00    +0.000 A 
ATOM      8  N   UNL     1       2.343   6.725  19.868  0.00  0.00    +0.000 N 
ATOM      9  C   UNL     1       2.972   5.486  19.794  0.00  0.00    +0.000 A 
ENDROOT
BRANCH   6  10
ATOM     10  C   UNL     1       0.374   9.457  21.176  0.00  0.00    +0.000 A 
ATOM     11  C   UNL     1       0.120   9.306  22.545  0.00  0.00    +0.000 A 
ATOM     12  C   UNL     1      -0.692  10.217  23.221  0.00  0.00    +0.000 A 
ATOM     13  C   UNL     1      -1.249  11.296  22.534  0.00  0.00    +0.000 A 
ATOM     14  C   UNL     1      -0.968  11.502  21.183  0.00  0.00    +0.000 A 
ATOM     15  C   UNL     1      -0.195  10.552  20.504  0.00  0.00    +0.000 A 
BRANCH  14  16
ATOM     16  N   UNL     1      -1.643  12.504  20.474  0.00  0.00    +0.000 N 
ATOM     17  H   UNL     1      -2.652  12.462  20.563  0.00  0.00    +0.000 HD
ATOM     18  H   UNL     1      -1.276  13.436  20.643  0.00  0.00    +0.000 HD
ENDBRANCH  14  16
ENDBRANCH   6  10
BRANCH   1  19
ATOM     19  C   UNL     1       4.361   3.847  18.648  0.00  0.00    +0.000 C 
ATOM     20  O   UNL     1       5.192   3.460  19.458  0.00  0.00    +0.000 OA
BRANCH  19  22
ATOM     21  C   UNL     1       3.064   2.042  17.915  0.00  0.00    +0.000 C 
ATOM     22  O   UNL     1       3.910   3.143  17.580  0.00  0.00    +0.000 OA
ENDBRANCH  19  22
ENDBRANCH   1  19
TORSDOF 4
ENDMDL
MODEL 9
REMARK VINA RESULT:      -6.8      4.836      8.407
REMARK  Name = 
REMARK  5 active torsions:
REMARK  status: ('A' for Active; 'I' for Inactive)
REMARK    1  A    between atoms: C_1  and  O_2
REMARK    2  A    between atoms: O_2  and  C_3
REMARK    3  A    between atoms: C_3  and  C_5
REMARK    4  A    between atoms: C_10  and  C_11
REMARK    5  A    between atoms: C_15  and  N_16
REMARK                            x       y       z     vdW  Elec       q    Type
REMARK                         _______ _______ _______ _____ _____    ______ ____
ROOT
ATOM      1  C   UNL     1       0.380  10.419  21.010  0.00  0.00    +0.000 A 
ATOM      2  C   UNL     1       0.557  10.984  19.670  0.00  0.00    +0.000 A 
ATOM      3  C   UNL     1       1.149  10.288  18.679  0.00  0.00    +0.000 A 
ATOM      4  C   UNL     1       1.611   8.966  18.924  0.00  0.00    +0.000 A 
ATOM      5  N   UNL     1       2.205   8.090  18.143  0.00  0.00    +0.000 NA
ATOM      6  C   UNL     1       2.401   6.968  18.923  0.00  0.00    +0.000 A 
ATOM      7  C   UNL     1       1.919   7.181  20.198  0.00  0.00    +0.000 A 
ATOM      8  N   UNL     1       1.418   8.456  20.201  0.00  0.00    +0.000 N 
ATOM      9  C   UNL     1       0.818   9.164  21.237  0.00  0.00    +0.000 A 
ENDROOT
BRANCH   6  10
ATOM     10  C   UNL     1       3.025   5.749  18.428  0.00  0.00    +0.000 A 
ATOM     11  C   UNL     1       2.277   4.744  17.801  0.00  0.00    +0.000 A 
ATOM     12  C   UNL     1       2.893   3.574  17.357  0.00  0.00    +0.000 A 
ATOM     13  C   UNL     1       4.266   3.402  17.527  0.00  0.00    +0.000 A 
ATOM     14  C   UNL     1       5.045   4.409  18.099  0.00  0.00    +0.000 A 
ATOM     15  C   UNL     1       4.408   5.557  18.586  0.00  0.00    +0.000 A 
BRANCH  14  16
ATOM     16  N   UNL     1       6.394   4.169  18.390  0.00  0.00    +0.000 N 
ATOM     17  H   UNL     1       6.738   3.281  18.042  0.00  0.00    +0.000 HD
ATOM     18  H   UNL     1       7.004   4.944  18.149  0.00  0.00    +0.000 HD
ENDBRANCH  14  16
ENDBRANCH   6  10
BRANCH   1  19
ATOM     19  C   UNL     1      -0.258  11.154  22.137  0.00  0.00    +0.000 C 
ATOM     20  O   UNL     1      -0.339  10.724  23.279  0.00  0.00    +0.000 OA
BRANCH  19  22
ATOM     21  C   UNL     1      -0.993  13.290  22.752  0.00  0.00    +0.000 C 
ATOM     22  O   UNL     1      -0.729  12.352  21.707  0.00  0.00    +0.000 OA
ENDBRANCH  19  22
ENDBRANCH   1  19
TORSDOF 4
ENDMDL
