MODEL 1
REMARK VINA RESULT:      -7.5      0.000      0.000
REMARK  Name = 
REMARK  6 active torsions:
REMARK  status: ('A' for Active; 'I' for Inactive)
REMARK    1  A    between atoms: C_1  and  N_2
REMARK    2  A    between atoms: N_2  and  C_3
REMARK    3  A    between atoms: N_2  and  C_4
REMARK    4  A    between atoms: C_7  and  C_8
REMARK    5  A    between atoms: N_9  and  N_10
REMARK    6  A    between atoms: C_11  and  C_13
REMARK                            x       y       z     vdW  Elec       q    Type
REMARK                         _______ _______ _______ _____ _____    ______ ____
ROOT
ATOM      1  N   UNL     1       6.905   7.103  16.988  0.00  0.00    +0.000 N 
ATOM      2  C   UNL     1       6.742   6.250  18.083  0.00  0.00    +0.000 C 
ATOM      3  O   UNL     1       7.447   6.306  19.090  0.00  0.00    +0.000 OA
ATOM      4  H   UNL     1       6.311   7.069  16.169  0.00  0.00    +0.000 HD
ENDROOT
BRANCH   2   5
ATOM      5  C   UNL     1       5.639   5.241  18.068  0.00  0.00    +0.000 A 
ATOM      6  C   UNL     1       5.545   4.423  16.944  0.00  0.00    +0.000 A 
ATOM      7  N   UNL     1       4.615   3.452  16.755  0.00  0.00    +0.000 NA
ATOM      8  C   UNL     1       3.778   3.183  17.766  0.00  0.00    +0.000 A 
ATOM      9  C   UNL     1       2.868   2.141  17.629  0.00  0.00    +0.000 A 
ATOM     10  C   UNL     1       2.089   1.707  18.703  0.00  0.00    +0.000 A 
ATOM     11  C   UNL     1       2.194   2.354  19.928  0.00  0.00    +0.000 A 
ATOM     12  C   UNL     1       3.021   3.473  20.055  0.00  0.00    +0.000 A 
ATOM     13  C   UNL     1       3.824   3.903  18.979  0.00  0.00    +0.000 A 
ATOM     14  C   UNL     1       4.719   4.995  19.087  0.00  0.00    +0.000 A 
ENDBRANCH   2   5
BRANCH   1  16
ATOM     15  C   UNL     1       7.538   9.124  17.889  0.00  0.00    +0.000 C 
ATOM     16  N   UNL     1       7.824   8.128  17.104  0.00  0.00    +0.000 NA
BRANCH  15  20
ATOM     17  C   UNL     1      10.353  12.400  18.534  0.00  0.00    +0.000 A 
ATOM     18  C   UNL     1       9.226  12.534  17.701  0.00  0.00    +0.000 A 
ATOM     19  C   UNL     1       8.309  11.485  17.483  0.00  0.00    +0.000 A 
ATOM     20  C   UNL     1       8.483  10.253  18.111  0.00  0.00    +0.000 A 
ATOM     21  C   UNL     1       9.580  10.090  18.956  0.00  0.00    +0.000 A 
ATOM     22  C   UNL     1      10.492  11.147  19.158  0.00  0.00    +0.000 A 
BRANCH  17  24
ATOM     23  C   UNL     1      10.979  14.500  19.705  0.00  0.00    +0.000 C 
ATOM     24  N   UNL     1      11.254  13.443  18.741  0.00  0.00    +0.000 N 
ATOM     25  C   UNL     1      12.332  13.693  17.783  0.00  0.00    +0.000 C 
ENDBRANCH  17  24
ENDBRANCH  15  20
ENDBRANCH   1  16
TORSDOF 4
ENDMDL
MODEL 2
REMARK VINA RESULT:      -7.4      7.266      9.065
REMARK  Name = 
REMARK  6 active torsions:
REMARK  status: ('A' for Active; 'I' for Inactive)
REMARK    1  A    between atoms: C_1  and  N_2
REMARK    2  A    between atoms: N_2  and  C_3
REMARK    3  A    between atoms: N_2  and  C_4
REMARK    4  A    between atoms: C_7  and  C_8
REMARK    5  A    between atoms: N_9  and  N_10
REMARK    6  A    between atoms: C_11  and  C_13
REMARK                            x       y       z     vdW  Elec       q    Type
REMARK                         _______ _______ _______ _____ _____    ______ ____
ROOT
ATOM      1  N   UNL     1       1.904   8.352  19.885  0.00  0.00    +0.000 N 
ATOM      2  C   UNL     1       2.044   6.968  20.022  0.00  0.00    +0.000 C 
ATOM      3  O   UNL     1       1.463   6.315  20.887  0.00  0.00    +0.000 OA
ATOM      4  H   UNL     1       2.368   8.883  19.159  0.00  0.00    +0.000 HD
ENDROOT
BRANCH   2   5
ATOM      5  C   UNL     1       2.904   6.219  19.055  0.00  0.00    +0.000 A 
ATOM      6  C   UNL     1       2.845   4.828  19.103  0.00  0.00    +0.000 A 
ATOM      7  N   UNL     1       3.548   3.984  18.303  0.00  0.00    +0.000 NA
ATOM      8  C   UNL     1       4.284   4.522  17.320  0.00  0.00    +0.000 A 
ATOM      9  C   UNL     1       4.950   3.679  16.439  0.00  0.00    +0.000 A 
ATOM     10  C   UNL     1       5.592   4.173  15.302  0.00  0.00    +0.000 A 
ATOM     11  C   UNL     1       5.600   5.541  15.063  0.00  0.00    +0.000 A 
ATOM     12  C   UNL     1       5.032   6.414  15.995  0.00  0.00    +0.000 A 
ATOM     13  C   UNL     1       4.366   5.919  17.133  0.00  0.00    +0.000 A 
ATOM     14  C   UNL     1       3.725   6.767  18.069  0.00  0.00    +0.000 A 
ENDBRANCH   2   5
BRANCH   1  16
ATOM     15  C   UNL     1       0.547  10.158  20.325  0.00  0.00    +0.000 C 
ATOM     16  N   UNL     1       0.977   8.986  20.688  0.00  0.00    +0.000 NA
BRANCH  15  20
ATOM     17  C   UNL     1      -2.513  12.325  22.563  0.00  0.00    +0.000 A 
ATOM     18  C   UNL     1      -1.681  11.364  23.169  0.00  0.00    +0.000 A 
ATOM     19  C   UNL     1      -0.689  10.657  22.459  0.00  0.00    +0.000 A 
ATOM     20  C   UNL     1      -0.483  10.899  21.103  0.00  0.00    +0.000 A 
ATOM     21  C   UNL     1      -1.279  11.855  20.472  0.00  0.00    +0.000 A 
ATOM     22  C   UNL     1      -2.272  12.550  21.195  0.00  0.00    +0.000 A 
BRANCH  17  24
ATOM     23  C   UNL     1      -3.644  14.460  23.143  0.00  0.00    +0.000 C 
ATOM     24  N   UNL     1      -3.491  13.016  23.274  0.00  0.00    +0.000 N 
ATOM     25  C   UNL     1      -4.173  12.386  24.406  0.00  0.00    +0.000 C 
ENDBRANCH  17  24
ENDBRANCH  15  20
ENDBRANCH   1  16
TORSDOF 4
ENDMDL
MODEL 3
REMARK VINA RESULT:      -7.3      7.187      8.926
REMARK  Name = 
REMARK  6 active torsions:
REMARK  status: ('A' for Active; 'I' for Inactive)
REMARK    1  A    between atoms: C_1  and  N_2
REMARK    2  A    between atoms: N_2  and  C_3
REMARK    3  A    between atoms: N_2  and  C_4
REMARK    4  A    between atoms: C_7  and  C_8
REMARK    5  A    between atoms: N_9  and  N_10
REMARK    6  A    between atoms: C_11  and  C_13
REMARK                            x       y       z     vdW  Elec       q    Type
REMARK                         _______ _______ _______ _____ _____    ______ ____
ROOT
ATOM      1  N   UNL     1       1.929   8.292  19.705  0.00  0.00    +0.000 N 
ATOM      2  C   UNL     1       2.148   6.926  19.903  0.00  0.00    +0.000 C 
ATOM      3  O   UNL     1       1.621   6.285  20.811  0.00  0.00    +0.000 OA
ATOM      4  H   UNL     1       2.347   8.813  18.944  0.00  0.00    +0.000 HD
ENDROOT
BRANCH   2   5
ATOM      5  C   UNL     1       3.030   6.180  18.954  0.00  0.00    +0.000 A 
ATOM      6  C   UNL     1       3.024   4.790  19.046  0.00  0.00    +0.000 A 
ATOM      7  N   UNL     1       3.753   3.949  18.267  0.00  0.00    +0.000 NA
ATOM      8  C   UNL     1       4.462   4.482  17.263  0.00  0.00    +0.000 A 
ATOM      9  C   UNL     1       5.154   3.638  16.403  0.00  0.00    +0.000 A 
ATOM     10  C   UNL     1       5.769   4.119  15.247  0.00  0.00    +0.000 A 
ATOM     11  C   UNL     1       5.724   5.478  14.965  0.00  0.00    +0.000 A 
ATOM     12  C   UNL     1       5.128   6.359  15.873  0.00  0.00    +0.000 A 
ATOM     13  C   UNL     1       4.489   5.874  17.032  0.00  0.00    +0.000 A 
ATOM     14  C   UNL     1       3.823   6.728  17.945  0.00  0.00    +0.000 A 
ENDBRANCH   2   5
BRANCH   1  16
ATOM     15  C   UNL     1       0.643  10.133  20.209  0.00  0.00    +0.000 C 
ATOM     16  N   UNL     1       0.983   8.912  20.497  0.00  0.00    +0.000 NA
BRANCH  15  20
ATOM     17  C   UNL     1      -2.371  12.301  22.508  0.00  0.00    +0.000 A 
ATOM     18  C   UNL     1      -2.219  12.477  21.120  0.00  0.00    +0.000 A 
ATOM     19  C   UNL     1      -1.250  11.784  20.364  0.00  0.00    +0.000 A 
ATOM     20  C   UNL     1      -0.398  10.869  20.979  0.00  0.00    +0.000 A 
ATOM     21  C   UNL     1      -0.530  10.658  22.351  0.00  0.00    +0.000 A 
ATOM     22  C   UNL     1      -1.500  11.364  23.094  0.00  0.00    +0.000 A 
BRANCH  17  24
ATOM     23  C   UNL     1      -4.741  12.950  22.879  0.00  0.00    +0.000 C 
ATOM     24  N   UNL     1      -3.331  12.992  23.245  0.00  0.00    +0.000 N 
ATOM     25  C   UNL     1      -2.931  14.032  24.195  0.00  0.00    +0.000 C 
ENDBRANCH  17  24
ENDBRANCH  15  20
ENDBRANCH   1  16
TORSDOF 4
ENDMDL
MODEL 4
REMARK VINA RESULT:      -7.3      0.550      1.190
REMARK  Name = 
REMARK  6 active torsions:
REMARK  status: ('A' for Active; 'I' for Inactive)
REMARK    1  A    between atoms: C_1  and  N_2
REMARK    2  A    between atoms: N_2  and  C_3
REMARK    3  A    between atoms: N_2  and  C_4
REMARK    4  A    between atoms: C_7  and  C_8
REMARK    5  A    between atoms: N_9  and  N_10
REMARK    6  A    between atoms: C_11  and  C_13
REMARK                            x       y       z     vdW  Elec       q    Type
REMARK                         _______ _______ _______ _____ _____    ______ ____
ROOT
ATOM      1  N   UNL     1       6.604   7.451  17.290  0.00  0.00    +0.000 N 
ATOM      2  C   UNL     1       6.752   6.237  17.967  0.00  0.00    +0.000 C 
ATOM      3  O   UNL     1       7.781   5.919  18.561  0.00  0.00    +0.000 OA
ATOM      4  H   UNL     1       5.748   7.718  16.820  0.00  0.00    +0.000 HD
ENDROOT
BRANCH   2   5
ATOM      5  C   UNL     1       5.602   5.282  18.020  0.00  0.00    +0.000 A 
ATOM      6  C   UNL     1       5.538   4.315  17.020  0.00  0.00    +0.000 A 
ATOM      7  N   UNL     1       4.574   3.364  16.909  0.00  0.00    +0.000 NA
ATOM      8  C   UNL     1       3.663   3.280  17.888  0.00  0.00    +0.000 A 
ATOM      9  C   UNL     1       2.713   2.267  17.838  0.00  0.00    +0.000 A 
ATOM     10  C   UNL     1       1.848   2.025  18.907  0.00  0.00    +0.000 A 
ATOM     11  C   UNL     1       1.909   2.837  20.032  0.00  0.00    +0.000 A 
ATOM     12  C   UNL     1       2.781   3.929  20.055  0.00  0.00    +0.000 A 
ATOM     13  C   UNL     1       3.669   4.165  18.987  0.00  0.00    +0.000 A 
ATOM     14  C   UNL     1       4.610   5.224  18.999  0.00  0.00    +0.000 A 
ENDBRANCH   2   5
BRANCH   1  16
ATOM     15  C   UNL     1       7.352   9.527  17.941  0.00  0.00    +0.000 C 
ATOM     16  N   UNL     1       7.623   8.376  17.400  0.00  0.00    +0.000 NA
BRANCH  15  20
ATOM     17  C   UNL     1      10.366  12.631  18.533  0.00  0.00    +0.000 A 
ATOM     18  C   UNL     1      10.414  11.401  19.216  0.00  0.00    +0.000 A 
ATOM     19  C   UNL     1       9.448  10.389  19.035  0.00  0.00    +0.000 A 
ATOM     20  C   UNL     1       8.394  10.572  18.142  0.00  0.00    +0.000 A 
ATOM     21  C   UNL     1       8.323  11.773  17.437  0.00  0.00    +0.000 A 
ATOM     22  C   UNL     1       9.294  12.777  17.635  0.00  0.00    +0.000 A 
BRANCH  17  24
ATOM     23  C   UNL     1      11.571  14.641  17.707  0.00  0.00    +0.000 C 
ATOM     24  N   UNL     1      11.326  13.624  18.722  0.00  0.00    +0.000 N 
ATOM     25  C   UNL     1      12.333  13.493  19.776  0.00  0.00    +0.000 C 
ENDBRANCH  17  24
ENDBRANCH  15  20
ENDBRANCH   1  16
TORSDOF 4
ENDMDL
MODEL 5
REMARK VINA RESULT:      -7.2      8.101     10.272
REMARK  Name = 
REMARK  6 active torsions:
REMARK  status: ('A' for Active; 'I' for Inactive)
REMARK    1  A    between atoms: C_1  and  N_2
REMARK    2  A    between atoms: N_2  and  C_3
REMARK    3  A    between atoms: N_2  and  C_4
REMARK    4  A    between atoms: C_7  and  C_8
REMARK    5  A    between atoms: N_9  and  N_10
REMARK    6  A    between atoms: C_11  and  C_13
REMARK                            x       y       z     vdW  Elec       q    Type
REMARK                         _______ _______ _______ _____ _____    ______ ____
ROOT
ATOM      1  N   UNL     1       0.855   9.388  17.816  0.00  0.00    +0.000 N 
ATOM      2  C   UNL     1       1.512   8.718  18.852  0.00  0.00    +0.000 C 
ATOM      3  O   UNL     1       1.236   8.881  20.040  0.00  0.00    +0.000 OA
ATOM      4  H   UNL     1       1.070   9.236  16.838  0.00  0.00    +0.000 HD
ENDROOT
BRANCH   2   5
ATOM      5  C   UNL     1       2.577   7.722  18.521  0.00  0.00    +0.000 A 
ATOM      6  C   UNL     1       2.678   6.606  19.350  0.00  0.00    +0.000 A 
ATOM      7  N   UNL     1       3.576   5.598  19.204  0.00  0.00    +0.000 NA
ATOM      8  C   UNL     1       4.368   5.618  18.123  0.00  0.00    +0.000 A 
ATOM      9  C   UNL     1       5.242   4.559  17.908  0.00  0.00    +0.000 A 
ATOM     10  C   UNL     1       5.967   4.441  16.721  0.00  0.00    +0.000 A 
ATOM     11  C   UNL     1       5.844   5.423  15.746  0.00  0.00    +0.000 A 
ATOM     12  C   UNL     1       5.056   6.551  15.989  0.00  0.00    +0.000 A 
ATOM     13  C   UNL     1       4.308   6.665  17.178  0.00  0.00    +0.000 A 
ATOM     14  C   UNL     1       3.451   7.763  17.435  0.00  0.00    +0.000 A 
ENDBRANCH   2   5
BRANCH   1  16
ATOM     15  C   UNL     1      -1.370   9.923  17.572  0.00  0.00    +0.000 C 
ATOM     16  N   UNL     1      -0.231  10.174  18.147  0.00  0.00    +0.000 NA
BRANCH  15  20
ATOM     17  C   UNL     1      -5.025  12.119  18.516  0.00  0.00    +0.000 A 
ATOM     18  C   UNL     1      -3.835  12.296  19.248  0.00  0.00    +0.000 A 
ATOM     19  C   UNL     1      -2.647  11.593  18.955  0.00  0.00    +0.000 A 
ATOM     20  C   UNL     1      -2.605  10.688  17.896  0.00  0.00    +0.000 A 
ATOM     21  C   UNL     1      -3.762  10.500  17.140  0.00  0.00    +0.000 A 
ATOM     22  C   UNL     1      -4.944  11.205  17.450  0.00  0.00    +0.000 A 
BRANCH  17  24
ATOM     23  C   UNL     1      -6.433  13.352  20.150  0.00  0.00    +0.000 C 
ATOM     24  N   UNL     1      -6.193  12.817  18.816  0.00  0.00    +0.000 N 
ATOM     25  C   UNL     1      -7.347  12.755  17.918  0.00  0.00    +0.000 C 
ENDBRANCH  17  24
ENDBRANCH  15  20
ENDBRANCH   1  16
TORSDOF 4
ENDMDL
MODEL 6
REMARK VINA RESULT:      -7.2      7.811     10.003
REMARK  Name = 
REMARK  6 active torsions:
REMARK  status: ('A' for Active; 'I' for Inactive)
REMARK    1  A    between atoms: C_1  and  N_2
REMARK    2  A    between atoms: N_2  and  C_3
REMARK    3  A    between atoms: N_2  and  C_4
REMARK    4  A    between atoms: C_7  and  C_8
REMARK    5  A    between atoms: N_9  and  N_10
REMARK    6  A    between atoms: C_11  and  C_13
REMARK                            x       y       z     vdW  Elec       q    Type
REMARK                         _______ _______ _______ _____ _____    ______ ____
ROOT
ATOM      1  N   UNL     1       1.206   9.285  17.967  0.00  0.00    +0.000 N 
ATOM      2  C   UNL     1       1.748   8.425  18.926  0.00  0.00    +0.000 C 
ATOM      3  O   UNL     1       1.360   8.387  20.093  0.00  0.00    +0.000 OA
ATOM      4  H   UNL     1       1.513   9.299  17.003  0.00  0.00    +0.000 HD
ENDROOT
BRANCH   2   5
ATOM      5  C   UNL     1       2.825   7.468  18.526  0.00  0.00    +0.000 A 
ATOM      6  C   UNL     1       3.013   6.352  19.340  0.00  0.00    +0.000 A 
ATOM      7  N   UNL     1       3.935   5.377  19.134  0.00  0.00    +0.000 NA
ATOM      8  C   UNL     1       4.661   5.431  18.008  0.00  0.00    +0.000 A 
ATOM      9  C   UNL     1       5.557   4.404  17.735  0.00  0.00    +0.000 A 
ATOM     10  C   UNL     1       6.215   4.317  16.507  0.00  0.00    +0.000 A 
ATOM     11  C   UNL     1       6.001   5.299  15.548  0.00  0.00    +0.000 A 
ATOM     12  C   UNL     1       5.191   6.399  15.845  0.00  0.00    +0.000 A 
ATOM     13  C   UNL     1       4.510   6.479  17.076  0.00  0.00    +0.000 A 
ATOM     14  C   UNL     1       3.632   7.546  17.391  0.00  0.00    +0.000 A 
ENDBRANCH   2   5
BRANCH   1  16
ATOM     15  C   UNL     1      -1.026   9.795  17.733  0.00  0.00    +0.000 C 
ATOM     16  N   UNL     1       0.104  10.036  18.328  0.00  0.00    +0.000 NA
BRANCH  15  20
ATOM     17  C   UNL     1      -4.666  11.978  18.761  0.00  0.00    +0.000 A 
ATOM     18  C   UNL     1      -4.665  10.919  17.834  0.00  0.00    +0.000 A 
ATOM     19  C   UNL     1      -3.497  10.205  17.492  0.00  0.00    +0.000 A 
ATOM     20  C   UNL     1      -2.277  10.523  18.085  0.00  0.00    +0.000 A 
ATOM     21  C   UNL     1      -2.244  11.557  19.019  0.00  0.00    +0.000 A 
ATOM     22  C   UNL     1      -3.419  12.266  19.345  0.00  0.00    +0.000 A 
BRANCH  17  24
ATOM     23  C   UNL     1      -5.771  13.909  19.867  0.00  0.00    +0.000 C 
ATOM     24  N   UNL     1      -5.825  12.678  19.089  0.00  0.00    +0.000 N 
ATOM     25  C   UNL     1      -7.138  12.045  18.956  0.00  0.00    +0.000 C 
ENDBRANCH  17  24
ENDBRANCH  15  20
ENDBRANCH   1  16
TORSDOF 4
ENDMDL
MODEL 7
REMARK VINA RESULT:      -7.2      7.414      8.898
REMARK  Name = 
REMARK  6 active torsions:
REMARK  status: ('A' for Active; 'I' for Inactive)
REMARK    1  A    between atoms: C_1  and  N_2
REMARK    2  A    between atoms: N_2  and  C_3
REMARK    3  A    between atoms: N_2  and  C_4
REMARK    4  A    between atoms: C_7  and  C_8
REMARK    5  A    between atoms: N_9  and  N_10
REMARK    6  A    between atoms: C_11  and  C_13
REMARK                            x       y       z     vdW  Elec       q    Type
REMARK                         _______ _______ _______ _____ _____    ______ ____
ROOT
ATOM      1  N   UNL     1       1.674   8.433  19.621  0.00  0.00    +0.000 N 
ATOM      2  C   UNL     1       2.191   8.410  18.323  0.00  0.00    +0.000 C 
ATOM      3  O   UNL     1       2.030   9.327  17.518  0.00  0.00    +0.000 OA
ATOM      4  H   UNL     1       1.826   7.686  20.288  0.00  0.00    +0.000 HD
ENDROOT
BRANCH   2   5
ATOM      5  C   UNL     1       3.016   7.243  17.883  0.00  0.00    +0.000 A 
ATOM      6  C   UNL     1       2.537   5.974  18.201  0.00  0.00    +0.000 A 
ATOM      7  N   UNL     1       3.146   4.803  17.881  0.00  0.00    +0.000 NA
ATOM      8  C   UNL     1       4.243   4.857  17.114  0.00  0.00    +0.000 A 
ATOM      9  C   UNL     1       4.841   3.670  16.708  0.00  0.00    +0.000 A 
ATOM     10  C   UNL     1       5.880   3.658  15.776  0.00  0.00    +0.000 A 
ATOM     11  C   UNL     1       6.357   4.861  15.270  0.00  0.00    +0.000 A 
ATOM     12  C   UNL     1       5.845   6.070  15.750  0.00  0.00    +0.000 A 
ATOM     13  C   UNL     1       4.782   6.085  16.675  0.00  0.00    +0.000 A 
ATOM     14  C   UNL     1       4.196   7.289  17.139  0.00  0.00    +0.000 A 
ENDBRANCH   2   5
BRANCH   1  16
ATOM     15  C   UNL     1      -0.012   9.491  20.777  0.00  0.00    +0.000 C 
ATOM     16  N   UNL     1       1.060   9.594  20.047  0.00  0.00    +0.000 NA
BRANCH  15  20
ATOM     17  C   UNL     1      -2.125  12.986  22.323  0.00  0.00    +0.000 A 
ATOM     18  C   UNL     1      -1.606  11.988  23.171  0.00  0.00    +0.000 A 
ATOM     19  C   UNL     1      -0.922  10.855  22.686  0.00  0.00    +0.000 A 
ATOM     20  C   UNL     1      -0.719  10.685  21.318  0.00  0.00    +0.000 A 
ATOM     21  C   UNL     1      -1.206  11.661  20.449  0.00  0.00    +0.000 A 
ATOM     22  C   UNL     1      -1.895  12.786  20.950  0.00  0.00    +0.000 A 
BRANCH  17  24
ATOM     23  C   UNL     1      -2.713  14.483  24.217  0.00  0.00    +0.000 C 
ATOM     24  N   UNL     1      -2.802  14.101  22.813  0.00  0.00    +0.000 N 
ATOM     25  C   UNL     1      -3.869  14.726  22.030  0.00  0.00    +0.000 C 
ENDBRANCH  17  24
ENDBRANCH  15  20
ENDBRANCH   1  16
TORSDOF 4
ENDMDL
MODEL 8
REMARK VINA RESULT:      -7.1      7.427      9.194
REMARK  Name = 
REMARK  6 active torsions:
REMARK  status: ('A' for Active; 'I' for Inactive)
REMARK    1  A    between atoms: C_1  and  N_2
REMARK    2  A    between atoms: N_2  and  C_3
REMARK    3  A    between atoms: N_2  and  C_4
REMARK    4  A    between atoms: C_7  and  C_8
REMARK    5  A    between atoms: N_9  and  N_10
REMARK    6  A    between atoms: C_11  and  C_13
REMARK                            x       y       z     vdW  Elec       q    Type
REMARK                         _______ _______ _______ _____ _____    ______ ____
ROOT
ATOM      1  N   UNL     1       1.776   8.931  18.368  0.00  0.00    +0.000 N 
ATOM      2  C   UNL     1       2.209   7.793  19.055  0.00  0.00    +0.000 C 
ATOM      3  O   UNL     1       1.873   7.535  20.210  0.00  0.00    +0.000 OA
ATOM      4  H   UNL     1       2.037   9.129  17.411  0.00  0.00    +0.000 HD
ENDROOT
BRANCH   2   5
ATOM      5  C   UNL     1       3.091   6.807  18.357  0.00  0.00    +0.000 A 
ATOM      6  C   UNL     1       2.945   5.467  18.710  0.00  0.00    +0.000 A 
ATOM      7  N   UNL     1       3.651   4.434  18.182  0.00  0.00    +0.000 NA
ATOM      8  C   UNL     1       4.488   4.702  17.170  0.00  0.00    +0.000 A 
ATOM      9  C   UNL     1       5.165   3.653  16.560  0.00  0.00    +0.000 A 
ATOM     10  C   UNL     1       5.917   3.846  15.400  0.00  0.00    +0.000 A 
ATOM     11  C   UNL     1       6.025   5.122  14.861  0.00  0.00    +0.000 A 
ATOM     12  C   UNL     1       5.444   6.208  15.522  0.00  0.00    +0.000 A 
ATOM     13  C   UNL     1       4.668   6.014  16.682  0.00  0.00    +0.000 A 
ATOM     14  C   UNL     1       4.013   7.081  17.346  0.00  0.00    +0.000 A 
ENDBRANCH   2   5
BRANCH   1  16
ATOM     15  C   UNL     1      -0.193  10.120  18.287  0.00  0.00    +0.000 C 
ATOM     16  N   UNL     1       0.834   9.731  18.984  0.00  0.00    +0.000 NA
BRANCH  15  20
ATOM     17  C   UNL     1      -3.346  12.593  20.022  0.00  0.00    +0.000 A 
ATOM     18  C   UNL     1      -3.533  11.870  18.828  0.00  0.00    +0.000 A 
ATOM     19  C   UNL     1      -2.523  11.067  18.256  0.00  0.00    +0.000 A 
ATOM     20  C   UNL     1      -1.281  10.949  18.875  0.00  0.00    +0.000 A 
ATOM     21  C   UNL     1      -1.066  11.639  20.067  0.00  0.00    +0.000 A 
ATOM     22  C   UNL     1      -2.083  12.443  20.623  0.00  0.00    +0.000 A 
BRANCH  17  24
ATOM     23  C   UNL     1      -5.758  13.097  20.338  0.00  0.00    +0.000 C 
ATOM     24  N   UNL     1      -4.350  13.384  20.577  0.00  0.00    +0.000 N 
ATOM     25  C   UNL     1      -4.035  14.700  21.135  0.00  0.00    +0.000 C 
ENDBRANCH  17  24
ENDBRANCH  15  20
ENDBRANCH   1  16
TORSDOF 4
ENDMDL
MODEL 9
REMARK VINA RESULT:      -7.1      7.375      8.834
REMARK  Name = 
REMARK  6 active torsions:
REMARK  status: ('A' for Active; 'I' for Inactive)
REMARK    1  A    between atoms: C_1  and  N_2
REMARK    2  A    between atoms: N_2  and  C_3
REMARK    3  A    between atoms: N_2  and  C_4
REMARK    4  A    between atoms: C_7  and  C_8
REMARK    5  A    between atoms: N_9  and  N_10
REMARK    6  A    between atoms: C_11  and  C_13
REMARK                            x       y       z     vdW  Elec       q    Type
REMARK                         _______ _______ _______ _____ _____    ______ ____
ROOT
ATOM      1  N   UNL     1       1.682   8.458  19.690  0.00  0.00    +0.000 N 
ATOM      2  C   UNL     1       2.128   8.395  18.367  0.00  0.00    +0.000 C 
ATOM      3  O   UNL     1       1.903   9.276  17.538  0.00  0.00    +0.000 OA
ATOM      4  H   UNL     1       1.887   7.741  20.375  0.00  0.00    +0.000 HD
ENDROOT
BRANCH   2   5
ATOM      5  C   UNL     1       2.954   7.229  17.926  0.00  0.00    +0.000 A 
ATOM      6  C   UNL     1       2.466   5.959  18.227  0.00  0.00    +0.000 A 
ATOM      7  N   UNL     1       3.073   4.788  17.904  0.00  0.00    +0.000 NA
ATOM      8  C   UNL     1       4.180   4.844  17.151  0.00  0.00    +0.000 A 
ATOM      9  C   UNL     1       4.778   3.659  16.740  0.00  0.00    +0.000 A 
ATOM     10  C   UNL     1       5.828   3.651  15.822  0.00  0.00    +0.000 A 
ATOM     11  C   UNL     1       6.316   4.856  15.333  0.00  0.00    +0.000 A 
ATOM     12  C   UNL     1       5.803   6.063  15.817  0.00  0.00    +0.000 A 
ATOM     13  C   UNL     1       4.730   6.074  16.730  0.00  0.00    +0.000 A 
ATOM     14  C   UNL     1       4.142   7.276  17.197  0.00  0.00    +0.000 A 
ENDBRANCH   2   5
BRANCH   1  16
ATOM     15  C   UNL     1      -0.047   9.526  20.769  0.00  0.00    +0.000 C 
ATOM     16  N   UNL     1       1.066   9.622  20.105  0.00  0.00    +0.000 NA
BRANCH  15  20
ATOM     17  C   UNL     1      -2.101  13.041  22.348  0.00  0.00    +0.000 A 
ATOM     18  C   UNL     1      -1.960  12.814  20.966  0.00  0.00    +0.000 A 
ATOM     19  C   UNL     1      -1.300  11.684  20.441  0.00  0.00    +0.000 A 
ATOM     20  C   UNL     1      -0.762  10.722  21.294  0.00  0.00    +0.000 A 
ATOM     21  C   UNL     1      -0.895  10.907  22.670  0.00  0.00    +0.000 A 
ATOM     22  C   UNL     1      -1.553  12.047  23.179  0.00  0.00    +0.000 A 
BRANCH  17  24
ATOM     23  C   UNL     1      -2.349  15.510  22.476  0.00  0.00    +0.000 C 
ATOM     24  N   UNL     1      -2.754  14.163  22.855  0.00  0.00    +0.000 N 
ATOM     25  C   UNL     1      -3.635  14.047  24.019  0.00  0.00    +0.000 C 
ENDBRANCH  17  24
ENDBRANCH  15  20
ENDBRANCH   1  16
TORSDOF 4
ENDMDL
