MODEL 1
REMARK VINA RESULT:      -9.0      0.000      0.000
REMARK  Name = 
REMARK  6 active torsions:
REMARK  status: ('A' for Active; 'I' for Inactive)
REMARK    1  A    between atoms: C_1  and  C_2
REMARK    2  A    between atoms: N_4  and  C_5
REMARK    3  A    between atoms: C_5  and  C_6
REMARK    4  A    between atoms: C_9  and  C_10
REMARK    5  A    between atoms: C_11  and  C_12
REMARK    6  A    between atoms: C_15  and  C_16
REMARK                            x       y       z     vdW  Elec       q    Type
REMARK                         _______ _______ _______ _____ _____    ______ ____
ROOT
ATOM      1  C   UNL     1       2.298   7.469  19.176  0.00  0.00    +0.000 A 
ATOM      2  C   UNL     1       1.713   7.958  20.353  0.00  0.00    +0.000 A 
ATOM      3  C   UNL     1       1.006   9.157  20.356  0.00  0.00    +0.000 A 
ATOM      4  C   UNL     1       0.849   9.870  19.173  0.00  0.00    +0.000 A 
ATOM      5  C   UNL     1       1.551   9.471  18.032  0.00  0.00    +0.000 A 
ATOM      6  C   UNL     1       2.278   8.273  18.036  0.00  0.00    +0.000 A 
ENDROOT
BRANCH   4   7
ATOM      7  C   UNL     1      -0.028  11.065  19.088  0.00  0.00    +0.000 C 
ATOM      8  O   UNL     1       0.295  12.035  19.766  0.00  0.00    +0.000 OA
ATOM      9  N   UNL     1      -1.151  11.064  18.254  0.00  0.00    +0.000 N 
ATOM     10  C   UNL     1      -1.581  10.027  17.309  0.00  0.00    +0.000 C 
ATOM     11  C   UNL     1      -2.944   9.504  17.741  0.00  0.00    +0.000 C 
ATOM     12  C   UNL     1      -3.914  10.671  17.806  0.00  0.00    +0.000 C 
ATOM     13  F   UNL     1      -5.120  10.230  18.245  0.00  0.00    +0.000 F 
ATOM     14  F   UNL     1      -4.116  11.146  16.549  0.00  0.00    +0.000 F 
ATOM     15  C   UNL     1      -3.431  11.800  18.698  0.00  0.00    +0.000 C 
ATOM     16  C   UNL     1      -2.032  12.230  18.288  0.00  0.00    +0.000 C 
ENDBRANCH   4   7
BRANCH   1  23
ATOM     17  C   UNL     1       4.977   6.290  17.586  0.00  0.00    +0.000 C 
ATOM     18  C   UNL     1       4.059   5.622  18.543  0.00  0.00    +0.000 A 
ATOM     19  N   UNL     1       4.281   4.349  18.893  0.00  0.00    +0.000 NA
ATOM     20  N   UNL     1       3.235   4.034  19.690  0.00  0.00    +0.000 N 
ATOM     21  C   UNL     1       2.293   5.029  19.751  0.00  0.00    +0.000 A 
ATOM     22  C   UNL     1       0.932   4.843  20.330  0.00  0.00    +0.000 C 
ATOM     23  C   UNL     1       2.898   6.143  19.176  0.00  0.00    +0.000 A 
BRANCH  20  24
ATOM     24  C   UNL     1       3.258   2.777  20.419  0.00  0.00    +0.000 C 
BRANCH  24  25
ATOM     25  C   UNL     1       4.356   1.835  19.986  0.00  0.00    +0.000 C 
ATOM     26  N   UNL     1       4.297   1.342  18.715  0.00  0.00    +0.000 N 
ATOM     27  O   UNL     1       5.323   1.585  20.700  0.00  0.00    +0.000 OA
ATOM     28  H   UNL     1       3.454   1.471  18.155  0.00  0.00    +0.000 HD
ATOM     29  H   UNL     1       5.011   0.703  18.399  0.00  0.00    +0.000 HD
ENDBRANCH  24  25
ENDBRANCH  20  24
ENDBRANCH   1  23
TORSDOF 4
ENDMDL
MODEL 2
REMARK VINA RESULT:      -8.8      1.718      2.577
REMARK  Name = 
REMARK  6 active torsions:
REMARK  status: ('A' for Active; 'I' for Inactive)
REMARK    1  A    between atoms: C_1  and  C_2
REMARK    2  A    between atoms: N_4  and  C_5
REMARK    3  A    between atoms: C_5  and  C_6
REMARK    4  A    between atoms: C_9  and  C_10
REMARK    5  A    between atoms: C_11  and  C_12
REMARK    6  A    between atoms: C_15  and  C_16
REMARK                            x       y       z     vdW  Elec       q    Type
REMARK                         _______ _______ _______ _____ _____    ______ ____
ROOT
ATOM      1  C   UNL     1       2.425   7.512  18.569  0.00  0.00    +0.000 A 
ATOM      2  C   UNL     1       1.916   7.720  19.858  0.00  0.00    +0.000 A 
ATOM      3  C   UNL     1       1.188   8.866  20.164  0.00  0.00    +0.000 A 
ATOM      4  C   UNL     1       0.933   9.807  19.174  0.00  0.00    +0.000 A 
ATOM      5  C   UNL     1       1.559   9.684  17.931  0.00  0.00    +0.000 A 
ATOM      6  C   UNL     1       2.308   8.538  17.630  0.00  0.00    +0.000 A 
ENDROOT
BRANCH   4   7
ATOM      7  C   UNL     1       0.028  10.963  19.404  0.00  0.00    +0.000 C 
ATOM      8  O   UNL     1       0.311  11.707  20.337  0.00  0.00    +0.000 OA
ATOM      9  N   UNL     1      -1.076  11.177  18.572  0.00  0.00    +0.000 N 
ATOM     10  C   UNL     1      -1.458  10.442  17.361  0.00  0.00    +0.000 C 
ATOM     11  C   UNL     1      -2.817   9.794  17.589  0.00  0.00    +0.000 C 
ATOM     12  C   UNL     1      -3.817  10.878  17.953  0.00  0.00    +0.000 C 
ATOM     13  F   UNL     1      -5.021  10.310  18.215  0.00  0.00    +0.000 F 
ATOM     14  F   UNL     1      -4.002  11.685  16.875  0.00  0.00    +0.000 F 
ATOM     15  C   UNL     1      -3.383  11.718  19.140  0.00  0.00    +0.000 C 
ATOM     16  C   UNL     1      -1.986  12.270  18.908  0.00  0.00    +0.000 C 
ENDBRANCH   4   7
BRANCH   1  23
ATOM     17  C   UNL     1       1.652   4.409  19.501  0.00  0.00    +0.000 C 
ATOM     18  C   UNL     1       2.720   4.900  18.592  0.00  0.00    +0.000 A 
ATOM     19  N   UNL     1       3.535   4.021  17.996  0.00  0.00    +0.000 NA
ATOM     20  N   UNL     1       4.422   4.791  17.325  0.00  0.00    +0.000 N 
ATOM     21  C   UNL     1       4.269   6.129  17.584  0.00  0.00    +0.000 A 
ATOM     22  C   UNL     1       5.268   7.164  17.195  0.00  0.00    +0.000 C 
ATOM     23  C   UNL     1       3.050   6.238  18.246  0.00  0.00    +0.000 A 
BRANCH  20  24
ATOM     24  C   UNL     1       5.339   4.158  16.392  0.00  0.00    +0.000 C 
BRANCH  24  25
ATOM     25  C   UNL     1       6.796   4.407  16.699  0.00  0.00    +0.000 C 
ATOM     26  N   UNL     1       7.219   4.176  17.975  0.00  0.00    +0.000 N 
ATOM     27  O   UNL     1       7.606   4.714  15.827  0.00  0.00    +0.000 OA
ATOM     28  H   UNL     1       6.539   4.013  18.718  0.00  0.00    +0.000 HD
ATOM     29  H   UNL     1       8.186   4.343  18.214  0.00  0.00    +0.000 HD
ENDBRANCH  24  25
ENDBRANCH  20  24
ENDBRANCH   1  23
TORSDOF 4
ENDMDL
MODEL 3
REMARK VINA RESULT:      -8.7      2.755      3.319
REMARK  Name = 
REMARK  6 active torsions:
REMARK  status: ('A' for Active; 'I' for Inactive)
REMARK    1  A    between atoms: C_1  and  C_2
REMARK    2  A    between atoms: N_4  and  C_5
REMARK    3  A    between atoms: C_5  and  C_6
REMARK    4  A    between atoms: C_9  and  C_10
REMARK    5  A    between atoms: C_11  and  C_12
REMARK    6  A    between atoms: C_15  and  C_16
REMARK                            x       y       z     vdW  Elec       q    Type
REMARK                         _______ _______ _______ _____ _____    ______ ____
ROOT
ATOM      1  C   UNL     1       2.648   7.362  18.528  0.00  0.00    +0.000 A 
ATOM      2  C   UNL     1       2.137   7.571  19.817  0.00  0.00    +0.000 A 
ATOM      3  C   UNL     1       1.301   8.650  20.089  0.00  0.00    +0.000 A 
ATOM      4  C   UNL     1       0.941   9.520  19.067  0.00  0.00    +0.000 A 
ATOM      5  C   UNL     1       1.560   9.409  17.819  0.00  0.00    +0.000 A 
ATOM      6  C   UNL     1       2.416   8.332  17.552  0.00  0.00    +0.000 A 
ENDROOT
BRANCH   4   7
ATOM      7  C   UNL     1      -0.072  10.588  19.266  0.00  0.00    +0.000 C 
ATOM      8  O   UNL     1      -1.239  10.290  19.033  0.00  0.00    +0.000 OA
ATOM      9  N   UNL     1       0.311  11.856  19.714  0.00  0.00    +0.000 N 
ATOM     10  C   UNL     1       1.641  12.307  20.139  0.00  0.00    +0.000 C 
ATOM     11  C   UNL     1       2.104  13.419  19.208  0.00  0.00    +0.000 C 
ATOM     12  C   UNL     1       1.074  14.535  19.236  0.00  0.00    +0.000 C 
ATOM     13  F   UNL     1       1.443  15.510  18.368  0.00  0.00    +0.000 F 
ATOM     14  F   UNL     1       1.075  15.104  20.470  0.00  0.00    +0.000 F 
ATOM     15  C   UNL     1      -0.329  14.063  18.901  0.00  0.00    +0.000 C 
ATOM     16  C   UNL     1      -0.715  12.894  19.794  0.00  0.00    +0.000 C 
ENDBRANCH   4   7
BRANCH   1  23
ATOM     17  C   UNL     1       5.741   6.918  17.375  0.00  0.00    +0.000 C 
ATOM     18  C   UNL     1       4.722   5.922  17.794  0.00  0.00    +0.000 A 
ATOM     19  N   UNL     1       5.016   4.617  17.751  0.00  0.00    +0.000 NA
ATOM     20  N   UNL     1       3.866   4.004  18.107  0.00  0.00    +0.000 N 
ATOM     21  C   UNL     1       2.818   4.877  18.250  0.00  0.00    +0.000 A 
ATOM     22  C   UNL     1       1.395   4.447  18.371  0.00  0.00    +0.000 C 
ATOM     23  C   UNL     1       3.393   6.144  18.245  0.00  0.00    +0.000 A 
BRANCH  20  24
ATOM     24  C   UNL     1       3.880   2.573  18.365  0.00  0.00    +0.000 C 
BRANCH  24  25
ATOM     25  C   UNL     1       4.091   2.211  19.815  0.00  0.00    +0.000 C 
ATOM     26  N   UNL     1       5.233   1.536  20.135  0.00  0.00    +0.000 N 
ATOM     27  O   UNL     1       3.326   2.583  20.700  0.00  0.00    +0.000 OA
ATOM     28  H   UNL     1       5.821   1.146  19.398  0.00  0.00    +0.000 HD
ATOM     29  H   UNL     1       5.398   1.272  21.095  0.00  0.00    +0.000 HD
ENDBRANCH  24  25
ENDBRANCH  20  24
ENDBRANCH   1  23
TORSDOF 4
ENDMDL
MODEL 4
REMARK VINA RESULT:      -8.7      1.035      1.042
REMARK  Name = 
REMARK  6 active torsions:
REMARK  status: ('A' for Active; 'I' for Inactive)
REMARK    1  A    between atoms: C_1  and  C_2
REMARK    2  A    between atoms: N_4  and  C_5
REMARK    3  A    between atoms: C_5  and  C_6
REMARK    4  A    between atoms: C_9  and  C_10
REMARK    5  A    between atoms: C_11  and  C_12
REMARK    6  A    between atoms: C_15  and  C_16
REMARK                            x       y       z     vdW  Elec       q    Type
REMARK                         _______ _______ _______ _____ _____    ______ ____
ROOT
ATOM      1  C   UNL     1       2.412   7.603  18.816  0.00  0.00    +0.000 A 
ATOM      2  C   UNL     1       1.844   7.866  20.071  0.00  0.00    +0.000 A 
ATOM      3  C   UNL     1       1.093   9.016  20.289  0.00  0.00    +0.000 A 
ATOM      4  C   UNL     1       0.874   9.908  19.245  0.00  0.00    +0.000 A 
ATOM      5  C   UNL     1       1.556   9.733  18.039  0.00  0.00    +0.000 A 
ATOM      6  C   UNL     1       2.328   8.582  17.826  0.00  0.00    +0.000 A 
ENDROOT
BRANCH   4   7
ATOM      7  C   UNL     1      -0.050  11.063  19.381  0.00  0.00    +0.000 C 
ATOM      8  O   UNL     1       0.213  11.879  20.258  0.00  0.00    +0.000 OA
ATOM      9  N   UNL     1      -1.148  11.197  18.525  0.00  0.00    +0.000 N 
ATOM     10  C   UNL     1      -1.508  10.367  17.369  0.00  0.00    +0.000 C 
ATOM     11  C   UNL     1      -2.859   9.717  17.633  0.00  0.00    +0.000 C 
ATOM     12  C   UNL     1      -3.879  10.809  17.906  0.00  0.00    +0.000 C 
ATOM     13  F   UNL     1      -5.077  10.244  18.199  0.00  0.00    +0.000 F 
ATOM     14  F   UNL     1      -4.066  11.531  16.770  0.00  0.00    +0.000 F 
ATOM     15  C   UNL     1      -3.469  11.742  19.031  0.00  0.00    +0.000 C 
ATOM     16  C   UNL     1      -2.078  12.297  18.770  0.00  0.00    +0.000 C 
ENDBRANCH   4   7
BRANCH   1  23
ATOM     17  C   UNL     1       4.850   6.749  16.713  0.00  0.00    +0.000 C 
ATOM     18  C   UNL     1       4.128   5.936  17.725  0.00  0.00    +0.000 A 
ATOM     19  N   UNL     1       4.459   4.651  17.897  0.00  0.00    +0.000 NA
ATOM     20  N   UNL     1       3.569   4.197  18.809  0.00  0.00    +0.000 N 
ATOM     21  C   UNL     1       2.607   5.123  19.121  0.00  0.00    +0.000 A 
ATOM     22  C   UNL     1       1.365   4.799  19.881  0.00  0.00    +0.000 C 
ATOM     23  C   UNL     1       3.062   6.322  18.581  0.00  0.00    +0.000 A 
BRANCH  20  24
ATOM     24  C   UNL     1       3.764   2.877  19.387  0.00  0.00    +0.000 C 
BRANCH  24  25
ATOM     25  C   UNL     1       3.369   1.742  18.475  0.00  0.00    +0.000 C 
ATOM     26  N   UNL     1       4.165   0.634  18.469  0.00  0.00    +0.000 N 
ATOM     27  O   UNL     1       2.326   1.755  17.826  0.00  0.00    +0.000 OA
ATOM     28  H   UNL     1       5.075   0.655  18.930  0.00  0.00    +0.000 HD
ATOM     29  H   UNL     1       3.933  -0.139  17.862  0.00  0.00    +0.000 HD
ENDBRANCH  24  25
ENDBRANCH  20  24
ENDBRANCH   1  23
TORSDOF 4
ENDMDL
MODEL 5
REMARK VINA RESULT:      -8.6      2.643      3.258
REMARK  Name = 
REMARK  6 active torsions:
REMARK  status: ('A' for Active; 'I' for Inactive)
REMARK    1  A    between atoms: C_1  and  C_2
REMARK    2  A    between atoms: N_4  and  C_5
REMARK    3  A    between atoms: C_5  and  C_6
REMARK    4  A    between atoms: C_9  and  C_10
REMARK    5  A    between atoms: C_11  and  C_12
REMARK    6  A    between atoms: C_15  and  C_16
REMARK                            x       y       z     vdW  Elec       q    Type
REMARK                         _______ _______ _______ _____ _____    ______ ____
ROOT
ATOM      1  C   UNL     1       2.263   7.404  19.266  0.00  0.00    +0.000 A 
ATOM      2  C   UNL     1       1.742   7.915  20.463  0.00  0.00    +0.000 A 
ATOM      3  C   UNL     1       0.993   9.087  20.475  0.00  0.00    +0.000 A 
ATOM      4  C   UNL     1       0.728   9.750  19.283  0.00  0.00    +0.000 A 
ATOM      5  C   UNL     1       1.363   9.335  18.110  0.00  0.00    +0.000 A 
ATOM      6  C   UNL     1       2.133   8.164  18.103  0.00  0.00    +0.000 A 
ENDROOT
BRANCH   4   7
ATOM      7  C   UNL     1      -0.198  10.910  19.219  0.00  0.00    +0.000 C 
ATOM      8  O   UNL     1      -1.331  10.688  18.803  0.00  0.00    +0.000 OA
ATOM      9  N   UNL     1       0.221  12.178  19.636  0.00  0.00    +0.000 N 
ATOM     10  C   UNL     1       1.495  12.555  20.259  0.00  0.00    +0.000 C 
ATOM     11  C   UNL     1       2.215  13.540  19.348  0.00  0.00    +0.000 C 
ATOM     12  C   UNL     1       1.307  14.733  19.110  0.00  0.00    +0.000 C 
ATOM     13  F   UNL     1       1.911  15.595  18.254  0.00  0.00    +0.000 F 
ATOM     14  F   UNL     1       1.149  15.407  20.280  0.00  0.00    +0.000 F 
ATOM     15  C   UNL     1      -0.056  14.348  18.564  0.00  0.00    +0.000 C 
ATOM     16  C   UNL     1      -0.699  13.298  19.455  0.00  0.00    +0.000 C 
ENDBRANCH   4   7
BRANCH   1  23
ATOM     17  C   UNL     1       5.014   6.336  17.721  0.00  0.00    +0.000 C 
ATOM     18  C   UNL     1       4.102   5.627  18.656  0.00  0.00    +0.000 A 
ATOM     19  N   UNL     1       4.364   4.361  19.000  0.00  0.00    +0.000 NA
ATOM     20  N   UNL     1       3.315   4.002  19.774  0.00  0.00    +0.000 N 
ATOM     21  C   UNL     1       2.336   4.961  19.823  0.00  0.00    +0.000 A 
ATOM     22  C   UNL     1       0.972   4.721  20.374  0.00  0.00    +0.000 C 
ATOM     23  C   UNL     1       2.911   6.100  19.268  0.00  0.00    +0.000 A 
BRANCH  20  24
ATOM     24  C   UNL     1       3.370   2.741  20.495  0.00  0.00    +0.000 C 
BRANCH  24  25
ATOM     25  C   UNL     1       4.401   1.774  19.965  0.00  0.00    +0.000 C 
ATOM     26  N   UNL     1       4.268   1.360  18.671  0.00  0.00    +0.000 N 
ATOM     27  O   UNL     1       5.380   1.434  20.623  0.00  0.00    +0.000 OA
ATOM     28  H   UNL     1       3.413   1.563  18.154  0.00  0.00    +0.000 HD
ATOM     29  H   UNL     1       4.937   0.707  18.291  0.00  0.00    +0.000 HD
ENDBRANCH  24  25
ENDBRANCH  20  24
ENDBRANCH   1  23
TORSDOF 4
ENDMDL
MODEL 6
REMARK VINA RESULT:      -8.6      2.101      2.966
REMARK  Name = 
REMARK  6 active torsions:
REMARK  status: ('A' for Active; 'I' for Inactive)
REMARK    1  A    between atoms: C_1  and  C_2
REMARK    2  A    between atoms: N_4  and  C_5
REMARK    3  A    between atoms: C_5  and  C_6
REMARK    4  A    between atoms: C_9  and  C_10
REMARK    5  A    between atoms: C_11  and  C_12
REMARK    6  A    between atoms: C_15  and  C_16
REMARK                            x       y       z     vdW  Elec       q    Type
REMARK                         _______ _______ _______ _____ _____    ______ ____
ROOT
ATOM      1  C   UNL     1       2.693   7.236  18.320  0.00  0.00    +0.000 A 
ATOM      2  C   UNL     1       2.182   7.366  19.620  0.00  0.00    +0.000 A 
ATOM      3  C   UNL     1       1.489   8.508  20.006  0.00  0.00    +0.000 A 
ATOM      4  C   UNL     1       1.270   9.528  19.087  0.00  0.00    +0.000 A 
ATOM      5  C   UNL     1       1.900   9.476  17.841  0.00  0.00    +0.000 A 
ATOM      6  C   UNL     1       2.614   8.332  17.459  0.00  0.00    +0.000 A 
ENDROOT
BRANCH   4   7
ATOM      7  C   UNL     1       0.401  10.692  19.399  0.00  0.00    +0.000 C 
ATOM      8  O   UNL     1       0.707  11.360  20.381  0.00  0.00    +0.000 OA
ATOM      9  N   UNL     1      -0.694  10.998  18.585  0.00  0.00    +0.000 N 
ATOM     10  C   UNL     1      -1.099  10.361  17.327  0.00  0.00    +0.000 C 
ATOM     11  C   UNL     1      -2.477   9.741  17.510  0.00  0.00    +0.000 C 
ATOM     12  C   UNL     1      -3.443  10.827  17.951  0.00  0.00    +0.000 C 
ATOM     13  F   UNL     1      -4.665  10.280  18.174  0.00  0.00    +0.000 F 
ATOM     14  F   UNL     1      -3.603  11.713  16.932  0.00  0.00    +0.000 F 
ATOM     15  C   UNL     1      -2.984  11.568  19.193  0.00  0.00    +0.000 C 
ATOM     16  C   UNL     1      -1.570  12.092  18.998  0.00  0.00    +0.000 C 
ENDBRANCH   4   7
BRANCH   1  23
ATOM     17  C   UNL     1       1.389   4.175  18.186  0.00  0.00    +0.000 C 
ATOM     18  C   UNL     1       2.738   4.660  17.799  0.00  0.00    +0.000 A 
ATOM     19  N   UNL     1       3.628   3.800  17.288  0.00  0.00    +0.000 NA
ATOM     20  N   UNL     1       4.751   4.537  17.131  0.00  0.00    +0.000 N 
ATOM     21  C   UNL     1       4.635   5.802  17.646  0.00  0.00    +0.000 A 
ATOM     22  C   UNL     1       5.791   6.721  17.848  0.00  0.00    +0.000 C 
ATOM     23  C   UNL     1       3.278   5.970  17.906  0.00  0.00    +0.000 A 
BRANCH  20  24
ATOM     24  C   UNL     1       5.871   3.966  16.402  0.00  0.00    +0.000 C 
BRANCH  24  25
ATOM     25  C   UNL     1       6.098   4.582  15.042  0.00  0.00    +0.000 C 
ATOM     26  N   UNL     1       7.233   5.318  14.867  0.00  0.00    +0.000 N 
ATOM     27  O   UNL     1       5.352   4.362  14.091  0.00  0.00    +0.000 OA
ATOM     28  H   UNL     1       7.803   5.580  15.671  0.00  0.00    +0.000 HD
ATOM     29  H   UNL     1       7.407   5.751  13.972  0.00  0.00    +0.000 HD
ENDBRANCH  24  25
ENDBRANCH  20  24
ENDBRANCH   1  23
TORSDOF 4
ENDMDL
MODEL 7
REMARK VINA RESULT:      -8.5      3.576      8.794
REMARK  Name = 
REMARK  6 active torsions:
REMARK  status: ('A' for Active; 'I' for Inactive)
REMARK    1  A    between atoms: C_1  and  C_2
REMARK    2  A    between atoms: N_4  and  C_5
REMARK    3  A    between atoms: C_5  and  C_6
REMARK    4  A    between atoms: C_9  and  C_10
REMARK    5  A    between atoms: C_11  and  C_12
REMARK    6  A    between atoms: C_15  and  C_16
REMARK                            x       y       z     vdW  Elec       q    Type
REMARK                         _______ _______ _______ _____ _____    ______ ____
ROOT
ATOM      1  C   UNL     1       0.665   9.617  19.119  0.00  0.00    +0.000 A 
ATOM      2  C   UNL     1       1.371   9.343  17.939  0.00  0.00    +0.000 A 
ATOM      3  C   UNL     1       2.278   8.291  17.876  0.00  0.00    +0.000 A 
ATOM      4  C   UNL     1       2.471   7.477  18.986  0.00  0.00    +0.000 A 
ATOM      5  C   UNL     1       1.889   7.829  20.206  0.00  0.00    +0.000 A 
ATOM      6  C   UNL     1       0.989   8.901  20.273  0.00  0.00    +0.000 A 
ENDROOT
BRANCH   4   7
ATOM      7  C   UNL     1       3.303   6.247  18.922  0.00  0.00    +0.000 C 
ATOM      8  O   UNL     1       4.336   6.315  18.266  0.00  0.00    +0.000 OA
ATOM      9  N   UNL     1       2.911   5.089  19.602  0.00  0.00    +0.000 N 
ATOM     10  C   UNL     1       1.774   4.909  20.511  0.00  0.00    +0.000 C 
ATOM     11  C   UNL     1       0.832   3.869  19.920  0.00  0.00    +0.000 C 
ATOM     12  C   UNL     1       1.609   2.583  19.696  0.00  0.00    +0.000 C 
ATOM     13  F   UNL     1       0.798   1.662  19.116  0.00  0.00    +0.000 F 
ATOM     14  F   UNL     1       1.967   2.069  20.903  0.00  0.00    +0.000 F 
ATOM     15  C   UNL     1       2.850   2.774  18.844  0.00  0.00    +0.000 C 
ATOM     16  C   UNL     1       3.716   3.883  19.421  0.00  0.00    +0.000 C 
ENDBRANCH   4   7
BRANCH   1  23
ATOM     17  C   UNL     1      -2.056   9.905  17.221  0.00  0.00    +0.000 C 
ATOM     18  C   UNL     1      -1.573  10.754  18.339  0.00  0.00    +0.000 A 
ATOM     19  N   UNL     1      -2.295  11.814  18.723  0.00  0.00    +0.000 NA
ATOM     20  N   UNL     1      -1.544  12.400  19.682  0.00  0.00    +0.000 N 
ATOM     21  C   UNL     1      -0.312  11.815  19.825  0.00  0.00    +0.000 A 
ATOM     22  C   UNL     1       0.804  12.419  20.609  0.00  0.00    +0.000 C 
ATOM     23  C   UNL     1      -0.384  10.626  19.105  0.00  0.00    +0.000 A 
BRANCH  20  24
ATOM     24  C   UNL     1      -2.121  13.476  20.470  0.00  0.00    +0.000 C 
BRANCH  24  25
ATOM     25  C   UNL     1      -3.568  13.260  20.840  0.00  0.00    +0.000 C 
ATOM     26  N   UNL     1      -4.514  13.699  19.961  0.00  0.00    +0.000 N 
ATOM     27  O   UNL     1      -3.901  12.631  21.841  0.00  0.00    +0.000 OA
ATOM     28  H   UNL     1      -4.248  14.300  19.180  0.00  0.00    +0.000 HD
ATOM     29  H   UNL     1      -5.491  13.578  20.184  0.00  0.00    +0.000 HD
ENDBRANCH  24  25
ENDBRANCH  20  24
ENDBRANCH   1  23
TORSDOF 4
ENDMDL
MODEL 8
REMARK VINA RESULT:      -8.5      3.779      8.540
REMARK  Name = 
REMARK  6 active torsions:
REMARK  status: ('A' for Active; 'I' for Inactive)
REMARK    1  A    between atoms: C_1  and  C_2
REMARK    2  A    between atoms: N_4  and  C_5
REMARK    3  A    between atoms: C_5  and  C_6
REMARK    4  A    between atoms: C_9  and  C_10
REMARK    5  A    between atoms: C_11  and  C_12
REMARK    6  A    between atoms: C_15  and  C_16
REMARK                            x       y       z     vdW  Elec       q    Type
REMARK                         _______ _______ _______ _____ _____    ______ ____
ROOT
ATOM      1  C   UNL     1       0.948   9.641  19.293  0.00  0.00    +0.000 A 
ATOM      2  C   UNL     1       1.526   9.547  18.019  0.00  0.00    +0.000 A 
ATOM      3  C   UNL     1       2.319   8.458  17.671  0.00  0.00    +0.000 A 
ATOM      4  C   UNL     1       2.521   7.431  18.585  0.00  0.00    +0.000 A 
ATOM      5  C   UNL     1       2.077   7.584  19.901  0.00  0.00    +0.000 A 
ATOM      6  C   UNL     1       1.293   8.691  20.255  0.00  0.00    +0.000 A 
ENDROOT
BRANCH   4   7
ATOM      7  C   UNL     1       3.222   6.175  18.212  0.00  0.00    +0.000 C 
ATOM      8  O   UNL     1       4.073   6.260  17.333  0.00  0.00    +0.000 OA
ATOM      9  N   UNL     1       2.918   4.973  18.859  0.00  0.00    +0.000 N 
ATOM     10  C   UNL     1       2.017   4.754  19.996  0.00  0.00    +0.000 C 
ATOM     11  C   UNL     1       0.889   3.830  19.559  0.00  0.00    +0.000 C 
ATOM     12  C   UNL     1       1.494   2.538  19.039  0.00  0.00    +0.000 C 
ATOM     13  F   UNL     1       0.504   1.725  18.592  0.00  0.00    +0.000 F 
ATOM     14  F   UNL     1       2.088   1.883  20.071  0.00  0.00    +0.000 F 
ATOM     15  C   UNL     1       2.509   2.756  17.932  0.00  0.00    +0.000 C 
ATOM     16  C   UNL     1       3.566   3.753  18.381  0.00  0.00    +0.000 C 
ENDBRANCH   4   7
BRANCH   1  23
ATOM     17  C   UNL     1      -2.160  10.144  18.206  0.00  0.00    +0.000 C 
ATOM     18  C   UNL     1      -1.337  10.934  19.157  0.00  0.00    +0.000 A 
ATOM     19  N   UNL     1      -1.856  12.027  19.730  0.00  0.00    +0.000 NA
ATOM     20  N   UNL     1      -0.836  12.541  20.453  0.00  0.00    +0.000 N 
ATOM     21  C   UNL     1       0.347  11.877  20.252  0.00  0.00    +0.000 A 
ATOM     22  C   UNL     1       1.671  12.392  20.707  0.00  0.00    +0.000 C 
ATOM     23  C   UNL     1       0.004  10.714  19.571  0.00  0.00    +0.000 A 
BRANCH  20  24
ATOM     24  C   UNL     1      -1.105  13.632  21.375  0.00  0.00    +0.000 C 
BRANCH  24  25
ATOM     25  C   UNL     1      -1.298  13.194  22.807  0.00  0.00    +0.000 C 
ATOM     26  N   UNL     1      -1.974  12.029  23.022  0.00  0.00    +0.000 N 
ATOM     27  O   UNL     1      -0.792  13.797  23.750  0.00  0.00    +0.000 OA
ATOM     28  H   UNL     1      -2.473  11.577  22.255  0.00  0.00    +0.000 HD
ATOM     29  H   UNL     1      -2.128  11.714  23.968  0.00  0.00    +0.000 HD
ENDBRANCH  24  25
ENDBRANCH  20  24
ENDBRANCH   1  23
TORSDOF 4
ENDMDL
MODEL 9
REMARK VINA RESULT:      -8.5      3.167      4.128
REMARK  Name = 
REMARK  6 active torsions:
REMARK  status: ('A' for Active; 'I' for Inactive)
REMARK    1  A    between atoms: C_1  and  C_2
REMARK    2  A    between atoms: N_4  and  C_5
REMARK    3  A    between atoms: C_5  and  C_6
REMARK    4  A    between atoms: C_9  and  C_10
REMARK    5  A    between atoms: C_11  and  C_12
REMARK    6  A    between atoms: C_15  and  C_16
REMARK                            x       y       z     vdW  Elec       q    Type
REMARK                         _______ _______ _______ _____ _____    ______ ____
ROOT
ATOM      1  C   UNL     1       2.404   7.372  18.566  0.00  0.00    +0.000 A 
ATOM      2  C   UNL     1       2.009   7.602  19.891  0.00  0.00    +0.000 A 
ATOM      3  C   UNL     1       1.252   8.719  20.229  0.00  0.00    +0.000 A 
ATOM      4  C   UNL     1       0.852   9.608  19.239  0.00  0.00    +0.000 A 
ATOM      5  C   UNL     1       1.362   9.471  17.945  0.00  0.00    +0.000 A 
ATOM      6  C   UNL     1       2.141   8.355  17.610  0.00  0.00    +0.000 A 
ENDROOT
BRANCH   4   7
ATOM      7  C   UNL     1      -0.090  10.723  19.518  0.00  0.00    +0.000 C 
ATOM      8  O   UNL     1      -1.286  10.468  19.430  0.00  0.00    +0.000 OA
ATOM      9  N   UNL     1       0.392  11.986  19.879  0.00  0.00    +0.000 N 
ATOM     10  C   UNL     1       1.779  12.391  20.135  0.00  0.00    +0.000 C 
ATOM     11  C   UNL     1       2.174  13.457  19.122  0.00  0.00    +0.000 C 
ATOM     12  C   UNL     1       1.198  14.616  19.232  0.00  0.00    +0.000 C 
ATOM     13  F   UNL     1       1.502  15.551  18.296  0.00  0.00    +0.000 F 
ATOM     14  F   UNL     1       1.363  15.217  20.440  0.00  0.00    +0.000 F 
ATOM     15  C   UNL     1      -0.252  14.194  19.075  0.00  0.00    +0.000 C 
ATOM     16  C   UNL     1      -0.576  13.068  20.043  0.00  0.00    +0.000 C 
ENDBRANCH   4   7
BRANCH   1  23
ATOM     17  C   UNL     1       1.667   4.228  19.382  0.00  0.00    +0.000 C 
ATOM     18  C   UNL     1       2.751   4.766  18.522  0.00  0.00    +0.000 A 
ATOM     19  N   UNL     1       3.602   3.922  17.925  0.00  0.00    +0.000 NA
ATOM     20  N   UNL     1       4.492   4.729  17.305  0.00  0.00    +0.000 N 
ATOM     21  C   UNL     1       4.304   6.055  17.598  0.00  0.00    +0.000 A 
ATOM     22  C   UNL     1       5.294   7.121  17.271  0.00  0.00    +0.000 C 
ATOM     23  C   UNL     1       3.064   6.120  18.225  0.00  0.00    +0.000 A 
BRANCH  20  24
ATOM     24  C   UNL     1       5.451   4.142  16.383  0.00  0.00    +0.000 C 
BRANCH  24  25
ATOM     25  C   UNL     1       6.890   4.468  16.702  0.00  0.00    +0.000 C 
ATOM     26  N   UNL     1       7.330   4.200  17.966  0.00  0.00    +0.000 N 
ATOM     27  O   UNL     1       7.676   4.869  15.848  0.00  0.00    +0.000 OA
ATOM     28  H   UNL     1       6.663   3.957  18.699  0.00  0.00    +0.000 HD
ATOM     29  H   UNL     1       8.284   4.416  18.213  0.00  0.00    +0.000 HD
ENDBRANCH  24  25
ENDBRANCH  20  24
ENDBRANCH   1  23
TORSDOF 4
ENDMDL
