MODEL 1
REMARK VINA RESULT:      -6.5      0.000      0.000
REMARK  Name = 
REMARK  8 active torsions:
REMARK  status: ('A' for Active; 'I' for Inactive)
REMARK    1  A    between atoms: C_1  and  O_2
REMARK    2  A    between atoms: O_2  and  C_3
REMARK    3  A    between atoms: C_5  and  O_6
REMARK    4  A    between atoms: O_6  and  C_7
REMARK    5  A    between atoms: C_10  and  C_11
REMARK    6  A    between atoms: C_13  and  C_14
REMARK    7  A    between atoms: C_16  and  C_17
REMARK    8  A    between atoms: C_22  and  C_23
REMARK                            x       y       z     vdW  Elec       q    Type
REMARK                         _______ _______ _______ _____ _____    ______ ____
ROOT
ATOM      1  C   UNL     1       2.539   8.110  18.382  0.00  0.00    +0.000 A 
ATOM      2  C   UNL     1       1.686   8.332  19.457  0.00  0.00    +0.000 A 
ATOM      3  C   UNL     1       1.405   7.303  20.357  0.00  0.00    +0.000 A 
ATOM      4  C   UNL     1       2.054   6.053  20.223  0.00  0.00    +0.000 A 
ATOM      5  N   UNL     1       1.777   5.051  21.177  0.00  0.00    +0.000 NA
ATOM      6  C   UNL     1       2.393   3.914  21.125  0.00  0.00    +0.000 A 
ATOM      7  C   UNL     1       2.039   2.886  22.163  0.00  0.00    +0.000 C 
ATOM      8  C   UNL     1       3.390   3.659  20.120  0.00  0.00    +0.000 A 
ATOM      9  C   UNL     1       4.214   2.588  19.846  0.00  0.00    +0.000 A 
ATOM     10  C   UNL     1       4.375   1.254  20.473  0.00  0.00    +0.000 C 
ATOM     11  N   UNL     1       5.027   2.893  18.791  0.00  0.00    +0.000 NA
ATOM     12  C   UNL     1       4.749   4.123  18.400  0.00  0.00    +0.000 A 
ATOM     13  N   UNL     1       3.676   4.622  19.155  0.00  0.00    +0.000 N 
ATOM     14  C   UNL     1       2.943   5.847  19.146  0.00  0.00    +0.000 A 
ATOM     15  C   UNL     1       3.085   6.840  18.176  0.00  0.00    +0.000 A 
ENDROOT
BRANCH  12  16
ATOM     16  C   UNL     1       5.534   4.781  17.330  0.00  0.00    +0.000 A 
ATOM     17  C   UNL     1       5.112   4.740  15.997  0.00  0.00    +0.000 A 
ATOM     18  C   UNL     1       5.933   5.251  15.005  0.00  0.00    +0.000 A 
ATOM     19  N   UNL     1       7.083   5.901  15.251  0.00  0.00    +0.000 NA
ATOM     20  C   UNL     1       7.415   6.060  16.550  0.00  0.00    +0.000 A 
ATOM     21  C   UNL     1       6.696   5.533  17.621  0.00  0.00    +0.000 A 
ATOM     22  C   UNL     1       7.167   5.821  19.020  0.00  0.00    +0.000 C 
ENDBRANCH  12  16
BRANCH   1  24
ATOM     23  C   UNL     1       2.319  10.358  17.702  0.00  0.00    +0.000 C 
ATOM     24  O   UNL     1       2.892   9.070  17.471  0.00  0.00    +0.000 OA
ENDBRANCH   1  24
BRANCH   3  25
ATOM     25  O   UNL     1       0.529   7.430  21.408  0.00  0.00    +0.000 OA
ATOM     26  C   UNL     1      -0.187   8.653  21.522  0.00  0.00    +0.000 C 
ENDBRANCH   3  25
TORSDOF 3
ENDMDL
MODEL 2
REMARK VINA RESULT:      -6.5      6.607      9.604
REMARK  Name = 
REMARK  8 active torsions:
REMARK  status: ('A' for Active; 'I' for Inactive)
REMARK    1  A    between atoms: C_1  and  O_2
REMARK    2  A    between atoms: O_2  and  C_3
REMARK    3  A    between atoms: C_5  and  O_6
REMARK    4  A    between atoms: O_6  and  C_7
REMARK    5  A    between atoms: C_10  and  C_11
REMARK    6  A    between atoms: C_13  and  C_14
REMARK    7  A    between atoms: C_16  and  C_17
REMARK    8  A    between atoms: C_22  and  C_23
REMARK                            x       y       z     vdW  Elec       q    Type
REMARK                         _______ _______ _______ _____ _____    ______ ____
ROOT
ATOM      1  C   UNL     1      -3.184  11.173  16.700  0.00  0.00    +0.000 A 
ATOM      2  C   UNL     1      -4.559  11.377  16.677  0.00  0.00    +0.000 A 
ATOM      3  C   UNL     1      -5.230  11.776  17.834  0.00  0.00    +0.000 A 
ATOM      4  C   UNL     1      -4.499  12.053  19.013  0.00  0.00    +0.000 A 
ATOM      5  N   UNL     1      -5.208  12.496  20.150  0.00  0.00    +0.000 NA
ATOM      6  C   UNL     1      -4.571  12.815  21.230  0.00  0.00    +0.000 A 
ATOM      7  C   UNL     1      -5.389  13.265  22.409  0.00  0.00    +0.000 C 
ATOM      8  C   UNL     1      -3.135  12.759  21.287  0.00  0.00    +0.000 A 
ATOM      9  C   UNL     1      -2.206  13.065  22.259  0.00  0.00    +0.000 A 
ATOM     10  C   UNL     1      -2.332  13.552  23.654  0.00  0.00    +0.000 C 
ATOM     11  N   UNL     1      -0.946  12.878  21.765  0.00  0.00    +0.000 NA
ATOM     12  C   UNL     1      -1.051  12.475  20.512  0.00  0.00    +0.000 A 
ATOM     13  N   UNL     1      -2.407  12.312  20.186  0.00  0.00    +0.000 N 
ATOM     14  C   UNL     1      -3.099  11.873  19.018  0.00  0.00    +0.000 A 
ATOM     15  C   UNL     1      -2.476  11.325  17.895  0.00  0.00    +0.000 A 
ENDROOT
BRANCH  12  16
ATOM     16  C   UNL     1       0.151  12.277  19.669  0.00  0.00    +0.000 A 
ATOM     17  C   UNL     1       0.836  13.367  19.122  0.00  0.00    +0.000 A 
ATOM     18  C   UNL     1       1.875  13.143  18.234  0.00  0.00    +0.000 A 
ATOM     19  N   UNL     1       2.356  11.924  17.942  0.00  0.00    +0.000 NA
ATOM     20  C   UNL     1       1.782  10.884  18.582  0.00  0.00    +0.000 A 
ATOM     21  C   UNL     1       0.691  10.990  19.444  0.00  0.00    +0.000 A 
ATOM     22  C   UNL     1       0.176   9.746  20.115  0.00  0.00    +0.000 C 
ENDBRANCH  12  16
BRANCH   1  24
ATOM     23  C   UNL     1      -3.179  10.151  14.573  0.00  0.00    +0.000 C 
ATOM     24  O   UNL     1      -2.444  10.811  15.606  0.00  0.00    +0.000 OA
ENDBRANCH   1  24
BRANCH   3  25
ATOM     25  O   UNL     1      -6.593  11.943  17.904  0.00  0.00    +0.000 OA
ATOM     26  C   UNL     1      -7.163  13.007  17.153  0.00  0.00    +0.000 C 
ENDBRANCH   3  25
TORSDOF 3
ENDMDL
MODEL 3
REMARK VINA RESULT:      -6.5      5.940      9.152
REMARK  Name = 
REMARK  8 active torsions:
REMARK  status: ('A' for Active; 'I' for Inactive)
REMARK    1  A    between atoms: C_1  and  O_2
REMARK    2  A    between atoms: O_2  and  C_3
REMARK    3  A    between atoms: C_5  and  O_6
REMARK    4  A    between atoms: O_6  and  C_7
REMARK    5  A    between atoms: C_10  and  C_11
REMARK    6  A    between atoms: C_13  and  C_14
REMARK    7  A    between atoms: C_16  and  C_17
REMARK    8  A    between atoms: C_22  and  C_23
REMARK                            x       y       z     vdW  Elec       q    Type
REMARK                         _______ _______ _______ _____ _____    ______ ____
ROOT
ATOM      1  C   UNL     1      -3.206  10.790  16.483  0.00  0.00    +0.000 A 
ATOM      2  C   UNL     1      -4.509  11.272  16.508  0.00  0.00    +0.000 A 
ATOM      3  C   UNL     1      -5.026  11.842  17.673  0.00  0.00    +0.000 A 
ATOM      4  C   UNL     1      -4.195  12.005  18.806  0.00  0.00    +0.000 A 
ATOM      5  N   UNL     1      -4.740  12.625  19.951  0.00  0.00    +0.000 NA
ATOM      6  C   UNL     1      -3.998  12.844  20.988  0.00  0.00    +0.000 A 
ATOM      7  C   UNL     1      -4.647  13.494  22.179  0.00  0.00    +0.000 C 
ATOM      8  C   UNL     1      -2.603  12.495  20.986  0.00  0.00    +0.000 A 
ATOM      9  C   UNL     1      -1.584  12.638  21.904  0.00  0.00    +0.000 A 
ATOM     10  C   UNL     1      -1.537  13.191  23.279  0.00  0.00    +0.000 C 
ATOM     11  N   UNL     1      -0.415  12.179  21.367  0.00  0.00    +0.000 NA
ATOM     12  C   UNL     1      -0.663  11.761  20.139  0.00  0.00    +0.000 A 
ATOM     13  N   UNL     1      -2.038  11.870  19.878  0.00  0.00    +0.000 N 
ATOM     14  C   UNL     1      -2.863  11.541  18.760  0.00  0.00    +0.000 A 
ATOM     15  C   UNL     1      -2.422  10.837  17.639  0.00  0.00    +0.000 A 
ENDROOT
BRANCH  12  16
ATOM     16  C   UNL     1       0.430  11.290  19.256  0.00  0.00    +0.000 A 
ATOM     17  C   UNL     1       0.567   9.936  18.938  0.00  0.00    +0.000 A 
ATOM     18  C   UNL     1       1.672   9.512  18.218  0.00  0.00    +0.000 A 
ATOM     19  N   UNL     1       2.585  10.347  17.695  0.00  0.00    +0.000 NA
ATOM     20  C   UNL     1       2.371  11.666  17.886  0.00  0.00    +0.000 A 
ATOM     21  C   UNL     1       1.329  12.196  18.646  0.00  0.00    +0.000 A 
ATOM     22  C   UNL     1       1.194  13.691  18.744  0.00  0.00    +0.000 C 
ENDBRANCH  12  16
BRANCH   1  24
ATOM     23  C   UNL     1      -3.458  10.133  14.231  0.00  0.00    +0.000 C 
ATOM     24  O   UNL     1      -2.611  10.245  15.376  0.00  0.00    +0.000 OA
ENDBRANCH   1  24
BRANCH   3  25
ATOM     25  O   UNL     1      -6.320  12.288  17.792  0.00  0.00    +0.000 OA
ATOM     26  C   UNL     1      -6.737  13.333  16.923  0.00  0.00    +0.000 C 
ENDBRANCH   3  25
TORSDOF 3
ENDMDL
MODEL 4
REMARK VINA RESULT:      -6.4      5.805      9.142
REMARK  Name = 
REMARK  8 active torsions:
REMARK  status: ('A' for Active; 'I' for Inactive)
REMARK    1  A    between atoms: C_1  and  O_2
REMARK    2  A    between atoms: O_2  and  C_3
REMARK    3  A    between atoms: C_5  and  O_6
REMARK    4  A    between atoms: O_6  and  C_7
REMARK    5  A    between atoms: C_10  and  C_11
REMARK    6  A    between atoms: C_13  and  C_14
REMARK    7  A    between atoms: C_16  and  C_17
REMARK    8  A    between atoms: C_22  and  C_23
REMARK                            x       y       z     vdW  Elec       q    Type
REMARK                         _______ _______ _______ _____ _____    ______ ____
ROOT
ATOM      1  C   UNL     1      -3.332  10.531  17.106  0.00  0.00    +0.000 A 
ATOM      2  C   UNL     1      -4.560  11.181  17.057  0.00  0.00    +0.000 A 
ATOM      3  C   UNL     1      -4.964  12.003  18.110  0.00  0.00    +0.000 A 
ATOM      4  C   UNL     1      -4.088  12.240  19.195  0.00  0.00    +0.000 A 
ATOM      5  N   UNL     1      -4.515  13.110  20.220  0.00  0.00    +0.000 NA
ATOM      6  C   UNL     1      -3.721  13.399  21.201  0.00  0.00    +0.000 A 
ATOM      7  C   UNL     1      -4.245  14.321  22.267  0.00  0.00    +0.000 C 
ATOM      8  C   UNL     1      -2.384  12.870  21.252  0.00  0.00    +0.000 A 
ATOM      9  C   UNL     1      -1.330  13.027  22.127  0.00  0.00    +0.000 A 
ATOM     10  C   UNL     1      -1.173  13.791  23.388  0.00  0.00    +0.000 C 
ATOM     11  N   UNL     1      -0.247  12.331  21.669  0.00  0.00    +0.000 NA
ATOM     12  C   UNL     1      -0.582  11.751  20.532  0.00  0.00    +0.000 A 
ATOM     13  N   UNL     1      -1.938  11.998  20.263  0.00  0.00    +0.000 N 
ATOM     14  C   UNL     1      -2.830  11.600  19.222  0.00  0.00    +0.000 A 
ATOM     15  C   UNL     1      -2.517  10.665  18.234  0.00  0.00    +0.000 A 
ENDROOT
BRANCH  12  16
ATOM     16  C   UNL     1       0.413  10.996  19.736  0.00  0.00    +0.000 A 
ATOM     17  C   UNL     1       1.201  11.634  18.772  0.00  0.00    +0.000 A 
ATOM     18  C   UNL     1       2.027  10.878  17.957  0.00  0.00    +0.000 A 
ATOM     19  N   UNL     1       2.214   9.556  18.106  0.00  0.00    +0.000 NA
ATOM     20  C   UNL     1       1.558   8.969  19.129  0.00  0.00    +0.000 A 
ATOM     21  C   UNL     1       0.656   9.622  19.968  0.00  0.00    +0.000 A 
ATOM     22  C   UNL     1       0.023   8.846  21.091  0.00  0.00    +0.000 C 
ENDBRANCH  12  16
BRANCH   1  24
ATOM     23  C   UNL     1      -3.048  10.235  14.783  0.00  0.00    +0.000 C 
ATOM     24  O   UNL     1      -2.846   9.733  16.105  0.00  0.00    +0.000 OA
ENDBRANCH   1  24
BRANCH   3  25
ATOM     25  O   UNL     1      -6.185  12.633  18.159  0.00  0.00    +0.000 OA
ATOM     26  C   UNL     1      -6.702  13.156  16.942  0.00  0.00    +0.000 C 
ENDBRANCH   3  25
TORSDOF 3
ENDMDL
MODEL 5
REMARK VINA RESULT:      -6.3      7.136     11.224
REMARK  Name = 
REMARK  8 active torsions:
REMARK  status: ('A' for Active; 'I' for Inactive)
REMARK    1  A    between atoms: C_1  and  O_2
REMARK    2  A    between atoms: O_2  and  C_3
REMARK    3  A    between atoms: C_5  and  O_6
REMARK    4  A    between atoms: O_6  and  C_7
REMARK    5  A    between atoms: C_10  and  C_11
REMARK    6  A    between atoms: C_13  and  C_14
REMARK    7  A    between atoms: C_16  and  C_17
REMARK    8  A    between atoms: C_22  and  C_23
REMARK                            x       y       z     vdW  Elec       q    Type
REMARK                         _______ _______ _______ _____ _____    ______ ____
ROOT
ATOM      1  C   UNL     1      -0.912  10.843  18.799  0.00  0.00    +0.000 A 
ATOM      2  C   UNL     1      -1.375  10.241  17.635  0.00  0.00    +0.000 A 
ATOM      3  C   UNL     1      -2.714  10.369  17.261  0.00  0.00    +0.000 A 
ATOM      4  C   UNL     1      -3.584  11.182  18.025  0.00  0.00    +0.000 A 
ATOM      5  N   UNL     1      -4.920  11.321  17.592  0.00  0.00    +0.000 NA
ATOM      6  C   UNL     1      -5.733  12.101  18.229  0.00  0.00    +0.000 A 
ATOM      7  C   UNL     1      -7.146  12.192  17.722  0.00  0.00    +0.000 C 
ATOM      8  C   UNL     1      -5.289  12.864  19.365  0.00  0.00    +0.000 A 
ATOM      9  C   UNL     1      -5.899  13.778  20.197  0.00  0.00    +0.000 A 
ATOM     10  C   UNL     1      -7.278  14.319  20.259  0.00  0.00    +0.000 C 
ATOM     11  N   UNL     1      -4.992  14.253  21.101  0.00  0.00    +0.000 NA
ATOM     12  C   UNL     1      -3.830  13.674  20.860  0.00  0.00    +0.000 A 
ATOM     13  N   UNL     1      -3.981  12.737  19.826  0.00  0.00    +0.000 N 
ATOM     14  C   UNL     1      -3.097  11.815  19.189  0.00  0.00    +0.000 A 
ATOM     15  C   UNL     1      -1.798  11.544  19.622  0.00  0.00    +0.000 A 
ENDROOT
BRANCH  12  16
ATOM     16  C   UNL     1      -2.615  14.054  21.618  0.00  0.00    +0.000 A 
ATOM     17  C   UNL     1      -1.842  15.155  21.237  0.00  0.00    +0.000 A 
ATOM     18  C   UNL     1      -0.643  15.405  21.886  0.00  0.00    +0.000 A 
ATOM     19  N   UNL     1      -0.217  14.713  22.956  0.00  0.00    +0.000 NA
ATOM     20  C   UNL     1      -1.037  13.740  23.406  0.00  0.00    +0.000 A 
ATOM     21  C   UNL     1      -2.231  13.365  22.792  0.00  0.00    +0.000 A 
ATOM     22  C   UNL     1      -3.062  12.284  23.427  0.00  0.00    +0.000 C 
ENDBRANCH  12  16
BRANCH   1  24
ATOM     23  C   UNL     1       1.191   9.795  18.590  0.00  0.00    +0.000 C 
ATOM     24  O   UNL     1       0.390  10.793  19.223  0.00  0.00    +0.000 OA
ENDBRANCH   1  24
BRANCH   3  25
ATOM     25  O   UNL     1      -3.258   9.757  16.157  0.00  0.00    +0.000 OA
ATOM     26  C   UNL     1      -2.903  10.272  14.880  0.00  0.00    +0.000 C 
ENDBRANCH   3  25
TORSDOF 3
ENDMDL
MODEL 6
REMARK VINA RESULT:      -6.3      7.763     10.638
REMARK  Name = 
REMARK  8 active torsions:
REMARK  status: ('A' for Active; 'I' for Inactive)
REMARK    1  A    between atoms: C_1  and  O_2
REMARK    2  A    between atoms: O_2  and  C_3
REMARK    3  A    between atoms: C_5  and  O_6
REMARK    4  A    between atoms: O_6  and  C_7
REMARK    5  A    between atoms: C_10  and  C_11
REMARK    6  A    between atoms: C_13  and  C_14
REMARK    7  A    between atoms: C_16  and  C_17
REMARK    8  A    between atoms: C_22  and  C_23
REMARK                            x       y       z     vdW  Elec       q    Type
REMARK                         _______ _______ _______ _____ _____    ______ ____
ROOT
ATOM      1  C   UNL     1      -3.617  13.434  23.321  0.00  0.00    +0.000 A 
ATOM      2  C   UNL     1      -4.983  13.398  23.571  0.00  0.00    +0.000 A 
ATOM      3  C   UNL     1      -5.879  13.103  22.542  0.00  0.00    +0.000 A 
ATOM      4  C   UNL     1      -5.391  12.758  21.260  0.00  0.00    +0.000 A 
ATOM      5  N   UNL     1      -6.325  12.424  20.257  0.00  0.00    +0.000 NA
ATOM      6  C   UNL     1      -5.919  12.047  19.088  0.00  0.00    +0.000 A 
ATOM      7  C   UNL     1      -6.968  11.720  18.062  0.00  0.00    +0.000 C 
ATOM      8  C   UNL     1      -4.515  11.929  18.795  0.00  0.00    +0.000 A 
ATOM      9  C   UNL     1      -3.804  11.528  17.684  0.00  0.00    +0.000 A 
ATOM     10  C   UNL     1      -4.215  11.082  16.332  0.00  0.00    +0.000 C 
ATOM     11  N   UNL     1      -2.466  11.551  17.963  0.00  0.00    +0.000 NA
ATOM     12  C   UNL     1      -2.314  11.943  19.215  0.00  0.00    +0.000 A 
ATOM     13  N   UNL     1      -3.568  12.265  19.759  0.00  0.00    +0.000 N 
ATOM     14  C   UNL     1      -3.999  12.766  21.024  0.00  0.00    +0.000 A 
ATOM     15  C   UNL     1      -3.138  13.215  22.026  0.00  0.00    +0.000 A 
ENDROOT
BRANCH  12  16
ATOM     16  C   UNL     1      -0.975  11.979  19.847  0.00  0.00    +0.000 A 
ATOM     17  C   UNL     1      -0.431  10.841  20.450  0.00  0.00    +0.000 A 
ATOM     18  C   UNL     1       0.763  10.941  21.145  0.00  0.00    +0.000 A 
ATOM     19  N   UNL     1       1.510  12.057  21.186  0.00  0.00    +0.000 NA
ATOM     20  C   UNL     1       1.048  13.113  20.485  0.00  0.00    +0.000 A 
ATOM     21  C   UNL     1      -0.169  13.141  19.805  0.00  0.00    +0.000 A 
ATOM     22  C   UNL     1      -0.540  14.379  19.035  0.00  0.00    +0.000 C 
ENDBRANCH  12  16
BRANCH   1  24
ATOM     23  C   UNL     1      -2.898  14.857  25.060  0.00  0.00    +0.000 C 
ATOM     24  O   UNL     1      -2.668  13.685  24.277  0.00  0.00    +0.000 OA
ENDBRANCH   1  24
BRANCH   3  25
ATOM     25  O   UNL     1      -7.245  13.105  22.698  0.00  0.00    +0.000 OA
ATOM     26  C   UNL     1      -7.758  13.432  23.984  0.00  0.00    +0.000 C 
ENDBRANCH   3  25
TORSDOF 3
ENDMDL
MODEL 7
REMARK VINA RESULT:      -6.2      7.640     11.199
REMARK  Name = 
REMARK  8 active torsions:
REMARK  status: ('A' for Active; 'I' for Inactive)
REMARK    1  A    between atoms: C_1  and  O_2
REMARK    2  A    between atoms: O_2  and  C_3
REMARK    3  A    between atoms: C_5  and  O_6
REMARK    4  A    between atoms: O_6  and  C_7
REMARK    5  A    between atoms: C_10  and  C_11
REMARK    6  A    between atoms: C_13  and  C_14
REMARK    7  A    between atoms: C_16  and  C_17
REMARK    8  A    between atoms: C_22  and  C_23
REMARK                            x       y       z     vdW  Elec       q    Type
REMARK                         _______ _______ _______ _____ _____    ______ ____
ROOT
ATOM      1  C   UNL     1      -1.525  10.410  17.893  0.00  0.00    +0.000 A 
ATOM      2  C   UNL     1      -2.084  10.199  16.638  0.00  0.00    +0.000 A 
ATOM      3  C   UNL     1      -3.376  10.646  16.359  0.00  0.00    +0.000 A 
ATOM      4  C   UNL     1      -4.090  11.387  17.329  0.00  0.00    +0.000 A 
ATOM      5  N   UNL     1      -5.378  11.858  16.995  0.00  0.00    +0.000 NA
ATOM      6  C   UNL     1      -6.042  12.589  17.832  0.00  0.00    +0.000 A 
ATOM      7  C   UNL     1      -7.413  13.045  17.418  0.00  0.00    +0.000 C 
ATOM      8  C   UNL     1      -5.473  12.962  19.100  0.00  0.00    +0.000 A 
ATOM      9  C   UNL     1      -5.915  13.739  20.150  0.00  0.00    +0.000 A 
ATOM     10  C   UNL     1      -7.176  14.480  20.395  0.00  0.00    +0.000 C 
ATOM     11  N   UNL     1      -4.941  13.814  21.106  0.00  0.00    +0.000 NA
ATOM     12  C   UNL     1      -3.900  13.118  20.687  0.00  0.00    +0.000 A 
ATOM     13  N   UNL     1      -4.211  12.501  19.465  0.00  0.00    +0.000 N 
ATOM     14  C   UNL     1      -3.503  11.623  18.590  0.00  0.00    +0.000 A 
ATOM     15  C   UNL     1      -2.275  11.033  18.894  0.00  0.00    +0.000 A 
ENDROOT
BRANCH  12  16
ATOM     16  C   UNL     1      -2.640  13.084  21.466  0.00  0.00    +0.000 A 
ATOM     17  C   UNL     1      -2.378  12.050  22.370  0.00  0.00    +0.000 A 
ATOM     18  C   UNL     1      -1.253  12.117  23.176  0.00  0.00    +0.000 A 
ATOM     19  N   UNL     1      -0.315  13.072  23.068  0.00  0.00    +0.000 NA
ATOM     20  C   UNL     1      -0.503  13.990  22.096  0.00  0.00    +0.000 A 
ATOM     21  C   UNL     1      -1.627  14.053  21.274  0.00  0.00    +0.000 A 
ATOM     22  C   UNL     1      -1.686  15.113  20.209  0.00  0.00    +0.000 C 
ENDBRANCH  12  16
BRANCH   1  24
ATOM     23  C   UNL     1       0.221  10.585  19.470  0.00  0.00    +0.000 C 
ATOM     24  O   UNL     1      -0.255  10.033  18.241  0.00  0.00    +0.000 OA
ENDBRANCH   1  24
BRANCH   3  25
ATOM     25  O   UNL     1      -4.016  10.425  15.162  0.00  0.00    +0.000 OA
ATOM     26  C   UNL     1      -3.210  10.083  14.041  0.00  0.00    +0.000 C 
ENDBRANCH   3  25
TORSDOF 3
ENDMDL
MODEL 8
REMARK VINA RESULT:      -6.2      0.594      1.364
REMARK  Name = 
REMARK  8 active torsions:
REMARK  status: ('A' for Active; 'I' for Inactive)
REMARK    1  A    between atoms: C_1  and  O_2
REMARK    2  A    between atoms: O_2  and  C_3
REMARK    3  A    between atoms: C_5  and  O_6
REMARK    4  A    between atoms: O_6  and  C_7
REMARK    5  A    between atoms: C_10  and  C_11
REMARK    6  A    between atoms: C_13  and  C_14
REMARK    7  A    between atoms: C_16  and  C_17
REMARK    8  A    between atoms: C_22  and  C_23
REMARK                            x       y       z     vdW  Elec       q    Type
REMARK                         _______ _______ _______ _____ _____    ______ ____
ROOT
ATOM      1  C   UNL     1       2.541   8.289  18.533  0.00  0.00    +0.000 A 
ATOM      2  C   UNL     1       1.518   8.415  19.465  0.00  0.00    +0.000 A 
ATOM      3  C   UNL     1       1.173   7.337  20.281  0.00  0.00    +0.000 A 
ATOM      4  C   UNL     1       1.919   6.137  20.216  0.00  0.00    +0.000 A 
ATOM      5  N   UNL     1       1.567   5.084  21.086  0.00  0.00    +0.000 NA
ATOM      6  C   UNL     1       2.260   3.991  21.099  0.00  0.00    +0.000 A 
ATOM      7  C   UNL     1       1.820   2.903  22.040  0.00  0.00    +0.000 C 
ATOM      8  C   UNL     1       3.416   3.838  20.258  0.00  0.00    +0.000 A 
ATOM      9  C   UNL     1       4.344   2.833  20.087  0.00  0.00    +0.000 A 
ATOM     10  C   UNL     1       4.497   1.489  20.694  0.00  0.00    +0.000 C 
ATOM     11  N   UNL     1       5.289   3.230  19.183  0.00  0.00    +0.000 NA
ATOM     12  C   UNL     1       4.991   4.453  18.787  0.00  0.00    +0.000 A 
ATOM     13  N   UNL     1       3.781   4.853  19.377  0.00  0.00    +0.000 N 
ATOM     14  C   UNL     1       2.976   6.029  19.287  0.00  0.00    +0.000 A 
ATOM     15  C   UNL     1       3.199   7.065  18.380  0.00  0.00    +0.000 A 
ENDROOT
BRANCH  12  16
ATOM     16  C   UNL     1       5.885   5.200  17.873  0.00  0.00    +0.000 A 
ATOM     17  C   UNL     1       6.850   6.083  18.368  0.00  0.00    +0.000 A 
ATOM     18  C   UNL     1       7.580   6.862  17.485  0.00  0.00    +0.000 A 
ATOM     19  N   UNL     1       7.503   6.745  16.149  0.00  0.00    +0.000 NA
ATOM     20  C   UNL     1       6.672   5.792  15.678  0.00  0.00    +0.000 A 
ATOM     21  C   UNL     1       5.846   4.998  16.473  0.00  0.00    +0.000 A 
ATOM     22  C   UNL     1       4.995   3.950  15.811  0.00  0.00    +0.000 C 
ENDBRANCH  12  16
BRANCH   1  24
ATOM     23  C   UNL     1       2.231  10.524  17.841  0.00  0.00    +0.000 C 
ATOM     24  O   UNL     1       2.964   9.304  17.715  0.00  0.00    +0.000 OA
ENDBRANCH   1  24
BRANCH   3  25
ATOM     25  O   UNL     1       0.137   7.367  21.184  0.00  0.00    +0.000 OA
ATOM     26  C   UNL     1      -0.305   8.642  21.632  0.00  0.00    +0.000 C 
ENDBRANCH   3  25
TORSDOF 3
ENDMDL
MODEL 9
REMARK VINA RESULT:      -6.2      7.811     10.485
REMARK  Name = 
REMARK  8 active torsions:
REMARK  status: ('A' for Active; 'I' for Inactive)
REMARK    1  A    between atoms: C_1  and  O_2
REMARK    2  A    between atoms: O_2  and  C_3
REMARK    3  A    between atoms: C_5  and  O_6
REMARK    4  A    between atoms: O_6  and  C_7
REMARK    5  A    between atoms: C_10  and  C_11
REMARK    6  A    between atoms: C_13  and  C_14
REMARK    7  A    between atoms: C_16  and  C_17
REMARK    8  A    between atoms: C_22  and  C_23
REMARK                            x       y       z     vdW  Elec       q    Type
REMARK                         _______ _______ _______ _____ _____    ______ ____
ROOT
ATOM      1  C   UNL     1      -3.411  13.591  23.252  0.00  0.00    +0.000 A 
ATOM      2  C   UNL     1      -4.722  13.310  23.617  0.00  0.00    +0.000 A 
ATOM      3  C   UNL     1      -5.627  12.825  22.671  0.00  0.00    +0.000 A 
ATOM      4  C   UNL     1      -5.188  12.541  21.357  0.00  0.00    +0.000 A 
ATOM      5  N   UNL     1      -6.122  12.012  20.441  0.00  0.00    +0.000 NA
ATOM      6  C   UNL     1      -5.748  11.685  19.245  0.00  0.00    +0.000 A 
ATOM      7  C   UNL     1      -6.797  11.141  18.316  0.00  0.00    +0.000 C 
ATOM      8  C   UNL     1      -4.375  11.821  18.837  0.00  0.00    +0.000 A 
ATOM      9  C   UNL     1      -3.694  11.529  17.674  0.00  0.00    +0.000 A 
ATOM     10  C   UNL     1      -4.122  10.977  16.367  0.00  0.00    +0.000 C 
ATOM     11  N   UNL     1      -2.366  11.808  17.839  0.00  0.00    +0.000 NA
ATOM     12  C   UNL     1      -2.189  12.256  19.068  0.00  0.00    +0.000 A 
ATOM     13  N   UNL     1      -3.433  12.354  19.713  0.00  0.00    +0.000 N 
ATOM     14  C   UNL     1      -3.847  12.801  21.003  0.00  0.00    +0.000 A 
ATOM     15  C   UNL     1      -3.006  13.430  21.924  0.00  0.00    +0.000 A 
ENDROOT
BRANCH  12  16
ATOM     16  C   UNL     1      -0.834  12.557  19.585  0.00  0.00    +0.000 A 
ATOM     17  C   UNL     1      -0.314  13.854  19.534  0.00  0.00    +0.000 A 
ATOM     18  C   UNL     1       1.002  14.077  19.904  0.00  0.00    +0.000 A 
ATOM     19  N   UNL     1       1.799  13.131  20.428  0.00  0.00    +0.000 NA
ATOM     20  C   UNL     1       1.246  11.913  20.606  0.00  0.00    +0.000 A 
ATOM     21  C   UNL     1      -0.045  11.564  20.211  0.00  0.00    +0.000 A 
ATOM     22  C   UNL     1      -0.540  10.175  20.504  0.00  0.00    +0.000 C 
ENDBRANCH  12  16
BRANCH   1  24
ATOM     23  C   UNL     1      -2.914  14.976  25.096  0.00  0.00    +0.000 C 
ATOM     24  O   UNL     1      -2.452  14.040  24.121  0.00  0.00    +0.000 OA
ENDBRANCH   1  24
BRANCH   3  25
ATOM     25  O   UNL     1      -6.952  12.577  22.942  0.00  0.00    +0.000 OA
ATOM     26  C   UNL     1      -7.558  13.326  23.988  0.00  0.00    +0.000 C 
ENDBRANCH   3  25
TORSDOF 3
ENDMDL
