MODEL 1
REMARK VINA RESULT:      -9.5      0.000      0.000
REMARK  Name = 
REMARK  8 active torsions:
REMARK  status: ('A' for Active; 'I' for Inactive)
REMARK    1  A    between atoms: C_1  and  C_2
REMARK    2  A    between atoms: C_7  and  C_8
REMARK    3  A    between atoms: C_8  and  N_9
REMARK    4  A    between atoms: N_9  and  C_17
REMARK    5  A    between atoms: C_10  and  C_12
REMARK    6  A    between atoms: C_20  and  C_21
REMARK    7  A    between atoms: C_21  and  C_22
REMARK    8  A    between atoms: N_24  and  C_25
REMARK                            x       y       z     vdW  Elec       q    Type
REMARK                         _______ _______ _______ _____ _____    ______ ____
ROOT
ATOM      1  C   UNL     1       3.406   6.326  18.372  0.00  0.00    +0.000 A 
ATOM      2  C   UNL     1       3.267   7.283  17.368  0.00  0.00    +0.000 A 
ATOM      3  C   UNL     1       2.539   8.446  17.625  0.00  0.00    +0.000 A 
ATOM      4  C   UNL     1       1.963   8.685  18.880  0.00  0.00    +0.000 A 
ATOM      5  C   UNL     1       2.097   7.711  19.879  0.00  0.00    +0.000 A 
ATOM      6  C   UNL     1       2.799   6.531  19.611  0.00  0.00    +0.000 A 
ENDROOT
BRANCH   1   7
ATOM      7  N   UNL     1       4.131   5.146  18.114  0.00  0.00    +0.000 N 
ATOM      8  C   UNL     1       5.532   5.075  18.102  0.00  0.00    +0.000 C 
ATOM      9  O   UNL     1       6.099   4.004  17.837  0.00  0.00    +0.000 OA
BRANCH   8  10
ATOM     10  C   UNL     1       6.389   6.356  18.287  0.00  0.00    +0.000 C 
ATOM     11  C   UNL     1       7.800   6.263  18.872  0.00  0.00    +0.000 C 
ATOM     12  C   UNL     1       8.370   7.667  18.637  0.00  0.00    +0.000 C 
ATOM     13  C   UNL     1       7.746   8.141  17.327  0.00  0.00    +0.000 C 
ATOM     14  C   UNL     1       6.727   7.061  16.955  0.00  0.00    +0.000 C 
ENDBRANCH   8  10
BRANCH   7  15
ATOM     15  C   UNL     1       3.302   3.944  17.776  0.00  0.00    +0.000 C 
BRANCH  15  22
ATOM     16  C   UNL     1       4.553   2.088  19.940  0.00  0.00    +0.000 C 
ATOM     17  C   UNL     1       3.211   2.760  20.077  0.00  0.00    +0.000 A 
ATOM     18  C   UNL     1       2.526   2.601  21.294  0.00  0.00    +0.000 A 
ATOM     19  C   UNL     1       1.157   2.836  21.372  0.00  0.00    +0.000 A 
ATOM     20  C   UNL     1       0.459   3.161  20.216  0.00  0.00    +0.000 A 
ATOM     21  C   UNL     1       1.154   3.438  19.036  0.00  0.00    +0.000 A 
ATOM     22  C   UNL     1       2.554   3.369  18.983  0.00  0.00    +0.000 A 
ENDBRANCH  15  22
ENDBRANCH   7  15
ENDBRANCH   1   7
BRANCH   4  23
ATOM     23  C   UNL     1       1.290  10.012  19.149  0.00  0.00    +0.000 C 
BRANCH  23  24
ATOM     24  C   UNL     1      -0.215  10.085  18.976  0.00  0.00    +0.000 C 
ATOM     25  O   UNL     1      -0.955   9.580  19.820  0.00  0.00    +0.000 OA
ATOM     26  N   UNL     1      -0.652  10.790  17.866  0.00  0.00    +0.000 N 
ATOM     27  H   UNL     1      -0.012  10.834  17.081  0.00  0.00    +0.000 HD
BRANCH  26  28
ATOM     28  C   UNL     1      -2.020  11.002  17.592  0.00  0.00    +0.000 A 
ATOM     29  C   UNL     1      -2.595  10.642  16.364  0.00  0.00    +0.000 A 
ATOM     30  C   UNL     1      -3.941  10.913  16.112  0.00  0.00    +0.000 A 
ATOM     31  C   UNL     1      -4.699  11.559  17.080  0.00  0.00    +0.000 A 
ATOM     32  F   UNL     1      -5.979  11.859  16.827  0.00  0.00    +0.000 F 
ATOM     33  C   UNL     1      -4.147  11.897  18.311  0.00  0.00    +0.000 A 
ATOM     34  C   UNL     1      -2.810  11.595  18.578  0.00  0.00    +0.000 A 
ENDBRANCH  26  28
ENDBRANCH  23  24
ENDBRANCH   4  23
TORSDOF 7
ENDMDL
MODEL 2
REMARK VINA RESULT:      -8.9      0.815      1.436
REMARK  Name = 
REMARK  8 active torsions:
REMARK  status: ('A' for Active; 'I' for Inactive)
REMARK    1  A    between atoms: C_1  and  C_2
REMARK    2  A    between atoms: C_7  and  C_8
REMARK    3  A    between atoms: C_8  and  N_9
REMARK    4  A    between atoms: N_9  and  C_17
REMARK    5  A    between atoms: C_10  and  C_12
REMARK    6  A    between atoms: C_20  and  C_21
REMARK    7  A    between atoms: C_21  and  C_22
REMARK    8  A    between atoms: N_24  and  C_25
REMARK                            x       y       z     vdW  Elec       q    Type
REMARK                         _______ _______ _______ _____ _____    ______ ____
ROOT
ATOM      1  C   UNL     1       3.446   6.217  18.462  0.00  0.00    +0.000 A 
ATOM      2  C   UNL     1       3.003   6.166  19.784  0.00  0.00    +0.000 A 
ATOM      3  C   UNL     1       2.289   7.243  20.310  0.00  0.00    +0.000 A 
ATOM      4  C   UNL     1       1.986   8.369  19.532  0.00  0.00    +0.000 A 
ATOM      5  C   UNL     1       2.446   8.416  18.209  0.00  0.00    +0.000 A 
ATOM      6  C   UNL     1       3.188   7.351  17.691  0.00  0.00    +0.000 A 
ENDROOT
BRANCH   1   7
ATOM      7  N   UNL     1       4.176   5.137  17.929  0.00  0.00    +0.000 N 
ATOM      8  C   UNL     1       5.572   5.129  17.790  0.00  0.00    +0.000 C 
ATOM      9  O   UNL     1       6.142   4.150  17.283  0.00  0.00    +0.000 OA
BRANCH   8  10
ATOM     10  C   UNL     1       6.407   6.389  18.142  0.00  0.00    +0.000 C 
ATOM     11  C   UNL     1       7.799   6.244  18.762  0.00  0.00    +0.000 C 
ATOM     12  C   UNL     1       8.360   7.669  18.700  0.00  0.00    +0.000 C 
ATOM     13  C   UNL     1       7.776   8.278  17.429  0.00  0.00    +0.000 C 
ATOM     14  C   UNL     1       6.782   7.237  16.906  0.00  0.00    +0.000 C 
ENDBRANCH   8  10
BRANCH   7  15
ATOM     15  C   UNL     1       3.353   3.984  17.440  0.00  0.00    +0.000 C 
BRANCH  15  22
ATOM     16  C   UNL     1       4.478   2.110  19.655  0.00  0.00    +0.000 C 
ATOM     17  C   UNL     1       3.096   2.709  19.678  0.00  0.00    +0.000 A 
ATOM     18  C   UNL     1       2.302   2.469  20.814  0.00  0.00    +0.000 A 
ATOM     19  C   UNL     1       0.922   2.634  20.760  0.00  0.00    +0.000 A 
ATOM     20  C   UNL     1       0.326   2.968  19.551  0.00  0.00    +0.000 A 
ATOM     21  C   UNL     1       1.119   3.325  18.457  0.00  0.00    +0.000 A 
ATOM     22  C   UNL     1       2.520   3.326  18.545  0.00  0.00    +0.000 A 
ENDBRANCH  15  22
ENDBRANCH   7  15
ENDBRANCH   1   7
BRANCH   4  23
ATOM     23  C   UNL     1       1.105   9.454  20.108  0.00  0.00    +0.000 C 
BRANCH  23  24
ATOM     24  C   UNL     1       0.202  10.208  19.151  0.00  0.00    +0.000 C 
ATOM     25  O   UNL     1       0.641  11.170  18.522  0.00  0.00    +0.000 OA
ATOM     26  N   UNL     1      -1.080   9.698  19.017  0.00  0.00    +0.000 N 
ATOM     27  H   UNL     1      -1.440   9.176  19.808  0.00  0.00    +0.000 HD
BRANCH  26  28
ATOM     28  C   UNL     1      -2.025  10.246  18.124  0.00  0.00    +0.000 A 
ATOM     29  C   UNL     1      -2.954  11.215  18.531  0.00  0.00    +0.000 A 
ATOM     30  C   UNL     1      -3.906  11.697  17.630  0.00  0.00    +0.000 A 
ATOM     31  C   UNL     1      -3.937  11.194  16.336  0.00  0.00    +0.000 A 
ATOM     32  F   UNL     1      -4.875  11.622  15.482  0.00  0.00    +0.000 F 
ATOM     33  C   UNL     1      -3.005  10.251  15.914  0.00  0.00    +0.000 A 
ATOM     34  C   UNL     1      -2.030   9.794  16.804  0.00  0.00    +0.000 A 
ENDBRANCH  26  28
ENDBRANCH  23  24
ENDBRANCH   4  23
TORSDOF 7
ENDMDL
MODEL 3
REMARK VINA RESULT:      -8.9      0.568      1.018
REMARK  Name = 
REMARK  8 active torsions:
REMARK  status: ('A' for Active; 'I' for Inactive)
REMARK    1  A    between atoms: C_1  and  C_2
REMARK    2  A    between atoms: C_7  and  C_8
REMARK    3  A    between atoms: C_8  and  N_9
REMARK    4  A    between atoms: N_9  and  C_17
REMARK    5  A    between atoms: C_10  and  C_12
REMARK    6  A    between atoms: C_20  and  C_21
REMARK    7  A    between atoms: C_21  and  C_22
REMARK    8  A    between atoms: N_24  and  C_25
REMARK                            x       y       z     vdW  Elec       q    Type
REMARK                         _______ _______ _______ _____ _____    ______ ____
ROOT
ATOM      1  C   UNL     1       3.473   6.232  18.433  0.00  0.00    +0.000 A 
ATOM      2  C   UNL     1       3.356   7.162  17.400  0.00  0.00    +0.000 A 
ATOM      3  C   UNL     1       2.594   8.315  17.598  0.00  0.00    +0.000 A 
ATOM      4  C   UNL     1       1.960   8.571  18.821  0.00  0.00    +0.000 A 
ATOM      5  C   UNL     1       2.073   7.624  19.849  0.00  0.00    +0.000 A 
ATOM      6  C   UNL     1       2.810   6.454  19.641  0.00  0.00    +0.000 A 
ENDROOT
BRANCH   1   7
ATOM      7  N   UNL     1       4.232   5.063  18.235  0.00  0.00    +0.000 N 
ATOM      8  C   UNL     1       5.635   5.028  18.254  0.00  0.00    +0.000 C 
ATOM      9  O   UNL     1       6.234   3.962  18.041  0.00  0.00    +0.000 OA
BRANCH   8  10
ATOM     10  C   UNL     1       6.455   6.337  18.405  0.00  0.00    +0.000 C 
ATOM     11  C   UNL     1       7.881   6.295  18.959  0.00  0.00    +0.000 C 
ATOM     12  C   UNL     1       8.401   7.712  18.695  0.00  0.00    +0.000 C 
ATOM     13  C   UNL     1       7.735   8.152  17.394  0.00  0.00    +0.000 C 
ATOM     14  C   UNL     1       6.741   7.036  17.057  0.00  0.00    +0.000 C 
ENDBRANCH   8  10
BRANCH   7  15
ATOM     15  C   UNL     1       3.441   3.828  17.929  0.00  0.00    +0.000 C 
BRANCH  15  22
ATOM     16  C   UNL     1       4.624   2.056  20.199  0.00  0.00    +0.000 C 
ATOM     17  C   UNL     1       3.280   2.733  20.270  0.00  0.00    +0.000 A 
ATOM     18  C   UNL     1       2.557   2.621  21.471  0.00  0.00    +0.000 A 
ATOM     19  C   UNL     1       1.188   2.860  21.499  0.00  0.00    +0.000 A 
ATOM     20  C   UNL     1       0.524   3.140  20.311  0.00  0.00    +0.000 A 
ATOM     21  C   UNL     1       1.255   3.371  19.142  0.00  0.00    +0.000 A 
ATOM     22  C   UNL     1       2.656   3.299  19.134  0.00  0.00    +0.000 A 
ENDBRANCH  15  22
ENDBRANCH   7  15
ENDBRANCH   1   7
BRANCH   4  23
ATOM     23  C   UNL     1       1.250   9.889  19.028  0.00  0.00    +0.000 C 
BRANCH  23  24
ATOM     24  C   UNL     1      -0.105  10.068  18.370  0.00  0.00    +0.000 C 
ATOM     25  O   UNL     1      -0.460   9.300  17.476  0.00  0.00    +0.000 OA
ATOM     26  N   UNL     1      -0.887  11.089  18.888  0.00  0.00    +0.000 N 
ATOM     27  H   UNL     1      -0.390  11.856  19.327  0.00  0.00    +0.000 HD
BRANCH  26  28
ATOM     28  C   UNL     1      -2.195  11.350  18.428  0.00  0.00    +0.000 A 
ATOM     29  C   UNL     1      -3.187  11.873  19.272  0.00  0.00    +0.000 A 
ATOM     30  C   UNL     1      -4.483  12.072  18.793  0.00  0.00    +0.000 A 
ATOM     31  C   UNL     1      -4.786  11.728  17.481  0.00  0.00    +0.000 A 
ATOM     32  F   UNL     1      -6.038  11.877  17.031  0.00  0.00    +0.000 F 
ATOM     33  C   UNL     1      -3.805  11.233  16.629  0.00  0.00    +0.000 A 
ATOM     34  C   UNL     1      -2.499  11.067  17.096  0.00  0.00    +0.000 A 
ENDBRANCH  26  28
ENDBRANCH  23  24
ENDBRANCH   4  23
TORSDOF 7
ENDMDL
MODEL 4
REMARK VINA RESULT:      -8.9      0.554      1.312
REMARK  Name = 
REMARK  8 active torsions:
REMARK  status: ('A' for Active; 'I' for Inactive)
REMARK    1  A    between atoms: C_1  and  C_2
REMARK    2  A    between atoms: C_7  and  C_8
REMARK    3  A    between atoms: C_8  and  N_9
REMARK    4  A    between atoms: N_9  and  C_17
REMARK    5  A    between atoms: C_10  and  C_12
REMARK    6  A    between atoms: C_20  and  C_21
REMARK    7  A    between atoms: C_21  and  C_22
REMARK    8  A    between atoms: N_24  and  C_25
REMARK                            x       y       z     vdW  Elec       q    Type
REMARK                         _______ _______ _______ _____ _____    ______ ____
ROOT
ATOM      1  C   UNL     1       3.134   6.591  18.271  0.00  0.00    +0.000 A 
ATOM      2  C   UNL     1       2.634   6.830  19.551  0.00  0.00    +0.000 A 
ATOM      3  C   UNL     1       2.057   8.068  19.843  0.00  0.00    +0.000 A 
ATOM      4  C   UNL     1       1.947   9.070  18.869  0.00  0.00    +0.000 A 
ATOM      5  C   UNL     1       2.463   8.825  17.590  0.00  0.00    +0.000 A 
ATOM      6  C   UNL     1       3.070   7.597  17.306  0.00  0.00    +0.000 A 
ENDROOT
BRANCH   1   7
ATOM      7  N   UNL     1       3.726   5.349  17.975  0.00  0.00    +0.000 N 
ATOM      8  C   UNL     1       5.112   5.125  17.966  0.00  0.00    +0.000 C 
ATOM      9  O   UNL     1       5.560   4.008  17.665  0.00  0.00    +0.000 OA
BRANCH   8  10
ATOM     10  C   UNL     1       6.102   6.297  18.198  0.00  0.00    +0.000 C 
ATOM     11  C   UNL     1       7.490   6.031  18.785  0.00  0.00    +0.000 C 
ATOM     12  C   UNL     1       8.212   7.371  18.600  0.00  0.00    +0.000 C 
ATOM     13  C   UNL     1       7.655   7.954  17.305  0.00  0.00    +0.000 C 
ATOM     14  C   UNL     1       6.526   7.005  16.891  0.00  0.00    +0.000 C 
ENDBRANCH   8  10
BRANCH   7  15
ATOM     15  C   UNL     1       2.774   4.257  17.594  0.00  0.00    +0.000 C 
BRANCH  15  22
ATOM     16  C   UNL     1       3.735   1.438  18.498  0.00  0.00    +0.000 C 
ATOM     17  C   UNL     1       2.866   2.342  19.333  0.00  0.00    +0.000 A 
ATOM     18  C   UNL     1       2.542   1.914  20.633  0.00  0.00    +0.000 A 
ATOM     19  C   UNL     1       1.461   2.465  21.311  0.00  0.00    +0.000 A 
ATOM     20  C   UNL     1       0.656   3.394  20.663  0.00  0.00    +0.000 A 
ATOM     21  C   UNL     1       1.045   3.908  19.423  0.00  0.00    +0.000 A 
ATOM     22  C   UNL     1       2.228   3.484  18.799  0.00  0.00    +0.000 A 
ENDBRANCH  15  22
ENDBRANCH   7  15
ENDBRANCH   1   7
BRANCH   4  23
ATOM     23  C   UNL     1       1.204  10.345  19.197  0.00  0.00    +0.000 C 
BRANCH  23  24
ATOM     24  C   UNL     1      -0.305  10.338  19.045  0.00  0.00    +0.000 C 
ATOM     25  O   UNL     1      -0.994   9.640  19.789  0.00  0.00    +0.000 OA
ATOM     26  N   UNL     1      -0.809  11.195  18.079  0.00  0.00    +0.000 N 
ATOM     27  H   UNL     1      -0.187  11.422  17.312  0.00  0.00    +0.000 HD
BRANCH  26  28
ATOM     28  C   UNL     1      -2.193  11.352  17.851  0.00  0.00    +0.000 A 
ATOM     29  C   UNL     1      -3.052  11.870  18.832  0.00  0.00    +0.000 A 
ATOM     30  C   UNL     1      -4.423  11.964  18.586  0.00  0.00    +0.000 A 
ATOM     31  C   UNL     1      -4.930  11.522  17.371  0.00  0.00    +0.000 A 
ATOM     32  F   UNL     1      -6.249  11.570  17.148  0.00  0.00    +0.000 F 
ATOM     33  C   UNL     1      -4.084  11.030  16.381  0.00  0.00    +0.000 A 
ATOM     34  C   UNL     1      -2.709  10.968  16.612  0.00  0.00    +0.000 A 
ENDBRANCH  26  28
ENDBRANCH  23  24
ENDBRANCH   4  23
TORSDOF 7
ENDMDL
MODEL 5
REMARK VINA RESULT:      -8.8      2.290      2.749
REMARK  Name = 
REMARK  8 active torsions:
REMARK  status: ('A' for Active; 'I' for Inactive)
REMARK    1  A    between atoms: C_1  and  C_2
REMARK    2  A    between atoms: C_7  and  C_8
REMARK    3  A    between atoms: C_8  and  N_9
REMARK    4  A    between atoms: N_9  and  C_17
REMARK    5  A    between atoms: C_10  and  C_12
REMARK    6  A    between atoms: C_20  and  C_21
REMARK    7  A    between atoms: C_21  and  C_22
REMARK    8  A    between atoms: N_24  and  C_25
REMARK                            x       y       z     vdW  Elec       q    Type
REMARK                         _______ _______ _______ _____ _____    ______ ____
ROOT
ATOM      1  C   UNL     1       3.624   6.223  18.223  0.00  0.00    +0.000 A 
ATOM      2  C   UNL     1       3.661   7.009  17.071  0.00  0.00    +0.000 A 
ATOM      3  C   UNL     1       2.940   8.204  17.033  0.00  0.00    +0.000 A 
ATOM      4  C   UNL     1       2.197   8.644  18.136  0.00  0.00    +0.000 A 
ATOM      5  C   UNL     1       2.155   7.841  19.284  0.00  0.00    +0.000 A 
ATOM      6  C   UNL     1       2.851   6.629  19.311  0.00  0.00    +0.000 A 
ENDROOT
BRANCH   1   7
ATOM      7  N   UNL     1       4.341   5.011  18.263  0.00  0.00    +0.000 N 
ATOM      8  C   UNL     1       5.724   4.927  18.490  0.00  0.00    +0.000 C 
ATOM      9  O   UNL     1       6.290   3.823  18.481  0.00  0.00    +0.000 OA
BRANCH   8  10
ATOM     10  C   UNL     1       6.581   6.214  18.622  0.00  0.00    +0.000 C 
ATOM     11  C   UNL     1       8.011   6.137  19.163  0.00  0.00    +0.000 C 
ATOM     12  C   UNL     1       8.568   7.537  18.881  0.00  0.00    +0.000 C 
ATOM     13  C   UNL     1       7.902   7.983  17.583  0.00  0.00    +0.000 C 
ATOM     14  C   UNL     1       6.875   6.893  17.265  0.00  0.00    +0.000 C 
ENDBRANCH   8  10
BRANCH   7  15
ATOM     15  C   UNL     1       3.538   3.780  17.975  0.00  0.00    +0.000 C 
BRANCH  15  22
ATOM     16  C   UNL     1       4.620   1.947  20.246  0.00  0.00    +0.000 C 
ATOM     17  C   UNL     1       3.315   2.696  20.316  0.00  0.00    +0.000 A 
ATOM     18  C   UNL     1       2.586   2.624  21.516  0.00  0.00    +0.000 A 
ATOM     19  C   UNL     1       1.231   2.937  21.542  0.00  0.00    +0.000 A 
ATOM     20  C   UNL     1       0.586   3.253  20.353  0.00  0.00    +0.000 A 
ATOM     21  C   UNL     1       1.329   3.443  19.185  0.00  0.00    +0.000 A 
ATOM     22  C   UNL     1       2.725   3.295  19.179  0.00  0.00    +0.000 A 
ENDBRANCH  15  22
ENDBRANCH   7  15
ENDBRANCH   1   7
BRANCH   4  23
ATOM     23  C   UNL     1       1.534  10.002  18.091  0.00  0.00    +0.000 C 
BRANCH  23  24
ATOM     24  C   UNL     1       0.333  10.229  18.989  0.00  0.00    +0.000 C 
ATOM     25  O   UNL     1      -0.750   9.718  18.706  0.00  0.00    +0.000 OA
ATOM     26  N   UNL     1       0.577  10.977  20.130  0.00  0.00    +0.000 N 
ATOM     27  H   UNL     1       1.350  11.630  20.081  0.00  0.00    +0.000 HD
BRANCH  26  28
ATOM     28  C   UNL     1      -0.418  11.230  21.098  0.00  0.00    +0.000 A 
ATOM     29  C   UNL     1      -1.399  12.216  20.914  0.00  0.00    +0.000 A 
ATOM     30  C   UNL     1      -2.336  12.470  21.917  0.00  0.00    +0.000 A 
ATOM     31  C   UNL     1      -2.276  11.751  23.105  0.00  0.00    +0.000 A 
ATOM     32  F   UNL     1      -3.146  12.021  24.086  0.00  0.00    +0.000 F 
ATOM     33  C   UNL     1      -1.324  10.754  23.288  0.00  0.00    +0.000 A 
ATOM     34  C   UNL     1      -0.408  10.474  22.272  0.00  0.00    +0.000 A 
ENDBRANCH  26  28
ENDBRANCH  23  24
ENDBRANCH   4  23
TORSDOF 7
ENDMDL
MODEL 6
REMARK VINA RESULT:      -8.8      3.001      3.697
REMARK  Name = 
REMARK  8 active torsions:
REMARK  status: ('A' for Active; 'I' for Inactive)
REMARK    1  A    between atoms: C_1  and  C_2
REMARK    2  A    between atoms: C_7  and  C_8
REMARK    3  A    between atoms: C_8  and  N_9
REMARK    4  A    between atoms: N_9  and  C_17
REMARK    5  A    between atoms: C_10  and  C_12
REMARK    6  A    between atoms: C_20  and  C_21
REMARK    7  A    between atoms: C_21  and  C_22
REMARK    8  A    between atoms: N_24  and  C_25
REMARK                            x       y       z     vdW  Elec       q    Type
REMARK                         _______ _______ _______ _____ _____    ______ ____
ROOT
ATOM      1  C   UNL     1       3.554   6.126  18.386  0.00  0.00    +0.000 A 
ATOM      2  C   UNL     1       2.960   6.381  19.621  0.00  0.00    +0.000 A 
ATOM      3  C   UNL     1       2.178   7.526  19.783  0.00  0.00    +0.000 A 
ATOM      4  C   UNL     1       1.956   8.416  18.724  0.00  0.00    +0.000 A 
ATOM      5  C   UNL     1       2.568   8.158  17.489  0.00  0.00    +0.000 A 
ATOM      6  C   UNL     1       3.378   7.027  17.335  0.00  0.00    +0.000 A 
ENDROOT
BRANCH   1   7
ATOM      7  N   UNL     1       4.352   4.978  18.220  0.00  0.00    +0.000 N 
ATOM      8  C   UNL     1       5.755   4.987  18.265  0.00  0.00    +0.000 C 
ATOM      9  O   UNL     1       6.391   3.937  18.080  0.00  0.00    +0.000 OA
BRANCH   8  10
ATOM     10  C   UNL     1       6.531   6.323  18.412  0.00  0.00    +0.000 C 
ATOM     11  C   UNL     1       7.954   6.331  18.977  0.00  0.00    +0.000 C 
ATOM     12  C   UNL     1       8.430   7.762  18.706  0.00  0.00    +0.000 C 
ATOM     13  C   UNL     1       7.759   8.171  17.398  0.00  0.00    +0.000 C 
ATOM     14  C   UNL     1       6.804   7.022  17.062  0.00  0.00    +0.000 C 
ENDBRANCH   8  10
BRANCH   7  15
ATOM     15  C   UNL     1       3.606   3.715  17.917  0.00  0.00    +0.000 C 
BRANCH  15  22
ATOM     16  C   UNL     1       4.652   2.012  20.303  0.00  0.00    +0.000 C 
ATOM     17  C   UNL     1       3.307   2.691  20.276  0.00  0.00    +0.000 A 
ATOM     18  C   UNL     1       2.516   2.615  21.436  0.00  0.00    +0.000 A 
ATOM     19  C   UNL     1       1.148   2.854  21.377  0.00  0.00    +0.000 A 
ATOM     20  C   UNL     1       0.555   3.098  20.144  0.00  0.00    +0.000 A 
ATOM     21  C   UNL     1       1.352   3.295  19.014  0.00  0.00    +0.000 A 
ATOM     22  C   UNL     1       2.752   3.223  19.090  0.00  0.00    +0.000 A 
ENDBRANCH  15  22
ENDBRANCH   7  15
ENDBRANCH   1   7
BRANCH   4  23
ATOM     23  C   UNL     1       1.004   9.574  18.912  0.00  0.00    +0.000 C 
BRANCH  23  24
ATOM     24  C   UNL     1       1.572  10.976  18.803  0.00  0.00    +0.000 C 
ATOM     25  O   UNL     1       2.381  11.244  17.916  0.00  0.00    +0.000 OA
ATOM     26  N   UNL     1       1.071  11.893  19.715  0.00  0.00    +0.000 N 
ATOM     27  H   UNL     1       0.724  11.513  20.589  0.00  0.00    +0.000 HD
BRANCH  26  28
ATOM     28  C   UNL     1       1.451  13.252  19.711  0.00  0.00    +0.000 A 
ATOM     29  C   UNL     1       0.761  14.212  18.956  0.00  0.00    +0.000 A 
ATOM     30  C   UNL     1       1.198  15.538  18.940  0.00  0.00    +0.000 A 
ATOM     31  C   UNL     1       2.331  15.892  19.661  0.00  0.00    +0.000 A 
ATOM     32  F   UNL     1       2.778  17.153  19.613  0.00  0.00    +0.000 F 
ATOM     33  C   UNL     1       3.008  14.954  20.433  0.00  0.00    +0.000 A 
ATOM     34  C   UNL     1       2.552  13.635  20.479  0.00  0.00    +0.000 A 
ENDBRANCH  26  28
ENDBRANCH  23  24
ENDBRANCH   4  23
TORSDOF 7
ENDMDL
MODEL 7
REMARK VINA RESULT:      -8.7      3.620      9.017
REMARK  Name = 
REMARK  8 active torsions:
REMARK  status: ('A' for Active; 'I' for Inactive)
REMARK    1  A    between atoms: C_1  and  C_2
REMARK    2  A    between atoms: C_7  and  C_8
REMARK    3  A    between atoms: C_8  and  N_9
REMARK    4  A    between atoms: N_9  and  C_17
REMARK    5  A    between atoms: C_10  and  C_12
REMARK    6  A    between atoms: C_20  and  C_21
REMARK    7  A    between atoms: C_21  and  C_22
REMARK    8  A    between atoms: N_24  and  C_25
REMARK                            x       y       z     vdW  Elec       q    Type
REMARK                         _______ _______ _______ _____ _____    ______ ____
ROOT
ATOM      1  C   UNL     1       0.304  10.184  19.466  0.00  0.00    +0.000 A 
ATOM      2  C   UNL     1       1.060   9.703  18.397  0.00  0.00    +0.000 A 
ATOM      3  C   UNL     1       1.870   8.581  18.580  0.00  0.00    +0.000 A 
ATOM      4  C   UNL     1       1.924   7.911  19.810  0.00  0.00    +0.000 A 
ATOM      5  C   UNL     1       1.170   8.410  20.881  0.00  0.00    +0.000 A 
ATOM      6  C   UNL     1       0.383   9.553  20.707  0.00  0.00    +0.000 A 
ENDROOT
BRANCH   1   7
ATOM      7  N   UNL     1      -0.507  11.322  19.289  0.00  0.00    +0.000 N 
ATOM      8  C   UNL     1      -0.005  12.616  19.078  0.00  0.00    +0.000 C 
ATOM      9  O   UNL     1      -0.784  13.574  18.961  0.00  0.00    +0.000 OA
BRANCH   8  10
ATOM     10  C   UNL     1       1.523  12.886  19.122  0.00  0.00    +0.000 C 
ATOM     11  C   UNL     1       2.263  13.340  17.862  0.00  0.00    +0.000 C 
ATOM     12  C   UNL     1       3.645  13.738  18.392  0.00  0.00    +0.000 C 
ATOM     13  C   UNL     1       3.395  14.301  19.788  0.00  0.00    +0.000 C 
ATOM     14  C   UNL     1       1.909  14.051  20.061  0.00  0.00    +0.000 C 
ENDBRANCH   8  10
BRANCH   7  15
ATOM     15  C   UNL     1      -1.982  11.085  19.408  0.00  0.00    +0.000 C 
BRANCH  15  22
ATOM     16  C   UNL     1      -4.881  11.949  18.674  0.00  0.00    +0.000 C 
ATOM     17  C   UNL     1      -3.864  11.467  17.672  0.00  0.00    +0.000 A 
ATOM     18  C   UNL     1      -4.228  11.491  16.314  0.00  0.00    +0.000 A 
ATOM     19  C   UNL     1      -3.538  10.722  15.383  0.00  0.00    +0.000 A 
ATOM     20  C   UNL     1      -2.530   9.871  15.820  0.00  0.00    +0.000 A 
ATOM     21  C   UNL     1      -2.087   9.937  17.143  0.00  0.00    +0.000 A 
ATOM     22  C   UNL     1      -2.662  10.832  18.059  0.00  0.00    +0.000 A 
ENDBRANCH  15  22
ENDBRANCH   7  15
ENDBRANCH   1   7
BRANCH   4  23
ATOM     23  C   UNL     1       2.718   6.631  19.924  0.00  0.00    +0.000 C 
BRANCH  23  24
ATOM     24  C   UNL     1       3.063   5.900  18.640  0.00  0.00    +0.000 C 
ATOM     25  O   UNL     1       2.175   5.352  17.988  0.00  0.00    +0.000 OA
ATOM     26  N   UNL     1       4.396   5.959  18.263  0.00  0.00    +0.000 N 
ATOM     27  H   UNL     1       5.068   6.093  19.009  0.00  0.00    +0.000 HD
BRANCH  26  28
ATOM     28  C   UNL     1       4.872   5.382  17.066  0.00  0.00    +0.000 A 
ATOM     29  C   UNL     1       5.106   4.004  16.949  0.00  0.00    +0.000 A 
ATOM     30  C   UNL     1       5.624   3.479  15.763  0.00  0.00    +0.000 A 
ATOM     31  C   UNL     1       5.923   4.334  14.711  0.00  0.00    +0.000 A 
ATOM     32  F   UNL     1       6.459   3.840  13.588  0.00  0.00    +0.000 F 
ATOM     33  C   UNL     1       5.671   5.699  14.807  0.00  0.00    +0.000 A 
ATOM     34  C   UNL     1       5.120   6.222  15.979  0.00  0.00    +0.000 A 
ENDBRANCH  26  28
ENDBRANCH  23  24
ENDBRANCH   4  23
TORSDOF 7
ENDMDL
MODEL 8
REMARK VINA RESULT:      -8.7      3.001      3.720
REMARK  Name = 
REMARK  8 active torsions:
REMARK  status: ('A' for Active; 'I' for Inactive)
REMARK    1  A    between atoms: C_1  and  C_2
REMARK    2  A    between atoms: C_7  and  C_8
REMARK    3  A    between atoms: C_8  and  N_9
REMARK    4  A    between atoms: N_9  and  C_17
REMARK    5  A    between atoms: C_10  and  C_12
REMARK    6  A    between atoms: C_20  and  C_21
REMARK    7  A    between atoms: C_21  and  C_22
REMARK    8  A    between atoms: N_24  and  C_25
REMARK                            x       y       z     vdW  Elec       q    Type
REMARK                         _______ _______ _______ _____ _____    ______ ____
ROOT
ATOM      1  C   UNL     1       3.535   6.219  18.329  0.00  0.00    +0.000 A 
ATOM      2  C   UNL     1       2.962   6.353  19.594  0.00  0.00    +0.000 A 
ATOM      3  C   UNL     1       2.139   7.448  19.862  0.00  0.00    +0.000 A 
ATOM      4  C   UNL     1       1.856   8.407  18.880  0.00  0.00    +0.000 A 
ATOM      5  C   UNL     1       2.447   8.270  17.616  0.00  0.00    +0.000 A 
ATOM      6  C   UNL     1       3.297   7.190  17.357  0.00  0.00    +0.000 A 
ENDROOT
BRANCH   1   7
ATOM      7  N   UNL     1       4.375   5.121  18.057  0.00  0.00    +0.000 N 
ATOM      8  C   UNL     1       5.777   5.187  18.065  0.00  0.00    +0.000 C 
ATOM      9  O   UNL     1       6.449   4.183  17.785  0.00  0.00    +0.000 OA
BRANCH   8  10
ATOM     10  C   UNL     1       6.501   6.542  18.288  0.00  0.00    +0.000 C 
ATOM     11  C   UNL     1       7.914   6.573  18.877  0.00  0.00    +0.000 C 
ATOM     12  C   UNL     1       8.342   8.032  18.683  0.00  0.00    +0.000 C 
ATOM     13  C   UNL     1       7.677   8.479  17.384  0.00  0.00    +0.000 C 
ATOM     14  C   UNL     1       6.770   7.314  16.978  0.00  0.00    +0.000 C 
ENDBRANCH   8  10
BRANCH   7  15
ATOM     15  C   UNL     1       3.672   3.852  17.683  0.00  0.00    +0.000 C 
BRANCH  15  22
ATOM     16  C   UNL     1       4.662   2.168  20.106  0.00  0.00    +0.000 C 
ATOM     17  C   UNL     1       3.290   2.784  20.010  0.00  0.00    +0.000 A 
ATOM     18  C   UNL     1       2.440   2.656  21.123  0.00  0.00    +0.000 A 
ATOM     19  C   UNL     1       1.067   2.832  20.989  0.00  0.00    +0.000 A 
ATOM     20  C   UNL     1       0.533   3.065  19.727  0.00  0.00    +0.000 A 
ATOM     21  C   UNL     1       1.383   3.313  18.646  0.00  0.00    +0.000 A 
ATOM     22  C   UNL     1       2.778   3.305  18.800  0.00  0.00    +0.000 A 
ENDBRANCH  15  22
ENDBRANCH   7  15
ENDBRANCH   1   7
BRANCH   4  23
ATOM     23  C   UNL     1       0.863   9.505  19.179  0.00  0.00    +0.000 C 
BRANCH  23  24
ATOM     24  C   UNL     1       1.409  10.900  19.423  0.00  0.00    +0.000 C 
ATOM     25  O   UNL     1       1.790  11.222  20.547  0.00  0.00    +0.000 OA
ATOM     26  N   UNL     1       1.488  11.711  18.301  0.00  0.00    +0.000 N 
ATOM     27  H   UNL     1       0.838  11.505  17.552  0.00  0.00    +0.000 HD
BRANCH  26  28
ATOM     28  C   UNL     1       2.027  13.014  18.345  0.00  0.00    +0.000 A 
ATOM     29  C   UNL     1       3.383  13.266  18.085  0.00  0.00    +0.000 A 
ATOM     30  C   UNL     1       3.888  14.563  18.186  0.00  0.00    +0.000 A 
ATOM     31  C   UNL     1       3.042  15.597  18.565  0.00  0.00    +0.000 A 
ATOM     32  F   UNL     1       3.532  16.835  18.706  0.00  0.00    +0.000 F 
ATOM     33  C   UNL     1       1.691  15.364  18.801  0.00  0.00    +0.000 A 
ATOM     34  C   UNL     1       1.176  14.073  18.665  0.00  0.00    +0.000 A 
ENDBRANCH  26  28
ENDBRANCH  23  24
ENDBRANCH   4  23
TORSDOF 7
ENDMDL
MODEL 9
REMARK VINA RESULT:      -8.6      3.164      5.554
REMARK  Name = 
REMARK  8 active torsions:
REMARK  status: ('A' for Active; 'I' for Inactive)
REMARK    1  A    between atoms: C_1  and  C_2
REMARK    2  A    between atoms: C_7  and  C_8
REMARK    3  A    between atoms: C_8  and  N_9
REMARK    4  A    between atoms: N_9  and  C_17
REMARK    5  A    between atoms: C_10  and  C_12
REMARK    6  A    between atoms: C_20  and  C_21
REMARK    7  A    between atoms: C_21  and  C_22
REMARK    8  A    between atoms: N_24  and  C_25
REMARK                            x       y       z     vdW  Elec       q    Type
REMARK                         _______ _______ _______ _____ _____    ______ ____
ROOT
ATOM      1  C   UNL     1       3.103   6.889  18.782  0.00  0.00    +0.000 A 
ATOM      2  C   UNL     1       2.481   7.063  20.018  0.00  0.00    +0.000 A 
ATOM      3  C   UNL     1       1.559   8.099  20.182  0.00  0.00    +0.000 A 
ATOM      4  C   UNL     1       1.227   8.956  19.124  0.00  0.00    +0.000 A 
ATOM      5  C   UNL     1       1.868   8.781  17.890  0.00  0.00    +0.000 A 
ATOM      6  C   UNL     1       2.815   7.763  17.734  0.00  0.00    +0.000 A 
ENDROOT
BRANCH   1   7
ATOM      7  N   UNL     1       4.042   5.852  18.614  0.00  0.00    +0.000 N 
ATOM      8  C   UNL     1       3.774   4.502  18.889  0.00  0.00    +0.000 C 
ATOM      9  O   UNL     1       4.663   3.649  18.745  0.00  0.00    +0.000 OA
BRANCH   8  10
ATOM     10  C   UNL     1       2.413   4.077  19.503  0.00  0.00    +0.000 C 
ATOM     11  C   UNL     1       1.523   3.063  18.779  0.00  0.00    +0.000 C 
ATOM     12  C   UNL     1       0.447   2.736  19.820  0.00  0.00    +0.000 C 
ATOM     13  C   UNL     1       1.152   2.819  21.171  0.00  0.00    +0.000 C 
ATOM     14  C   UNL     1       2.555   3.348  20.857  0.00  0.00    +0.000 C 
ENDBRANCH   8  10
BRANCH   7  15
ATOM     15  C   UNL     1       5.407   6.286  18.175  0.00  0.00    +0.000 C 
BRANCH  15  22
ATOM     16  C   UNL     1       7.907   4.489  17.714  0.00  0.00    +0.000 C 
ATOM     17  C   UNL     1       6.799   4.669  16.709  0.00  0.00    +0.000 A 
ATOM     18  C   UNL     1       6.865   3.911  15.526  0.00  0.00    +0.000 A 
ATOM     19  C   UNL     1       6.135   4.286  14.403  0.00  0.00    +0.000 A 
ATOM     20  C   UNL     1       5.395   5.462  14.438  0.00  0.00    +0.000 A 
ATOM     21  C   UNL     1       5.231   6.148  15.644  0.00  0.00    +0.000 A 
ATOM     22  C   UNL     1       5.826   5.687  16.829  0.00  0.00    +0.000 A 
ENDBRANCH  15  22
ENDBRANCH   7  15
ENDBRANCH   1   7
BRANCH   4  23
ATOM     23  C   UNL     1       0.135   9.983  19.315  0.00  0.00    +0.000 C 
BRANCH  23  24
ATOM     24  C   UNL     1       0.556  11.418  19.571  0.00  0.00    +0.000 C 
ATOM     25  O   UNL     1       0.845  11.779  20.711  0.00  0.00    +0.000 OA
ATOM     26  N   UNL     1       0.636  12.223  18.445  0.00  0.00    +0.000 N 
ATOM     27  H   UNL     1       0.048  11.960  17.662  0.00  0.00    +0.000 HD
BRANCH  26  28
ATOM     28  C   UNL     1       1.068  13.565  18.501  0.00  0.00    +0.000 A 
ATOM     29  C   UNL     1       0.192  14.613  18.821  0.00  0.00    +0.000 A 
ATOM     30  C   UNL     1       0.647  15.933  18.818  0.00  0.00    +0.000 A 
ATOM     31  C   UNL     1       1.967  16.200  18.477  0.00  0.00    +0.000 A 
ATOM     32  F   UNL     1       2.395  17.467  18.431  0.00  0.00    +0.000 F 
ATOM     33  C   UNL     1       2.850  15.166  18.183  0.00  0.00    +0.000 A 
ATOM     34  C   UNL     1       2.407  13.843  18.220  0.00  0.00    +0.000 A 
ENDBRANCH  26  28
ENDBRANCH  23  24
ENDBRANCH   4  23
TORSDOF 7
ENDMDL
