MODEL 1
REMARK VINA RESULT:      -7.4      0.000      0.000
REMARK  Name = 
REMARK  8 active torsions:
REMARK  status: ('A' for Active; 'I' for Inactive)
REMARK    1  A    between atoms: C_1  and  C_2
REMARK    2  A    between atoms: C_2  and  C_3
REMARK    3  A    between atoms: C_6  and  O_7
REMARK    4  A    between atoms: O_7  and  C_8
REMARK    5  A    between atoms: C_8  and  C_9
REMARK    6  A    between atoms: C_12  and  S_13
REMARK    7  A    between atoms: N_14  and  C_15
REMARK    8  A    between atoms: C_15  and  C_16
REMARK                            x       y       z     vdW  Elec       q    Type
REMARK                         _______ _______ _______ _____ _____    ______ ____
ROOT
ATOM      1  C   UNL     1       3.143   3.493  17.640  0.00  0.00    +0.000 A 
ATOM      2  N   UNL     1       2.273   2.516  17.426  0.00  0.00    +0.000 NA
ATOM      3  N   UNL     1       1.567   2.282  18.568  0.00  0.00    +0.000 NA
ATOM      4  C   UNL     1       2.008   3.112  19.477  0.00  0.00    +0.000 A 
ATOM      5  N   UNL     1       2.996   3.914  18.953  0.00  0.00    +0.000 N 
ENDROOT
BRANCH   4   6
ATOM      6  S   UNL     1       1.387   3.201  21.085  0.00  0.00    +0.000 S 
ATOM      7  H   UNL     1       2.441   3.833  21.624  0.00  0.00    +0.000 HD
ENDBRANCH   4   6
BRANCH   1   8
ATOM      8  C   UNL     1       4.057   3.936  16.528  0.00  0.00    +0.000 C 
BRANCH   8   9
ATOM      9  O   UNL     1       5.441   3.756  16.811  0.00  0.00    +0.000 OA
BRANCH   9  13
ATOM     10  C   UNL     1       7.662   7.084  18.115  0.00  0.00    +0.000 A 
ATOM     11  C   UNL     1       7.730   5.834  18.741  0.00  0.00    +0.000 A 
ATOM     12  C   UNL     1       6.972   4.756  18.271  0.00  0.00    +0.000 A 
ATOM     13  C   UNL     1       6.110   4.904  17.185  0.00  0.00    +0.000 A 
ATOM     14  C   UNL     1       6.030   6.161  16.559  0.00  0.00    +0.000 A 
ATOM     15  C   UNL     1       6.802   7.239  17.020  0.00  0.00    +0.000 A 
BRANCH  10  17
ATOM     16  C   UNL     1       8.170   9.519  17.899  0.00  0.00    +0.000 C 
ATOM     17  C   UNL     1       8.570   8.205  18.561  0.00  0.00    +0.000 C 
ENDBRANCH  10  17
ENDBRANCH   9  13
ENDBRANCH   8   9
ENDBRANCH   1   8
BRANCH   5  18
ATOM     18  C   UNL     1       3.626   5.021  19.653  0.00  0.00    +0.000 C 
BRANCH  18  19
ATOM     19  C   UNL     1       2.943   6.348  19.404  0.00  0.00    +0.000 A 
ATOM     20  C   UNL     1       3.051   6.974  18.154  0.00  0.00    +0.000 A 
ATOM     21  C   UNL     1       2.372   8.162  17.886  0.00  0.00    +0.000 A 
ATOM     22  C   UNL     1       1.577   8.749  18.866  0.00  0.00    +0.000 A 
ATOM     23  C   UNL     1       1.473   8.155  20.121  0.00  0.00    +0.000 A 
ATOM     24  C   UNL     1       2.151   6.961  20.390  0.00  0.00    +0.000 A 
ENDBRANCH  18  19
ENDBRANCH   5  18
TORSDOF 7
ENDMDL
MODEL 2
REMARK VINA RESULT:      -7.1      0.633      1.253
REMARK  Name = 
REMARK  8 active torsions:
REMARK  status: ('A' for Active; 'I' for Inactive)
REMARK    1  A    between atoms: C_1  and  C_2
REMARK    2  A    between atoms: C_2  and  C_3
REMARK    3  A    between atoms: C_6  and  O_7
REMARK    4  A    between atoms: O_7  and  C_8
REMARK    5  A    between atoms: C_8  and  C_9
REMARK    6  A    between atoms: C_12  and  S_13
REMARK    7  A    between atoms: N_14  and  C_15
REMARK    8  A    between atoms: C_15  and  C_16
REMARK                            x       y       z     vdW  Elec       q    Type
REMARK                         _______ _______ _______ _____ _____    ______ ____
ROOT
ATOM      1  C   UNL     1       3.693   3.510  17.858  0.00  0.00    +0.000 A 
ATOM      2  N   UNL     1       2.914   2.497  17.506  0.00  0.00    +0.000 NA
ATOM      3  N   UNL     1       1.924   2.347  18.431  0.00  0.00    +0.000 NA
ATOM      4  C   UNL     1       2.100   3.265  19.344  0.00  0.00    +0.000 A 
ATOM      5  N   UNL     1       3.193   4.043  19.037  0.00  0.00    +0.000 N 
ENDROOT
BRANCH   4   6
ATOM      6  S   UNL     1       1.064   3.481  20.708  0.00  0.00    +0.000 S 
ATOM      7  H   UNL     1       1.577   4.653  21.110  0.00  0.00    +0.000 HD
ENDBRANCH   4   6
BRANCH   1   8
ATOM      8  C   UNL     1       4.875   3.876  17.000  0.00  0.00    +0.000 C 
BRANCH   8   9
ATOM      9  O   UNL     1       6.076   4.098  17.734  0.00  0.00    +0.000 OA
BRANCH   9  13
ATOM     10  C   UNL     1       7.718   7.972  17.819  0.00  0.00    +0.000 A 
ATOM     11  C   UNL     1       8.151   6.945  18.667  0.00  0.00    +0.000 A 
ATOM     12  C   UNL     1       7.574   5.672  18.603  0.00  0.00    +0.000 A 
ATOM     13  C   UNL     1       6.537   5.399  17.711  0.00  0.00    +0.000 A 
ATOM     14  C   UNL     1       6.091   6.430  16.864  0.00  0.00    +0.000 A 
ATOM     15  C   UNL     1       6.680   7.703  16.917  0.00  0.00    +0.000 A 
BRANCH  10  17
ATOM     16  C   UNL     1       8.982   9.618  19.206  0.00  0.00    +0.000 C 
ATOM     17  C   UNL     1       8.427   9.305  17.821  0.00  0.00    +0.000 C 
ENDBRANCH  10  17
ENDBRANCH   9  13
ENDBRANCH   8   9
ENDBRANCH   1   8
BRANCH   5  18
ATOM     18  C   UNL     1       3.607   5.223  19.776  0.00  0.00    +0.000 C 
BRANCH  18  19
ATOM     19  C   UNL     1       2.896   6.483  19.333  0.00  0.00    +0.000 A 
ATOM     20  C   UNL     1       2.083   7.187  20.231  0.00  0.00    +0.000 A 
ATOM     21  C   UNL     1       1.476   8.387  19.860  0.00  0.00    +0.000 A 
ATOM     22  C   UNL     1       1.667   8.901  18.581  0.00  0.00    +0.000 A 
ATOM     23  C   UNL     1       2.455   8.206  17.666  0.00  0.00    +0.000 A 
ATOM     24  C   UNL     1       3.067   7.004  18.038  0.00  0.00    +0.000 A 
ENDBRANCH  18  19
ENDBRANCH   5  18
TORSDOF 7
ENDMDL
MODEL 3
REMARK VINA RESULT:      -7.1      2.901      6.131
REMARK  Name = 
REMARK  8 active torsions:
REMARK  status: ('A' for Active; 'I' for Inactive)
REMARK    1  A    between atoms: C_1  and  C_2
REMARK    2  A    between atoms: C_2  and  C_3
REMARK    3  A    between atoms: C_6  and  O_7
REMARK    4  A    between atoms: O_7  and  C_8
REMARK    5  A    between atoms: C_8  and  C_9
REMARK    6  A    between atoms: C_12  and  S_13
REMARK    7  A    between atoms: N_14  and  C_15
REMARK    8  A    between atoms: C_15  and  C_16
REMARK                            x       y       z     vdW  Elec       q    Type
REMARK                         _______ _______ _______ _____ _____    ______ ____
ROOT
ATOM      1  C   UNL     1       4.027   6.632  17.485  0.00  0.00    +0.000 A 
ATOM      2  N   UNL     1       4.682   7.067  16.416  0.00  0.00    +0.000 NA
ATOM      3  N   UNL     1       5.919   6.496  16.382  0.00  0.00    +0.000 NA
ATOM      4  C   UNL     1       6.019   5.718  17.428  0.00  0.00    +0.000 A 
ATOM      5  N   UNL     1       4.855   5.748  18.161  0.00  0.00    +0.000 N 
ENDROOT
BRANCH   4   6
ATOM      6  S   UNL     1       7.410   4.761  17.789  0.00  0.00    +0.000 S 
ATOM      7  H   UNL     1       8.185   5.235  16.801  0.00  0.00    +0.000 HD
ENDBRANCH   4   6
BRANCH   1   8
ATOM      8  C   UNL     1       2.631   7.127  17.757  0.00  0.00    +0.000 C 
BRANCH   8   9
ATOM      9  O   UNL     1       2.562   8.509  18.095  0.00  0.00    +0.000 OA
BRANCH   9  13
ATOM     10  C   UNL     1       0.242   9.204  21.536  0.00  0.00    +0.000 A 
ATOM     11  C   UNL     1       1.058   8.076  21.386  0.00  0.00    +0.000 A 
ATOM     12  C   UNL     1       1.812   7.887  20.222  0.00  0.00    +0.000 A 
ATOM     13  C   UNL     1       1.751   8.803  19.172  0.00  0.00    +0.000 A 
ATOM     14  C   UNL     1       0.925   9.932  19.313  0.00  0.00    +0.000 A 
ATOM     15  C   UNL     1       0.180  10.130  20.487  0.00  0.00    +0.000 A 
BRANCH  10  17
ATOM     16  C   UNL     1      -1.001  10.880  22.905  0.00  0.00    +0.000 C 
ATOM     17  C   UNL     1      -0.475   9.451  22.841  0.00  0.00    +0.000 C 
ENDBRANCH  10  17
ENDBRANCH   9  13
ENDBRANCH   8   9
ENDBRANCH   1   8
BRANCH   5  18
ATOM     18  C   UNL     1       4.581   4.917  19.320  0.00  0.00    +0.000 C 
BRANCH  18  19
ATOM     19  C   UNL     1       3.306   4.113  19.189  0.00  0.00    +0.000 A 
ATOM     20  C   UNL     1       3.183   3.144  18.184  0.00  0.00    +0.000 A 
ATOM     21  C   UNL     1       2.042   2.347  18.092  0.00  0.00    +0.000 A 
ATOM     22  C   UNL     1       1.000   2.510  19.001  0.00  0.00    +0.000 A 
ATOM     23  C   UNL     1       1.093   3.481  19.994  0.00  0.00    +0.000 A 
ATOM     24  C   UNL     1       2.239   4.280  20.090  0.00  0.00    +0.000 A 
ENDBRANCH  18  19
ENDBRANCH   5  18
TORSDOF 7
ENDMDL
MODEL 4
REMARK VINA RESULT:      -7.1      2.874      5.230
REMARK  Name = 
REMARK  8 active torsions:
REMARK  status: ('A' for Active; 'I' for Inactive)
REMARK    1  A    between atoms: C_1  and  C_2
REMARK    2  A    between atoms: C_2  and  C_3
REMARK    3  A    between atoms: C_6  and  O_7
REMARK    4  A    between atoms: O_7  and  C_8
REMARK    5  A    between atoms: C_8  and  C_9
REMARK    6  A    between atoms: C_12  and  S_13
REMARK    7  A    between atoms: N_14  and  C_15
REMARK    8  A    between atoms: C_15  and  C_16
REMARK                            x       y       z     vdW  Elec       q    Type
REMARK                         _______ _______ _______ _____ _____    ______ ____
ROOT
ATOM      1  C   UNL     1       6.104   4.492  16.308  0.00  0.00    +0.000 A 
ATOM      2  N   UNL     1       6.937   4.836  15.335  0.00  0.00    +0.000 NA
ATOM      3  N   UNL     1       7.611   5.964  15.695  0.00  0.00    +0.000 NA
ATOM      4  C   UNL     1       7.189   6.309  16.883  0.00  0.00    +0.000 A 
ATOM      5  N   UNL     1       6.245   5.415  17.335  0.00  0.00    +0.000 N 
ENDROOT
BRANCH   4   6
ATOM      6  S   UNL     1       7.784   7.671  17.761  0.00  0.00    +0.000 S 
ATOM      7  H   UNL     1       7.264   8.612  16.958  0.00  0.00    +0.000 HD
ENDBRANCH   4   6
BRANCH   1   8
ATOM      8  C   UNL     1       5.230   3.276  16.149  0.00  0.00    +0.000 C 
BRANCH   8   9
ATOM      9  O   UNL     1       3.846   3.575  15.998  0.00  0.00    +0.000 OA
BRANCH   9  13
ATOM     10  C   UNL     1       1.764   2.856  19.584  0.00  0.00    +0.000 A 
ATOM     11  C   UNL     1       3.027   2.314  19.318  0.00  0.00    +0.000 A 
ATOM     12  C   UNL     1       3.681   2.581  18.110  0.00  0.00    +0.000 A 
ATOM     13  C   UNL     1       3.082   3.372  17.130  0.00  0.00    +0.000 A 
ATOM     14  C   UNL     1       1.809   3.911  17.388  0.00  0.00    +0.000 A 
ATOM     15  C   UNL     1       1.159   3.657  18.606  0.00  0.00    +0.000 A 
BRANCH  10  17
ATOM     16  C   UNL     1       2.064   3.093  22.051  0.00  0.00    +0.000 C 
ATOM     17  C   UNL     1       1.123   2.653  20.936  0.00  0.00    +0.000 C 
ENDBRANCH  10  17
ENDBRANCH   9  13
ENDBRANCH   8   9
ENDBRANCH   1   8
BRANCH   5  18
ATOM     18  C   UNL     1       5.650   5.432  18.660  0.00  0.00    +0.000 C 
BRANCH  18  19
ATOM     19  C   UNL     1       4.368   6.234  18.726  0.00  0.00    +0.000 A 
ATOM     20  C   UNL     1       4.017   7.090  17.674  0.00  0.00    +0.000 A 
ATOM     21  C   UNL     1       2.806   7.784  17.687  0.00  0.00    +0.000 A 
ATOM     22  C   UNL     1       1.929   7.637  18.757  0.00  0.00    +0.000 A 
ATOM     23  C   UNL     1       2.268   6.807  19.823  0.00  0.00    +0.000 A 
ATOM     24  C   UNL     1       3.481   6.108  19.809  0.00  0.00    +0.000 A 
ENDBRANCH  18  19
ENDBRANCH   5  18
TORSDOF 7
ENDMDL
MODEL 5
REMARK VINA RESULT:      -7.0      2.942      5.318
REMARK  Name = 
REMARK  8 active torsions:
REMARK  status: ('A' for Active; 'I' for Inactive)
REMARK    1  A    between atoms: C_1  and  C_2
REMARK    2  A    between atoms: C_2  and  C_3
REMARK    3  A    between atoms: C_6  and  O_7
REMARK    4  A    between atoms: O_7  and  C_8
REMARK    5  A    between atoms: C_8  and  C_9
REMARK    6  A    between atoms: C_12  and  S_13
REMARK    7  A    between atoms: N_14  and  C_15
REMARK    8  A    between atoms: C_15  and  C_16
REMARK                            x       y       z     vdW  Elec       q    Type
REMARK                         _______ _______ _______ _____ _____    ______ ____
ROOT
ATOM      1  C   UNL     1       6.032   4.830  16.402  0.00  0.00    +0.000 A 
ATOM      2  N   UNL     1       7.201   4.409  16.866  0.00  0.00    +0.000 NA
ATOM      3  N   UNL     1       7.899   5.471  17.361  0.00  0.00    +0.000 NA
ATOM      4  C   UNL     1       7.158   6.535  17.198  0.00  0.00    +0.000 A 
ATOM      5  N   UNL     1       5.960   6.200  16.609  0.00  0.00    +0.000 N 
ENDROOT
BRANCH   4   6
ATOM      6  S   UNL     1       7.621   8.120  17.703  0.00  0.00    +0.000 S 
ATOM      7  H   UNL     1       6.678   8.783  17.017  0.00  0.00    +0.000 HD
ENDBRANCH   4   6
BRANCH   1   8
ATOM      8  C   UNL     1       5.074   3.844  15.789  0.00  0.00    +0.000 C 
BRANCH   8   9
ATOM      9  O   UNL     1       4.842   2.688  16.589  0.00  0.00    +0.000 OA
BRANCH   9  13
ATOM     10  C   UNL     1       1.844   3.014  19.523  0.00  0.00    +0.000 A 
ATOM     11  C   UNL     1       3.142   2.574  19.810  0.00  0.00    +0.000 A 
ATOM     12  C   UNL     1       4.106   2.481  18.800  0.00  0.00    +0.000 A 
ATOM     13  C   UNL     1       3.793   2.800  17.479  0.00  0.00    +0.000 A 
ATOM     14  C   UNL     1       2.488   3.233  17.184  0.00  0.00    +0.000 A 
ATOM     15  C   UNL     1       1.525   3.341  18.199  0.00  0.00    +0.000 A 
BRANCH  10  17
ATOM     16  C   UNL     1       1.393   2.667  21.954  0.00  0.00    +0.000 C 
ATOM     17  C   UNL     1       0.849   3.218  20.641  0.00  0.00    +0.000 C 
ENDBRANCH  10  17
ENDBRANCH   9  13
ENDBRANCH   8   9
ENDBRANCH   1   8
BRANCH   5  18
ATOM     18  C   UNL     1       4.857   7.119  16.386  0.00  0.00    +0.000 C 
BRANCH  18  19
ATOM     19  C   UNL     1       3.872   7.156  17.533  0.00  0.00    +0.000 A 
ATOM     20  C   UNL     1       3.957   6.214  18.567  0.00  0.00    +0.000 A 
ATOM     21  C   UNL     1       3.101   6.277  19.667  0.00  0.00    +0.000 A 
ATOM     22  C   UNL     1       2.139   7.279  19.747  0.00  0.00    +0.000 A 
ATOM     23  C   UNL     1       2.023   8.212  18.720  0.00  0.00    +0.000 A 
ATOM     24  C   UNL     1       2.884   8.152  17.618  0.00  0.00    +0.000 A 
ENDBRANCH  18  19
ENDBRANCH   5  18
TORSDOF 7
ENDMDL
MODEL 6
REMARK VINA RESULT:      -7.0      3.230      5.448
REMARK  Name = 
REMARK  8 active torsions:
REMARK  status: ('A' for Active; 'I' for Inactive)
REMARK    1  A    between atoms: C_1  and  C_2
REMARK    2  A    between atoms: C_2  and  C_3
REMARK    3  A    between atoms: C_6  and  O_7
REMARK    4  A    between atoms: O_7  and  C_8
REMARK    5  A    between atoms: C_8  and  C_9
REMARK    6  A    between atoms: C_12  and  S_13
REMARK    7  A    between atoms: N_14  and  C_15
REMARK    8  A    between atoms: C_15  and  C_16
REMARK                            x       y       z     vdW  Elec       q    Type
REMARK                         _______ _______ _______ _____ _____    ______ ____
ROOT
ATOM      1  C   UNL     1       5.732   6.033  17.116  0.00  0.00    +0.000 A 
ATOM      2  N   UNL     1       5.402   7.101  16.403  0.00  0.00    +0.000 NA
ATOM      3  N   UNL     1       4.248   7.634  16.896  0.00  0.00    +0.000 NA
ATOM      4  C   UNL     1       3.875   6.891  17.905  0.00  0.00    +0.000 A 
ATOM      5  N   UNL     1       4.774   5.869  18.106  0.00  0.00    +0.000 N 
ENDROOT
BRANCH   4   6
ATOM      6  S   UNL     1       2.472   7.200  18.863  0.00  0.00    +0.000 S 
ATOM      7  H   UNL     1       2.716   6.269  19.798  0.00  0.00    +0.000 HD
ENDBRANCH   4   6
BRANCH   1   8
ATOM      8  C   UNL     1       6.971   5.253  16.762  0.00  0.00    +0.000 C 
BRANCH   8   9
ATOM      9  O   UNL     1       7.538   5.608  15.505  0.00  0.00    +0.000 OA
BRANCH   9  13
ATOM     10  C   UNL     1       5.843   3.348  12.385  0.00  0.00    +0.000 A 
ATOM     11  C   UNL     1       5.355   3.317  13.697  0.00  0.00    +0.000 A 
ATOM     12  C   UNL     1       5.952   4.086  14.702  0.00  0.00    +0.000 A 
ATOM     13  C   UNL     1       7.064   4.883  14.430  0.00  0.00    +0.000 A 
ATOM     14  C   UNL     1       7.564   4.911  13.116  0.00  0.00    +0.000 A 
ATOM     15  C   UNL     1       6.956   4.151  12.104  0.00  0.00    +0.000 A 
BRANCH  10  17
ATOM     16  C   UNL     1       3.798   3.285  10.956  0.00  0.00    +0.000 C 
ATOM     17  C   UNL     1       5.119   2.603  11.290  0.00  0.00    +0.000 C 
ENDBRANCH  10  17
ENDBRANCH   9  13
ENDBRANCH   8   9
ENDBRANCH   1   8
BRANCH   5  18
ATOM     18  C   UNL     1       4.727   4.926  19.209  0.00  0.00    +0.000 C 
BRANCH  18  19
ATOM     19  C   UNL     1       3.646   3.879  19.052  0.00  0.00    +0.000 A 
ATOM     20  C   UNL     1       2.720   3.661  20.081  0.00  0.00    +0.000 A 
ATOM     21  C   UNL     1       1.675   2.750  19.925  0.00  0.00    +0.000 A 
ATOM     22  C   UNL     1       1.542   2.036  18.738  0.00  0.00    +0.000 A 
ATOM     23  C   UNL     1       2.464   2.222  17.711  0.00  0.00    +0.000 A 
ATOM     24  C   UNL     1       3.510   3.138  17.865  0.00  0.00    +0.000 A 
ENDBRANCH  18  19
ENDBRANCH   5  18
TORSDOF 7
ENDMDL
MODEL 7
REMARK VINA RESULT:      -6.9      2.910      6.135
REMARK  Name = 
REMARK  8 active torsions:
REMARK  status: ('A' for Active; 'I' for Inactive)
REMARK    1  A    between atoms: C_1  and  C_2
REMARK    2  A    between atoms: C_2  and  C_3
REMARK    3  A    between atoms: C_6  and  O_7
REMARK    4  A    between atoms: O_7  and  C_8
REMARK    5  A    between atoms: C_8  and  C_9
REMARK    6  A    between atoms: C_12  and  S_13
REMARK    7  A    between atoms: N_14  and  C_15
REMARK    8  A    between atoms: C_15  and  C_16
REMARK                            x       y       z     vdW  Elec       q    Type
REMARK                         _______ _______ _______ _____ _____    ______ ____
ROOT
ATOM      1  C   UNL     1       4.060   6.516  17.535  0.00  0.00    +0.000 A 
ATOM      2  N   UNL     1       4.666   6.977  16.449  0.00  0.00    +0.000 NA
ATOM      3  N   UNL     1       5.913   6.435  16.364  0.00  0.00    +0.000 NA
ATOM      4  C   UNL     1       6.068   5.647  17.395  0.00  0.00    +0.000 A 
ATOM      5  N   UNL     1       4.931   5.641  18.169  0.00  0.00    +0.000 N 
ENDROOT
BRANCH   4   6
ATOM      6  S   UNL     1       7.492   4.717  17.693  0.00  0.00    +0.000 S 
ATOM      7  H   UNL     1       7.593   4.189  16.463  0.00  0.00    +0.000 HD
ENDBRANCH   4   6
BRANCH   1   8
ATOM      8  C   UNL     1       2.664   6.975  17.864  0.00  0.00    +0.000 C 
BRANCH   8   9
ATOM      9  O   UNL     1       2.456   8.372  17.676  0.00  0.00    +0.000 OA
BRANCH   9  13
ATOM     10  C   UNL     1       0.330  10.061  20.890  0.00  0.00    +0.000 A 
ATOM     11  C   UNL     1       0.989   8.829  20.980  0.00  0.00    +0.000 A 
ATOM     12  C   UNL     1       1.683   8.307  19.883  0.00  0.00    +0.000 A 
ATOM     13  C   UNL     1       1.716   8.986  18.666  0.00  0.00    +0.000 A 
ATOM     14  C   UNL     1       1.048  10.219  18.568  0.00  0.00    +0.000 A 
ATOM     15  C   UNL     1       0.364  10.751  19.672  0.00  0.00    +0.000 A 
BRANCH  10  17
ATOM     16  C   UNL     1      -0.320   9.669  23.269  0.00  0.00    +0.000 C 
ATOM     17  C   UNL     1      -0.317  10.664  22.114  0.00  0.00    +0.000 C 
ENDBRANCH  10  17
ENDBRANCH   9  13
ENDBRANCH   8   9
ENDBRANCH   1   8
BRANCH   5  18
ATOM     18  C   UNL     1       4.717   4.791  19.327  0.00  0.00    +0.000 C 
BRANCH  18  19
ATOM     19  C   UNL     1       3.428   4.002  19.256  0.00  0.00    +0.000 A 
ATOM     20  C   UNL     1       2.413   4.223  20.197  0.00  0.00    +0.000 A 
ATOM     21  C   UNL     1       1.192   3.555  20.105  0.00  0.00    +0.000 A 
ATOM     22  C   UNL     1       0.968   2.647  19.074  0.00  0.00    +0.000 A 
ATOM     23  C   UNL     1       1.971   2.396  18.141  0.00  0.00    +0.000 A 
ATOM     24  C   UNL     1       3.195   3.069  18.230  0.00  0.00    +0.000 A 
ENDBRANCH  18  19
ENDBRANCH   5  18
TORSDOF 7
ENDMDL
MODEL 8
REMARK VINA RESULT:      -6.9      2.941      5.318
REMARK  Name = 
REMARK  8 active torsions:
REMARK  status: ('A' for Active; 'I' for Inactive)
REMARK    1  A    between atoms: C_1  and  C_2
REMARK    2  A    between atoms: C_2  and  C_3
REMARK    3  A    between atoms: C_6  and  O_7
REMARK    4  A    between atoms: O_7  and  C_8
REMARK    5  A    between atoms: C_8  and  C_9
REMARK    6  A    between atoms: C_12  and  S_13
REMARK    7  A    between atoms: N_14  and  C_15
REMARK    8  A    between atoms: C_15  and  C_16
REMARK                            x       y       z     vdW  Elec       q    Type
REMARK                         _______ _______ _______ _____ _____    ______ ____
ROOT
ATOM      1  C   UNL     1       5.966   4.881  16.350  0.00  0.00    +0.000 A 
ATOM      2  N   UNL     1       7.160   4.452  16.736  0.00  0.00    +0.000 NA
ATOM      3  N   UNL     1       7.878   5.501  17.229  0.00  0.00    +0.000 NA
ATOM      4  C   UNL     1       7.124   6.566  17.142  0.00  0.00    +0.000 A 
ATOM      5  N   UNL     1       5.898   6.242  16.607  0.00  0.00    +0.000 N 
ENDROOT
BRANCH   4   6
ATOM      6  S   UNL     1       7.606   8.135  17.675  0.00  0.00    +0.000 S 
ATOM      7  H   UNL     1       6.883   8.144  18.806  0.00  0.00    +0.000 HD
ENDBRANCH   4   6
BRANCH   1   8
ATOM      8  C   UNL     1       4.981   3.909  15.755  0.00  0.00    +0.000 C 
BRANCH   8   9
ATOM      9  O   UNL     1       4.775   2.740  16.542  0.00  0.00    +0.000 OA
BRANCH   9  13
ATOM     10  C   UNL     1       1.744   2.917  19.455  0.00  0.00    +0.000 A 
ATOM     11  C   UNL     1       3.009   2.372  19.708  0.00  0.00    +0.000 A 
ATOM     12  C   UNL     1       3.985   2.335  18.707  0.00  0.00    +0.000 A 
ATOM     13  C   UNL     1       3.717   2.815  17.425  0.00  0.00    +0.000 A 
ATOM     14  C   UNL     1       2.445   3.353  17.163  0.00  0.00    +0.000 A 
ATOM     15  C   UNL     1       1.470   3.406  18.171  0.00  0.00    +0.000 A 
BRANCH  10  17
ATOM     16  C   UNL     1       1.420   2.888  21.930  0.00  0.00    +0.000 C 
ATOM     17  C   UNL     1       0.741   3.054  20.576  0.00  0.00    +0.000 C 
ENDBRANCH  10  17
ENDBRANCH   9  13
ENDBRANCH   8   9
ENDBRANCH   1   8
BRANCH   5  18
ATOM     18  C   UNL     1       4.781   7.161  16.474  0.00  0.00    +0.000 C 
BRANCH  18  19
ATOM     19  C   UNL     1       3.869   7.167  17.681  0.00  0.00    +0.000 A 
ATOM     20  C   UNL     1       2.868   8.141  17.804  0.00  0.00    +0.000 A 
ATOM     21  C   UNL     1       1.975   8.120  18.875  0.00  0.00    +0.000 A 
ATOM     22  C   UNL     1       2.071   7.127  19.846  0.00  0.00    +0.000 A 
ATOM     23  C   UNL     1       3.072   6.163  19.754  0.00  0.00    +0.000 A 
ATOM     24  C   UNL     1       3.966   6.181  18.678  0.00  0.00    +0.000 A 
ENDBRANCH  18  19
ENDBRANCH   5  18
TORSDOF 7
ENDMDL
MODEL 9
REMARK VINA RESULT:      -6.9      2.886      6.165
REMARK  Name = 
REMARK  8 active torsions:
REMARK  status: ('A' for Active; 'I' for Inactive)
REMARK    1  A    between atoms: C_1  and  C_2
REMARK    2  A    between atoms: C_2  and  C_3
REMARK    3  A    between atoms: C_6  and  O_7
REMARK    4  A    between atoms: O_7  and  C_8
REMARK    5  A    between atoms: C_8  and  C_9
REMARK    6  A    between atoms: C_12  and  S_13
REMARK    7  A    between atoms: N_14  and  C_15
REMARK    8  A    between atoms: C_15  and  C_16
REMARK                            x       y       z     vdW  Elec       q    Type
REMARK                         _______ _______ _______ _____ _____    ______ ____
ROOT
ATOM      1  C   UNL     1       4.019   6.667  17.383  0.00  0.00    +0.000 A 
ATOM      2  N   UNL     1       4.733   7.049  16.333  0.00  0.00    +0.000 NA
ATOM      3  N   UNL     1       5.978   6.499  16.409  0.00  0.00    +0.000 NA
ATOM      4  C   UNL     1       6.023   5.786  17.503  0.00  0.00    +0.000 A 
ATOM      5  N   UNL     1       4.815   5.838  18.160  0.00  0.00    +0.000 N 
ENDROOT
BRANCH   4   6
ATOM      6  S   UNL     1       7.402   4.877  18.006  0.00  0.00    +0.000 S 
ATOM      7  H   UNL     1       8.166   5.150  16.937  0.00  0.00    +0.000 HD
ENDBRANCH   4   6
BRANCH   1   8
ATOM      8  C   UNL     1       2.602   7.151  17.539  0.00  0.00    +0.000 C 
BRANCH   8   9
ATOM      9  O   UNL     1       2.498   8.501  17.982  0.00  0.00    +0.000 OA
BRANCH   9  13
ATOM     10  C   UNL     1       0.380   9.222  21.546  0.00  0.00    +0.000 A 
ATOM     11  C   UNL     1       0.400  10.127  20.478  0.00  0.00    +0.000 A 
ATOM     12  C   UNL     1       1.119   9.844  19.312  0.00  0.00    +0.000 A 
ATOM     13  C   UNL     1       1.855   8.666  19.192  0.00  0.00    +0.000 A 
ATOM     14  C   UNL     1       1.846   7.757  20.265  0.00  0.00    +0.000 A 
ATOM     15  C   UNL     1       1.112   8.033  21.429  0.00  0.00    +0.000 A 
BRANCH  10  17
ATOM     16  C   UNL     1      -0.905  10.955  22.801  0.00  0.00    +0.000 C 
ATOM     17  C   UNL     1      -0.492   9.488  22.749  0.00  0.00    +0.000 C 
ENDBRANCH  10  17
ENDBRANCH   9  13
ENDBRANCH   8   9
ENDBRANCH   1   8
BRANCH   5  18
ATOM     18  C   UNL     1       4.481   5.072  19.348  0.00  0.00    +0.000 C 
BRANCH  18  19
ATOM     19  C   UNL     1       3.286   4.165  19.155  0.00  0.00    +0.000 A 
ATOM     20  C   UNL     1       3.269   3.233  18.108  0.00  0.00    +0.000 A 
ATOM     21  C   UNL     1       2.206   2.342  17.957  0.00  0.00    +0.000 A 
ATOM     22  C   UNL     1       1.137   2.373  18.848  0.00  0.00    +0.000 A 
ATOM     23  C   UNL     1       1.123   3.305  19.883  0.00  0.00    +0.000 A 
ATOM     24  C   UNL     1       2.191   4.197  20.037  0.00  0.00    +0.000 A 
ENDBRANCH  18  19
ENDBRANCH   5  18
TORSDOF 7
ENDMDL
