MODEL 1
REMARK VINA RESULT:      -8.5      0.000      0.000
REMARK  Name = 
REMARK  7 active torsions:
REMARK  status: ('A' for Active; 'I' for Inactive)
REMARK    1  A    between atoms: C_1  and  C_2
REMARK    2  A    between atoms: C_7  and  C_8
REMARK    3  A    between atoms: N_10  and  C_11
REMARK    4  A    between atoms: C_16  and  C_17
REMARK    5  A    between atoms: N_19  and  C_20
REMARK    6  A    between atoms: C_23  and  C_24
REMARK    7  A    between atoms: C_24  and  O_26
REMARK                            x       y       z     vdW  Elec       q    Type
REMARK                         _______ _______ _______ _____ _____    ______ ____
ROOT
ATOM      1  C   UNL     1       3.522   3.651  19.453  0.00  0.00    +0.000 A 
ATOM      2  C   UNL     1       3.769   2.431  20.098  0.00  0.00    +0.000 A 
ATOM      3  C   UNL     1       3.128   2.088  21.292  0.00  0.00    +0.000 A 
ATOM      4  C   UNL     1       2.252   2.983  21.894  0.00  0.00    +0.000 A 
ATOM      5  C   UNL     1       1.998   4.209  21.286  0.00  0.00    +0.000 A 
ATOM      6  C   UNL     1       2.594   4.537  20.051  0.00  0.00    +0.000 A 
ENDROOT
BRANCH   1   9
ATOM      7  C   UNL     1       5.491   4.423  18.109  0.00  0.00    +0.000 C 
ATOM      8  O   UNL     1       6.297   4.512  19.035  0.00  0.00    +0.000 OA
ATOM      9  N   UNL     1       4.180   3.995  18.231  0.00  0.00    +0.000 N 
ATOM     10  H   UNL     1       3.646   3.811  17.380  0.00  0.00    +0.000 HD
BRANCH   7  17
ATOM     11  C   UNL     1       7.466   6.725  17.382  0.00  0.00    +0.000 C 
ATOM     12  C   UNL     1       6.938   5.715  16.404  0.00  0.00    +0.000 A 
ATOM     13  C   UNL     1       7.435   5.753  15.082  0.00  0.00    +0.000 A 
ATOM     14  C   UNL     1       7.062   4.798  14.134  0.00  0.00    +0.000 A 
ATOM     15  C   UNL     1       6.174   3.789  14.479  0.00  0.00    +0.000 A 
ATOM     16  C   UNL     1       5.661   3.744  15.772  0.00  0.00    +0.000 A 
ATOM     17  C   UNL     1       6.027   4.699  16.746  0.00  0.00    +0.000 A 
ENDBRANCH   7  17
ENDBRANCH   1   9
BRANCH   6  18
ATOM     18  C   UNL     1       2.207   5.802  19.355  0.00  0.00    +0.000 C 
ATOM     19  O   UNL     1       1.937   5.742  18.159  0.00  0.00    +0.000 OA
ATOM     20  N   UNL     1       2.162   6.944  20.144  0.00  0.00    +0.000 N 
ATOM     21  H   UNL     1       2.468   6.877  21.105  0.00  0.00    +0.000 HD
BRANCH  20  22
ATOM     22  C   UNL     1       1.743   8.227  19.728  0.00  0.00    +0.000 A 
ATOM     23  C   UNL     1       2.031   8.750  18.466  0.00  0.00    +0.000 A 
ATOM     24  C   UNL     1       1.629  10.042  18.114  0.00  0.00    +0.000 A 
ATOM     25  C   UNL     1       0.947  10.835  19.041  0.00  0.00    +0.000 A 
ATOM     26  C   UNL     1       0.601  10.298  20.284  0.00  0.00    +0.000 A 
ATOM     27  C   UNL     1       0.987   8.995  20.622  0.00  0.00    +0.000 A 
BRANCH  25  28
ATOM     28  C   UNL     1       0.551  12.229  18.732  0.00  0.00    +0.000 C 
ATOM     29  O   UNL     1       1.072  13.199  19.258  0.00  0.00    +0.000 OA
BRANCH  28  30
ATOM     30  O   UNL     1      -0.402  12.331  17.779  0.00  0.00    +0.000 OA
ATOM     31  H   UNL     1      -0.069  12.482  16.875  0.00  0.00    +0.000 HD
ENDBRANCH  28  30
ENDBRANCH  25  28
ENDBRANCH  20  22
ENDBRANCH   6  18
TORSDOF 6
ENDMDL
MODEL 2
REMARK VINA RESULT:      -8.3      1.766      5.173
REMARK  Name = 
REMARK  7 active torsions:
REMARK  status: ('A' for Active; 'I' for Inactive)
REMARK    1  A    between atoms: C_1  and  C_2
REMARK    2  A    between atoms: C_7  and  C_8
REMARK    3  A    between atoms: N_10  and  C_11
REMARK    4  A    between atoms: C_16  and  C_17
REMARK    5  A    between atoms: N_19  and  C_20
REMARK    6  A    between atoms: C_23  and  C_24
REMARK    7  A    between atoms: C_24  and  O_26
REMARK                            x       y       z     vdW  Elec       q    Type
REMARK                         _______ _______ _______ _____ _____    ______ ____
ROOT
ATOM      1  C   UNL     1       5.068   4.261  16.583  0.00  0.00    +0.000 A 
ATOM      2  C   UNL     1       5.674   3.317  15.741  0.00  0.00    +0.000 A 
ATOM      3  C   UNL     1       6.326   3.694  14.565  0.00  0.00    +0.000 A 
ATOM      4  C   UNL     1       6.351   5.029  14.179  0.00  0.00    +0.000 A 
ATOM      5  C   UNL     1       5.746   5.987  14.986  0.00  0.00    +0.000 A 
ATOM      6  C   UNL     1       5.138   5.623  16.204  0.00  0.00    +0.000 A 
ENDROOT
BRANCH   1   9
ATOM      7  C   UNL     1       3.067   3.521  17.898  0.00  0.00    +0.000 C 
ATOM      8  O   UNL     1       2.274   3.446  16.960  0.00  0.00    +0.000 OA
ATOM      9  N   UNL     1       4.403   3.869  17.787  0.00  0.00    +0.000 N 
ATOM     10  H   UNL     1       5.007   3.751  18.601  0.00  0.00    +0.000 HD
BRANCH   7  17
ATOM     11  C   UNL     1       4.753   2.132  20.125  0.00  0.00    +0.000 C 
ATOM     12  C   UNL     1       3.301   2.492  20.256  0.00  0.00    +0.000 A 
ATOM     13  C   UNL     1       2.674   2.268  21.501  0.00  0.00    +0.000 A 
ATOM     14  C   UNL     1       1.352   2.653  21.734  0.00  0.00    +0.000 A 
ATOM     15  C   UNL     1       0.619   3.261  20.724  0.00  0.00    +0.000 A 
ATOM     16  C   UNL     1       1.215   3.476  19.484  0.00  0.00    +0.000 A 
ATOM     17  C   UNL     1       2.550   3.096  19.230  0.00  0.00    +0.000 A 
ENDBRANCH   7  17
ENDBRANCH   1   9
BRANCH   6  18
ATOM     18  C   UNL     1       4.609   6.684  17.115  0.00  0.00    +0.000 C 
ATOM     19  O   UNL     1       5.366   7.595  17.440  0.00  0.00    +0.000 OA
ATOM     20  N   UNL     1       3.281   6.554  17.497  0.00  0.00    +0.000 N 
ATOM     21  H   UNL     1       2.777   5.724  17.214  0.00  0.00    +0.000 HD
BRANCH  20  22
ATOM     22  C   UNL     1       2.545   7.473  18.276  0.00  0.00    +0.000 A 
ATOM     23  C   UNL     1       2.027   8.665  17.763  0.00  0.00    +0.000 A 
ATOM     24  C   UNL     1       1.340   9.563  18.585  0.00  0.00    +0.000 A 
ATOM     25  C   UNL     1       1.183   9.282  19.945  0.00  0.00    +0.000 A 
ATOM     26  C   UNL     1       1.644   8.065  20.455  0.00  0.00    +0.000 A 
ATOM     27  C   UNL     1       2.311   7.159  19.621  0.00  0.00    +0.000 A 
BRANCH  25  28
ATOM     28  C   UNL     1       0.511  10.231  20.863  0.00  0.00    +0.000 C 
ATOM     29  O   UNL     1      -0.395  10.968  20.510  0.00  0.00    +0.000 OA
BRANCH  28  30
ATOM     30  O   UNL     1       0.957  10.170  22.137  0.00  0.00    +0.000 OA
ATOM     31  H   UNL     1       1.686  10.781  22.351  0.00  0.00    +0.000 HD
ENDBRANCH  28  30
ENDBRANCH  25  28
ENDBRANCH  20  22
ENDBRANCH   6  18
TORSDOF 6
ENDMDL
MODEL 3
REMARK VINA RESULT:      -8.2      1.003      1.071
REMARK  Name = 
REMARK  7 active torsions:
REMARK  status: ('A' for Active; 'I' for Inactive)
REMARK    1  A    between atoms: C_1  and  C_2
REMARK    2  A    between atoms: C_7  and  C_8
REMARK    3  A    between atoms: N_10  and  C_11
REMARK    4  A    between atoms: C_16  and  C_17
REMARK    5  A    between atoms: N_19  and  C_20
REMARK    6  A    between atoms: C_23  and  C_24
REMARK    7  A    between atoms: C_24  and  O_26
REMARK                            x       y       z     vdW  Elec       q    Type
REMARK                         _______ _______ _______ _____ _____    ______ ____
ROOT
ATOM      1  C   UNL     1       3.676   3.853  19.659  0.00  0.00    +0.000 A 
ATOM      2  C   UNL     1       3.856   2.630  20.320  0.00  0.00    +0.000 A 
ATOM      3  C   UNL     1       3.048   2.251  21.395  0.00  0.00    +0.000 A 
ATOM      4  C   UNL     1       2.062   3.112  21.864  0.00  0.00    +0.000 A 
ATOM      5  C   UNL     1       1.870   4.339  21.238  0.00  0.00    +0.000 A 
ATOM      6  C   UNL     1       2.640   4.703  20.115  0.00  0.00    +0.000 A 
ENDROOT
BRANCH   1   9
ATOM      7  C   UNL     1       4.654   3.532  17.374  0.00  0.00    +0.000 C 
ATOM      8  O   UNL     1       4.047   2.503  17.079  0.00  0.00    +0.000 OA
ATOM      9  N   UNL     1       4.505   4.235  18.558  0.00  0.00    +0.000 N 
ATOM     10  H   UNL     1       4.940   5.155  18.636  0.00  0.00    +0.000 HD
BRANCH   7  17
ATOM     11  C   UNL     1       7.525   4.667  17.827  0.00  0.00    +0.000 C 
ATOM     12  C   UNL     1       6.839   4.594  16.493  0.00  0.00    +0.000 A 
ATOM     13  C   UNL     1       7.571   4.983  15.351  0.00  0.00    +0.000 A 
ATOM     14  C   UNL     1       7.039   4.865  14.065  0.00  0.00    +0.000 A 
ATOM     15  C   UNL     1       5.755   4.367  13.890  0.00  0.00    +0.000 A 
ATOM     16  C   UNL     1       5.011   3.992  15.005  0.00  0.00    +0.000 A 
ATOM     17  C   UNL     1       5.532   4.102  16.313  0.00  0.00    +0.000 A 
ENDBRANCH   7  17
ENDBRANCH   1   9
BRANCH   6  18
ATOM     18  C   UNL     1       2.329   5.968  19.381  0.00  0.00    +0.000 C 
ATOM     19  O   UNL     1       2.264   5.923  18.156  0.00  0.00    +0.000 OA
ATOM     20  N   UNL     1       2.113   7.092  20.167  0.00  0.00    +0.000 N 
ATOM     21  H   UNL     1       2.256   7.017  21.165  0.00  0.00    +0.000 HD
BRANCH  20  22
ATOM     22  C   UNL     1       1.722   8.368  19.705  0.00  0.00    +0.000 A 
ATOM     23  C   UNL     1       2.017   8.837  18.423  0.00  0.00    +0.000 A 
ATOM     24  C   UNL     1       1.644  10.124  18.025  0.00  0.00    +0.000 A 
ATOM     25  C   UNL     1       0.985  10.968  18.923  0.00  0.00    +0.000 A 
ATOM     26  C   UNL     1       0.632  10.486  20.188  0.00  0.00    +0.000 A 
ATOM     27  C   UNL     1       0.988   9.188  20.572  0.00  0.00    +0.000 A 
BRANCH  25  28
ATOM     28  C   UNL     1       0.621  12.358  18.564  0.00  0.00    +0.000 C 
ATOM     29  O   UNL     1      -0.437  12.872  18.888  0.00  0.00    +0.000 OA
BRANCH  28  30
ATOM     30  O   UNL     1       1.586  13.021  17.889  0.00  0.00    +0.000 OA
ATOM     31  H   UNL     1       2.034  12.505  17.194  0.00  0.00    +0.000 HD
ENDBRANCH  28  30
ENDBRANCH  25  28
ENDBRANCH  20  22
ENDBRANCH   6  18
TORSDOF 6
ENDMDL
MODEL 4
REMARK VINA RESULT:      -8.1      1.691      5.140
REMARK  Name = 
REMARK  7 active torsions:
REMARK  status: ('A' for Active; 'I' for Inactive)
REMARK    1  A    between atoms: C_1  and  C_2
REMARK    2  A    between atoms: C_7  and  C_8
REMARK    3  A    between atoms: N_10  and  C_11
REMARK    4  A    between atoms: C_16  and  C_17
REMARK    5  A    between atoms: N_19  and  C_20
REMARK    6  A    between atoms: C_23  and  C_24
REMARK    7  A    between atoms: C_24  and  O_26
REMARK                            x       y       z     vdW  Elec       q    Type
REMARK                         _______ _______ _______ _____ _____    ______ ____
ROOT
ATOM      1  C   UNL     1       4.849   4.294  16.369  0.00  0.00    +0.000 A 
ATOM      2  C   UNL     1       5.425   3.383  15.472  0.00  0.00    +0.000 A 
ATOM      3  C   UNL     1       6.272   3.801  14.442  0.00  0.00    +0.000 A 
ATOM      4  C   UNL     1       6.530   5.154  14.259  0.00  0.00    +0.000 A 
ATOM      5  C   UNL     1       5.961   6.084  15.123  0.00  0.00    +0.000 A 
ATOM      6  C   UNL     1       5.154   5.666  16.201  0.00  0.00    +0.000 A 
ENDROOT
BRANCH   1   9
ATOM      7  C   UNL     1       4.357   3.636  18.736  0.00  0.00    +0.000 C 
ATOM      8  O   UNL     1       5.480   3.835  19.199  0.00  0.00    +0.000 OA
ATOM      9  N   UNL     1       3.984   3.860  17.422  0.00  0.00    +0.000 N 
ATOM     10  H   UNL     1       2.994   3.809  17.181  0.00  0.00    +0.000 HD
BRANCH   7  17
ATOM     11  C   UNL     1       4.762   1.586  21.052  0.00  0.00    +0.000 C 
ATOM     12  C   UNL     1       3.481   2.321  20.780  0.00  0.00    +0.000 A 
ATOM     13  C   UNL     1       2.411   2.142  21.684  0.00  0.00    +0.000 A 
ATOM     14  C   UNL     1       1.217   2.854  21.554  0.00  0.00    +0.000 A 
ATOM     15  C   UNL     1       1.057   3.753  20.509  0.00  0.00    +0.000 A 
ATOM     16  C   UNL     1       2.094   3.932  19.598  0.00  0.00    +0.000 A 
ATOM     17  C   UNL     1       3.310   3.224  19.713  0.00  0.00    +0.000 A 
ENDBRANCH   7  17
ENDBRANCH   1   9
BRANCH   6  18
ATOM     18  C   UNL     1       4.660   6.672  17.191  0.00  0.00    +0.000 C 
ATOM     19  O   UNL     1       5.478   7.441  17.689  0.00  0.00    +0.000 OA
ATOM     20  N   UNL     1       3.295   6.661  17.442  0.00  0.00    +0.000 N 
ATOM     21  H   UNL     1       2.732   5.937  17.017  0.00  0.00    +0.000 HD
BRANCH  20  22
ATOM     22  C   UNL     1       2.594   7.567  18.268  0.00  0.00    +0.000 A 
ATOM     23  C   UNL     1       2.336   7.325  19.619  0.00  0.00    +0.000 A 
ATOM     24  C   UNL     1       1.602   8.236  20.385  0.00  0.00    +0.000 A 
ATOM     25  C   UNL     1       1.098   9.397  19.794  0.00  0.00    +0.000 A 
ATOM     26  C   UNL     1       1.403   9.678  18.458  0.00  0.00    +0.000 A 
ATOM     27  C   UNL     1       2.157   8.772  17.702  0.00  0.00    +0.000 A 
BRANCH  25  28
ATOM     28  C   UNL     1       0.269  10.361  20.553  0.00  0.00    +0.000 C 
ATOM     29  O   UNL     1      -0.816  10.758  20.159  0.00  0.00    +0.000 OA
BRANCH  28  30
ATOM     30  O   UNL     1       0.797  10.722  21.743  0.00  0.00    +0.000 OA
ATOM     31  H   UNL     1       1.707  11.069  21.704  0.00  0.00    +0.000 HD
ENDBRANCH  28  30
ENDBRANCH  25  28
ENDBRANCH  20  22
ENDBRANCH   6  18
TORSDOF 6
ENDMDL
MODEL 5
REMARK VINA RESULT:      -8.1      1.686      5.068
REMARK  Name = 
REMARK  7 active torsions:
REMARK  status: ('A' for Active; 'I' for Inactive)
REMARK    1  A    between atoms: C_1  and  C_2
REMARK    2  A    between atoms: C_7  and  C_8
REMARK    3  A    between atoms: N_10  and  C_11
REMARK    4  A    between atoms: C_16  and  C_17
REMARK    5  A    between atoms: N_19  and  C_20
REMARK    6  A    between atoms: C_23  and  C_24
REMARK    7  A    between atoms: C_24  and  O_26
REMARK                            x       y       z     vdW  Elec       q    Type
REMARK                         _______ _______ _______ _____ _____    ______ ____
ROOT
ATOM      1  C   UNL     1       4.879   4.310  16.399  0.00  0.00    +0.000 A 
ATOM      2  C   UNL     1       5.490   3.403  15.520  0.00  0.00    +0.000 A 
ATOM      3  C   UNL     1       6.333   3.832  14.492  0.00  0.00    +0.000 A 
ATOM      4  C   UNL     1       6.553   5.190  14.292  0.00  0.00    +0.000 A 
ATOM      5  C   UNL     1       5.949   6.115  15.138  0.00  0.00    +0.000 A 
ATOM      6  C   UNL     1       5.146   5.688  16.214  0.00  0.00    +0.000 A 
ENDROOT
BRANCH   1   9
ATOM      7  C   UNL     1       4.382   3.682  18.774  0.00  0.00    +0.000 C 
ATOM      8  O   UNL     1       5.492   3.932  19.245  0.00  0.00    +0.000 OA
ATOM      9  N   UNL     1       4.018   3.865  17.450  0.00  0.00    +0.000 N 
ATOM     10  H   UNL     1       3.033   3.772  17.199  0.00  0.00    +0.000 HD
BRANCH   7  17
ATOM     11  C   UNL     1       4.789   1.568  21.032  0.00  0.00    +0.000 C 
ATOM     12  C   UNL     1       3.511   2.320  20.788  0.00  0.00    +0.000 A 
ATOM     13  C   UNL     1       2.446   2.124  21.694  0.00  0.00    +0.000 A 
ATOM     14  C   UNL     1       1.255   2.846  21.591  0.00  0.00    +0.000 A 
ATOM     15  C   UNL     1       1.095   3.774  20.571  0.00  0.00    +0.000 A 
ATOM     16  C   UNL     1       2.127   3.970  19.658  0.00  0.00    +0.000 A 
ATOM     17  C   UNL     1       3.339   3.251  19.747  0.00  0.00    +0.000 A 
ENDBRANCH   7  17
ENDBRANCH   1   9
BRANCH   6  18
ATOM     18  C   UNL     1       4.614   6.692  17.186  0.00  0.00    +0.000 C 
ATOM     19  O   UNL     1       5.411   7.462  17.714  0.00  0.00    +0.000 OA
ATOM     20  N   UNL     1       3.239   6.680  17.386  0.00  0.00    +0.000 N 
ATOM     21  H   UNL     1       2.694   5.955  16.939  0.00  0.00    +0.000 HD
BRANCH  20  22
ATOM     22  C   UNL     1       2.507   7.585  18.184  0.00  0.00    +0.000 A 
ATOM     23  C   UNL     1       1.959   8.770  17.687  0.00  0.00    +0.000 A 
ATOM     24  C   UNL     1       1.275   9.654  18.527  0.00  0.00    +0.000 A 
ATOM     25  C   UNL     1       1.152   9.366  19.889  0.00  0.00    +0.000 A 
ATOM     26  C   UNL     1       1.643   8.154  20.384  0.00  0.00    +0.000 A 
ATOM     27  C   UNL     1       2.307   7.262  19.533  0.00  0.00    +0.000 A 
BRANCH  25  28
ATOM     28  C   UNL     1       0.486  10.300  20.825  0.00  0.00    +0.000 C 
ATOM     29  O   UNL     1       0.974  10.628  21.895  0.00  0.00    +0.000 OA
BRANCH  28  30
ATOM     30  O   UNL     1      -0.685  10.795  20.367  0.00  0.00    +0.000 OA
ATOM     31  H   UNL     1      -1.435  10.173  20.390  0.00  0.00    +0.000 HD
ENDBRANCH  28  30
ENDBRANCH  25  28
ENDBRANCH  20  22
ENDBRANCH   6  18
TORSDOF 6
ENDMDL
MODEL 6
REMARK VINA RESULT:      -8.0      1.706      5.128
REMARK  Name = 
REMARK  7 active torsions:
REMARK  status: ('A' for Active; 'I' for Inactive)
REMARK    1  A    between atoms: C_1  and  C_2
REMARK    2  A    between atoms: C_7  and  C_8
REMARK    3  A    between atoms: N_10  and  C_11
REMARK    4  A    between atoms: C_16  and  C_17
REMARK    5  A    between atoms: N_19  and  C_20
REMARK    6  A    between atoms: C_23  and  C_24
REMARK    7  A    between atoms: C_24  and  O_26
REMARK                            x       y       z     vdW  Elec       q    Type
REMARK                         _______ _______ _______ _____ _____    ______ ____
ROOT
ATOM      1  C   UNL     1       4.881   4.344  16.405  0.00  0.00    +0.000 A 
ATOM      2  C   UNL     1       5.495   3.375  15.598  0.00  0.00    +0.000 A 
ATOM      3  C   UNL     1       6.422   3.721  14.611  0.00  0.00    +0.000 A 
ATOM      4  C   UNL     1       6.724   5.057  14.378  0.00  0.00    +0.000 A 
ATOM      5  C   UNL     1       6.119   6.043  15.152  0.00  0.00    +0.000 A 
ATOM      6  C   UNL     1       5.230   5.698  16.189  0.00  0.00    +0.000 A 
ENDROOT
BRANCH   1   9
ATOM      7  C   UNL     1       4.230   3.696  18.737  0.00  0.00    +0.000 C 
ATOM      8  O   UNL     1       5.349   3.768  19.245  0.00  0.00    +0.000 OA
ATOM      9  N   UNL     1       3.935   3.983  17.415  0.00  0.00    +0.000 N 
ATOM     10  H   UNL     1       2.955   4.041  17.136  0.00  0.00    +0.000 HD
BRANCH   7  17
ATOM     11  C   UNL     1       1.199   4.014  18.074  0.00  0.00    +0.000 C 
ATOM     12  C   UNL     1       1.735   3.490  19.375  0.00  0.00    +0.000 A 
ATOM     13  C   UNL     1       0.808   3.027  20.334  0.00  0.00    +0.000 A 
ATOM     14  C   UNL     1       1.226   2.446  21.534  0.00  0.00    +0.000 A 
ATOM     15  C   UNL     1       2.581   2.325  21.810  0.00  0.00    +0.000 A 
ATOM     16  C   UNL     1       3.510   2.790  20.884  0.00  0.00    +0.000 A 
ATOM     17  C   UNL     1       3.109   3.379  19.665  0.00  0.00    +0.000 A 
ENDBRANCH   7  17
ENDBRANCH   1   9
BRANCH   6  18
ATOM     18  C   UNL     1       4.693   6.765  17.090  0.00  0.00    +0.000 C 
ATOM     19  O   UNL     1       5.458   7.655  17.448  0.00  0.00    +0.000 OA
ATOM     20  N   UNL     1       3.349   6.662  17.423  0.00  0.00    +0.000 N 
ATOM     21  H   UNL     1       2.837   5.847  17.115  0.00  0.00    +0.000 HD
BRANCH  20  22
ATOM     22  C   UNL     1       2.607   7.593  18.183  0.00  0.00    +0.000 A 
ATOM     23  C   UNL     1       2.128   8.796  17.660  0.00  0.00    +0.000 A 
ATOM     24  C   UNL     1       1.433   9.703  18.464  0.00  0.00    +0.000 A 
ATOM     25  C   UNL     1       1.228   9.421  19.817  0.00  0.00    +0.000 A 
ATOM     26  C   UNL     1       1.650   8.193  20.335  0.00  0.00    +0.000 A 
ATOM     27  C   UNL     1       2.326   7.278  19.519  0.00  0.00    +0.000 A 
BRANCH  25  28
ATOM     28  C   UNL     1       0.547  10.378  20.718  0.00  0.00    +0.000 C 
ATOM     29  O   UNL     1      -0.429  11.028  20.381  0.00  0.00    +0.000 OA
BRANCH  28  30
ATOM     30  O   UNL     1       1.071  10.429  21.963  0.00  0.00    +0.000 OA
ATOM     31  H   UNL     1       0.435  10.640  22.672  0.00  0.00    +0.000 HD
ENDBRANCH  28  30
ENDBRANCH  25  28
ENDBRANCH  20  22
ENDBRANCH   6  18
TORSDOF 6
ENDMDL
MODEL 7
REMARK VINA RESULT:      -8.0      1.087      1.089
REMARK  Name = 
REMARK  7 active torsions:
REMARK  status: ('A' for Active; 'I' for Inactive)
REMARK    1  A    between atoms: C_1  and  C_2
REMARK    2  A    between atoms: C_7  and  C_8
REMARK    3  A    between atoms: N_10  and  C_11
REMARK    4  A    between atoms: C_16  and  C_17
REMARK    5  A    between atoms: N_19  and  C_20
REMARK    6  A    between atoms: C_23  and  C_24
REMARK    7  A    between atoms: C_24  and  O_26
REMARK                            x       y       z     vdW  Elec       q    Type
REMARK                         _______ _______ _______ _____ _____    ______ ____
ROOT
ATOM      1  C   UNL     1       3.609   3.700  19.646  0.00  0.00    +0.000 A 
ATOM      2  C   UNL     1       3.875   2.489  20.301  0.00  0.00    +0.000 A 
ATOM      3  C   UNL     1       3.136   2.080  21.414  0.00  0.00    +0.000 A 
ATOM      4  C   UNL     1       2.136   2.897  21.925  0.00  0.00    +0.000 A 
ATOM      5  C   UNL     1       1.859   4.112  21.306  0.00  0.00    +0.000 A 
ATOM      6  C   UNL     1       2.559   4.505  20.147  0.00  0.00    +0.000 A 
ENDROOT
BRANCH   1   9
ATOM      7  C   UNL     1       4.110   3.765  17.191  0.00  0.00    +0.000 C 
ATOM      8  O   UNL     1       3.152   3.093  16.810  0.00  0.00    +0.000 OA
ATOM      9  N   UNL     1       4.368   4.114  18.506  0.00  0.00    +0.000 N 
ATOM     10  H   UNL     1       5.100   4.800  18.693  0.00  0.00    +0.000 HD
BRANCH   7  17
ATOM     11  C   UNL     1       4.955   6.757  16.936  0.00  0.00    +0.000 C 
ATOM     12  C   UNL     1       5.398   5.665  16.004  0.00  0.00    +0.000 A 
ATOM     13  C   UNL     1       6.328   5.993  14.995  0.00  0.00    +0.000 A 
ATOM     14  C   UNL     1       6.856   5.021  14.142  0.00  0.00    +0.000 A 
ATOM     15  C   UNL     1       6.457   3.698  14.269  0.00  0.00    +0.000 A 
ATOM     16  C   UNL     1       5.528   3.357  15.248  0.00  0.00    +0.000 A 
ATOM     17  C   UNL     1       4.984   4.324  16.121  0.00  0.00    +0.000 A 
ENDBRANCH   7  17
ENDBRANCH   1   9
BRANCH   6  18
ATOM     18  C   UNL     1       2.156   5.751  19.425  0.00  0.00    +0.000 C 
ATOM     19  O   UNL     1       1.795   5.649  18.256  0.00  0.00    +0.000 OA
ATOM     20  N   UNL     1       2.204   6.926  20.163  0.00  0.00    +0.000 N 
ATOM     21  H   UNL     1       2.580   6.891  21.101  0.00  0.00    +0.000 HD
BRANCH  20  22
ATOM     22  C   UNL     1       1.792   8.203  19.722  0.00  0.00    +0.000 A 
ATOM     23  C   UNL     1       2.113   8.715  18.463  0.00  0.00    +0.000 A 
ATOM     24  C   UNL     1       1.715  10.001  18.088  0.00  0.00    +0.000 A 
ATOM     25  C   UNL     1       1.004  10.800  18.986  0.00  0.00    +0.000 A 
ATOM     26  C   UNL     1       0.625  10.274  20.225  0.00  0.00    +0.000 A 
ATOM     27  C   UNL     1       1.007   8.977  20.586  0.00  0.00    +0.000 A 
BRANCH  25  28
ATOM     28  C   UNL     1       0.611  12.189  18.651  0.00  0.00    +0.000 C 
ATOM     29  O   UNL     1       1.269  13.162  18.981  0.00  0.00    +0.000 OA
BRANCH  28  30
ATOM     30  O   UNL     1      -0.513  12.277  17.906  0.00  0.00    +0.000 OA
ATOM     31  H   UNL     1      -1.341  12.073  18.379  0.00  0.00    +0.000 HD
ENDBRANCH  28  30
ENDBRANCH  25  28
ENDBRANCH  20  22
ENDBRANCH   6  18
TORSDOF 6
ENDMDL
MODEL 8
REMARK VINA RESULT:      -7.9      0.956      1.325
REMARK  Name = 
REMARK  7 active torsions:
REMARK  status: ('A' for Active; 'I' for Inactive)
REMARK    1  A    between atoms: C_1  and  C_2
REMARK    2  A    between atoms: C_7  and  C_8
REMARK    3  A    between atoms: N_10  and  C_11
REMARK    4  A    between atoms: C_16  and  C_17
REMARK    5  A    between atoms: N_19  and  C_20
REMARK    6  A    between atoms: C_23  and  C_24
REMARK    7  A    between atoms: C_24  and  O_26
REMARK                            x       y       z     vdW  Elec       q    Type
REMARK                         _______ _______ _______ _____ _____    ______ ____
ROOT
ATOM      1  C   UNL     1       3.671   3.757  19.740  0.00  0.00    +0.000 A 
ATOM      2  C   UNL     1       3.861   2.516  20.363  0.00  0.00    +0.000 A 
ATOM      3  C   UNL     1       3.054   2.096  21.425  0.00  0.00    +0.000 A 
ATOM      4  C   UNL     1       2.060   2.933  21.917  0.00  0.00    +0.000 A 
ATOM      5  C   UNL     1       1.858   4.178  21.330  0.00  0.00    +0.000 A 
ATOM      6  C   UNL     1       2.627   4.583  20.221  0.00  0.00    +0.000 A 
ENDROOT
BRANCH   1   9
ATOM      7  C   UNL     1       4.650   3.521  17.445  0.00  0.00    +0.000 C 
ATOM      8  O   UNL     1       4.046   2.501  17.114  0.00  0.00    +0.000 OA
ATOM      9  N   UNL     1       4.498   4.181  18.653  0.00  0.00    +0.000 N 
ATOM     10  H   UNL     1       4.930   5.099  18.764  0.00  0.00    +0.000 HD
BRANCH   7  17
ATOM     11  C   UNL     1       7.494   4.699  17.949  0.00  0.00    +0.000 C 
ATOM     12  C   UNL     1       6.821   4.644  16.608  0.00  0.00    +0.000 A 
ATOM     13  C   UNL     1       7.556   5.073  15.481  0.00  0.00    +0.000 A 
ATOM     14  C   UNL     1       7.036   4.974  14.189  0.00  0.00    +0.000 A 
ATOM     15  C   UNL     1       5.764   4.455  13.991  0.00  0.00    +0.000 A 
ATOM     16  C   UNL     1       5.017   4.042  15.091  0.00  0.00    +0.000 A 
ATOM     17  C   UNL     1       5.525   4.131  16.405  0.00  0.00    +0.000 A 
ENDBRANCH   7  17
ENDBRANCH   1   9
BRANCH   6  18
ATOM     18  C   UNL     1       2.305   5.868  19.526  0.00  0.00    +0.000 C 
ATOM     19  O   UNL     1       2.254   5.863  18.299  0.00  0.00    +0.000 OA
ATOM     20  N   UNL     1       2.063   6.962  20.347  0.00  0.00    +0.000 N 
ATOM     21  H   UNL     1       2.197   6.855  21.343  0.00  0.00    +0.000 HD
BRANCH  20  22
ATOM     22  C   UNL     1       1.660   8.246  19.923  0.00  0.00    +0.000 A 
ATOM     23  C   UNL     1       0.900   9.108  20.718  0.00  0.00    +0.000 A 
ATOM     24  C   UNL     1       0.491  10.355  20.238  0.00  0.00    +0.000 A 
ATOM     25  C   UNL     1       0.823  10.745  18.938  0.00  0.00    +0.000 A 
ATOM     26  C   UNL     1       1.634   9.916  18.157  0.00  0.00    +0.000 A 
ATOM     27  C   UNL     1       2.060   8.678  18.652  0.00  0.00    +0.000 A 
BRANCH  25  28
ATOM     28  C   UNL     1       0.363  12.033  18.369  0.00  0.00    +0.000 C 
ATOM     29  O   UNL     1       1.056  13.038  18.356  0.00  0.00    +0.000 OA
BRANCH  28  30
ATOM     30  O   UNL     1      -0.871  11.982  17.821  0.00  0.00    +0.000 OA
ATOM     31  H   UNL     1      -1.606  11.933  18.460  0.00  0.00    +0.000 HD
ENDBRANCH  28  30
ENDBRANCH  25  28
ENDBRANCH  20  22
ENDBRANCH   6  18
TORSDOF 6
ENDMDL
MODEL 9
REMARK VINA RESULT:      -7.9      0.937      1.079
REMARK  Name = 
REMARK  7 active torsions:
REMARK  status: ('A' for Active; 'I' for Inactive)
REMARK    1  A    between atoms: C_1  and  C_2
REMARK    2  A    between atoms: C_7  and  C_8
REMARK    3  A    between atoms: N_10  and  C_11
REMARK    4  A    between atoms: C_16  and  C_17
REMARK    5  A    between atoms: N_19  and  C_20
REMARK    6  A    between atoms: C_23  and  C_24
REMARK    7  A    between atoms: C_24  and  O_26
REMARK                            x       y       z     vdW  Elec       q    Type
REMARK                         _______ _______ _______ _____ _____    ______ ____
ROOT
ATOM      1  C   UNL     1       2.902   3.905  18.948  0.00  0.00    +0.000 A 
ATOM      2  C   UNL     1       2.556   2.574  19.218  0.00  0.00    +0.000 A 
ATOM      3  C   UNL     1       1.762   2.230  20.316  0.00  0.00    +0.000 A 
ATOM      4  C   UNL     1       1.329   3.213  21.197  0.00  0.00    +0.000 A 
ATOM      5  C   UNL     1       1.669   4.541  20.965  0.00  0.00    +0.000 A 
ATOM      6  C   UNL     1       2.418   4.903  19.827  0.00  0.00    +0.000 A 
ENDROOT
BRANCH   1   9
ATOM      7  C   UNL     1       5.097   4.220  17.781  0.00  0.00    +0.000 C 
ATOM      8  O   UNL     1       5.825   3.832  18.695  0.00  0.00    +0.000 OA
ATOM      9  N   UNL     1       3.714   4.251  17.823  0.00  0.00    +0.000 N 
ATOM     10  H   UNL     1       3.205   4.443  16.959  0.00  0.00    +0.000 HD
BRANCH   7  17
ATOM     11  C   UNL     1       7.289   6.416  17.462  0.00  0.00    +0.000 C 
ATOM     12  C   UNL     1       6.789   5.543  16.346  0.00  0.00    +0.000 A 
ATOM     13  C   UNL     1       7.413   5.660  15.085  0.00  0.00    +0.000 A 
ATOM     14  C   UNL     1       7.068   4.827  14.018  0.00  0.00    +0.000 A 
ATOM     15  C   UNL     1       6.082   3.864  14.183  0.00  0.00    +0.000 A 
ATOM     16  C   UNL     1       5.444   3.743  15.414  0.00  0.00    +0.000 A 
ATOM     17  C   UNL     1       5.780   4.574  16.505  0.00  0.00    +0.000 A 
ENDBRANCH   7  17
ENDBRANCH   1   9
BRANCH   6  18
ATOM     18  C   UNL     1       2.661   6.349  19.530  0.00  0.00    +0.000 C 
ATOM     19  O   UNL     1       3.799   6.691  19.222  0.00  0.00    +0.000 OA
ATOM     20  N   UNL     1       1.553   7.182  19.604  0.00  0.00    +0.000 N 
ATOM     21  H   UNL     1       0.678   6.792  19.930  0.00  0.00    +0.000 HD
BRANCH  20  22
ATOM     22  C   UNL     1       1.522   8.556  19.284  0.00  0.00    +0.000 A 
ATOM     23  C   UNL     1       2.040   9.074  18.095  0.00  0.00    +0.000 A 
ATOM     24  C   UNL     1       2.023  10.448  17.841  0.00  0.00    +0.000 A 
ATOM     25  C   UNL     1       1.500  11.326  18.794  0.00  0.00    +0.000 A 
ATOM     26  C   UNL     1       0.924  10.813  19.960  0.00  0.00    +0.000 A 
ATOM     27  C   UNL     1       0.924   9.434  20.198  0.00  0.00    +0.000 A 
BRANCH  25  28
ATOM     28  C   UNL     1       1.513  12.794  18.592  0.00  0.00    +0.000 C 
ATOM     29  O   UNL     1       0.499  13.473  18.599  0.00  0.00    +0.000 OA
BRANCH  28  30
ATOM     30  O   UNL     1       2.750  13.318  18.449  0.00  0.00    +0.000 OA
ATOM     31  H   UNL     1       3.194  13.565  19.282  0.00  0.00    +0.000 HD
ENDBRANCH  28  30
ENDBRANCH  25  28
ENDBRANCH  20  22
ENDBRANCH   6  18
TORSDOF 6
ENDMDL
