MODEL 1
REMARK VINA RESULT:      -8.4      0.000      0.000
REMARK  Name = 
REMARK  4 active torsions:
REMARK  status: ('A' for Active; 'I' for Inactive)
REMARK    1  A    between atoms: C_1  and  C_2
REMARK    2  A    between atoms: C_2  and  C_3
REMARK    3  A    between atoms: C_2  and  C_4
REMARK    4  A    between atoms: C_8  and  N_9
REMARK                            x       y       z     vdW  Elec       q    Type
REMARK                         _______ _______ _______ _____ _____    ______ ____
ROOT
ATOM      1  N   UNL     1       3.964   2.992  17.971  0.00  0.00    +0.000 N 
ATOM      2  C   UNL     1       2.603   2.502  17.489  0.00  0.00    +0.000 C 
ATOM      3  C   UNL     1       1.336   2.298  18.487  0.00  0.00    +0.000 C 
ATOM      4  C   UNL     1       0.915   3.381  19.601  0.00  0.00    +0.000 C 
ATOM      5  C   UNL     1       1.105   2.902  21.140  0.00  0.00    +0.000 C 
ATOM      6  C   UNL     1       2.635   3.116  21.567  0.00  0.00    +0.000 C 
ATOM      7  C   UNL     1       3.232   3.420  20.218  0.00  0.00    +0.000 C 
ATOM      8  C   UNL     1       4.369   2.924  19.397  0.00  0.00    +0.000 C 
ATOM      9  S   UNL     1       2.115   4.686  19.546  0.00  0.00    +0.000 S 
ATOM     10  O   UNL     1       2.226   5.118  18.185  0.00  0.00    +0.000 OA
ATOM     11  O   UNL     1       1.783   5.650  20.579  0.00  0.00    +0.000 OA
ENDROOT
BRANCH   1  16
ATOM     12  C   UNL     1       6.205   5.769  17.488  0.00  0.00    +0.000 A 
ATOM     13  N   UNL     1       6.187   6.045  16.180  0.00  0.00    +0.000 NA
ATOM     14  C   UNL     1       5.442   5.215  15.429  0.00  0.00    +0.000 A 
ATOM     15  C   UNL     1       4.733   4.134  15.923  0.00  0.00    +0.000 A 
ATOM     16  C   UNL     1       4.751   3.939  17.287  0.00  0.00    +0.000 A 
ATOM     17  N   UNL     1       5.521   4.754  18.046  0.00  0.00    +0.000 NA
BRANCH  12  19
ATOM     18  C   UNL     1       8.104   5.794  19.172  0.00  0.00    +0.000 C 
ATOM     19  C   UNL     1       7.079   6.618  18.388  0.00  0.00    +0.000 C 
ATOM     20  C   UNL     1       7.788   7.706  17.579  0.00  0.00    +0.000 C 
ENDBRANCH  12  19
ENDBRANCH   1  16
TORSDOF 2
ENDMDL
MODEL 2
REMARK VINA RESULT:      -8.0      1.805      2.340
REMARK  Name = 
REMARK  4 active torsions:
REMARK  status: ('A' for Active; 'I' for Inactive)
REMARK    1  A    between atoms: C_1  and  C_2
REMARK    2  A    between atoms: C_2  and  C_3
REMARK    3  A    between atoms: C_2  and  C_4
REMARK    4  A    between atoms: C_8  and  N_9
REMARK                            x       y       z     vdW  Elec       q    Type
REMARK                         _______ _______ _______ _____ _____    ______ ____
ROOT
ATOM      1  N   UNL     1       3.437   5.002  17.406  0.00  0.00    +0.000 N 
ATOM      2  C   UNL     1       2.995   5.911  18.548  0.00  0.00    +0.000 C 
ATOM      3  C   UNL     1       2.137   5.373  19.820  0.00  0.00    +0.000 C 
ATOM      4  C   UNL     1       2.495   4.014  20.606  0.00  0.00    +0.000 C 
ATOM      5  C   UNL     1       1.402   2.823  20.461  0.00  0.00    +0.000 C 
ATOM      6  C   UNL     1       1.659   2.046  19.082  0.00  0.00    +0.000 C 
ATOM      7  C   UNL     1       2.649   2.986  18.445  0.00  0.00    +0.000 C 
ATOM      8  C   UNL     1       2.793   3.692  17.143  0.00  0.00    +0.000 C 
ATOM      9  S   UNL     1       3.865   3.265  19.766  0.00  0.00    +0.000 S 
ATOM     10  O   UNL     1       4.887   4.260  19.628  0.00  0.00    +0.000 OA
ATOM     11  O   UNL     1       4.171   2.011  20.429  0.00  0.00    +0.000 OA
ENDROOT
BRANCH   1  16
ATOM     12  C   UNL     1       6.848   6.016  16.855  0.00  0.00    +0.000 A 
ATOM     13  N   UNL     1       7.217   5.479  15.687  0.00  0.00    +0.000 NA
ATOM     14  C   UNL     1       6.298   4.689  15.103  0.00  0.00    +0.000 A 
ATOM     15  C   UNL     1       5.051   4.414  15.633  0.00  0.00    +0.000 A 
ATOM     16  C   UNL     1       4.714   5.043  16.812  0.00  0.00    +0.000 A 
ATOM     17  N   UNL     1       5.644   5.818  17.420  0.00  0.00    +0.000 NA
BRANCH  12  19
ATOM     18  C   UNL     1       7.507   8.351  17.600  0.00  0.00    +0.000 C 
ATOM     19  C   UNL     1       7.856   6.861  17.606  0.00  0.00    +0.000 C 
ATOM     20  C   UNL     1       8.008   6.364  19.046  0.00  0.00    +0.000 C 
ENDBRANCH  12  19
ENDBRANCH   1  16
TORSDOF 2
ENDMDL
MODEL 3
REMARK VINA RESULT:      -7.9      1.150      2.393
REMARK  Name = 
REMARK  4 active torsions:
REMARK  status: ('A' for Active; 'I' for Inactive)
REMARK    1  A    between atoms: C_1  and  C_2
REMARK    2  A    between atoms: C_2  and  C_3
REMARK    3  A    between atoms: C_2  and  C_4
REMARK    4  A    between atoms: C_8  and  N_9
REMARK                            x       y       z     vdW  Elec       q    Type
REMARK                         _______ _______ _______ _____ _____    ______ ____
ROOT
ATOM      1  N   UNL     1       4.215   3.037  18.163  0.00  0.00    +0.000 N 
ATOM      2  C   UNL     1       2.882   2.759  17.475  0.00  0.00    +0.000 C 
ATOM      3  C   UNL     1       1.481   2.631  18.288  0.00  0.00    +0.000 C 
ATOM      4  C   UNL     1       1.041   3.660  19.444  0.00  0.00    +0.000 C 
ATOM      5  C   UNL     1       0.972   3.035  20.940  0.00  0.00    +0.000 C 
ATOM      6  C   UNL     1       2.448   3.023  21.567  0.00  0.00    +0.000 C 
ATOM      7  C   UNL     1       3.246   3.363  20.336  0.00  0.00    +0.000 C 
ATOM      8  C   UNL     1       4.419   2.801  19.613  0.00  0.00    +0.000 C 
ATOM      9  S   UNL     1       2.375   4.808  19.662  0.00  0.00    +0.000 S 
ATOM     10  O   UNL     1       2.711   5.335  18.374  0.00  0.00    +0.000 OA
ATOM     11  O   UNL     1       2.019   5.716  20.737  0.00  0.00    +0.000 OA
ENDROOT
BRANCH   1  16
ATOM     12  C   UNL     1       6.249   4.802  15.774  0.00  0.00    +0.000 A 
ATOM     13  N   UNL     1       7.184   5.448  16.479  0.00  0.00    +0.000 NA
ATOM     14  C   UNL     1       7.076   5.335  17.815  0.00  0.00    +0.000 A 
ATOM     15  C   UNL     1       6.084   4.621  18.462  0.00  0.00    +0.000 A 
ATOM     16  C   UNL     1       5.185   3.934  17.675  0.00  0.00    +0.000 A 
ATOM     17  N   UNL     1       5.271   4.066  16.330  0.00  0.00    +0.000 NA
BRANCH  12  19
ATOM     18  C   UNL     1       7.665   5.210  13.707  0.00  0.00    +0.000 C 
ATOM     19  C   UNL     1       6.265   4.941  14.265  0.00  0.00    +0.000 C 
ATOM     20  C   UNL     1       5.666   3.698  13.604  0.00  0.00    +0.000 C 
ENDBRANCH  12  19
ENDBRANCH   1  16
TORSDOF 2
ENDMDL
MODEL 4
REMARK VINA RESULT:      -7.9      2.140      3.358
REMARK  Name = 
REMARK  4 active torsions:
REMARK  status: ('A' for Active; 'I' for Inactive)
REMARK    1  A    between atoms: C_1  and  C_2
REMARK    2  A    between atoms: C_2  and  C_3
REMARK    3  A    between atoms: C_2  and  C_4
REMARK    4  A    between atoms: C_8  and  N_9
REMARK                            x       y       z     vdW  Elec       q    Type
REMARK                         _______ _______ _______ _____ _____    ______ ____
ROOT
ATOM      1  N   UNL     1       3.616   5.320  17.496  0.00  0.00    +0.000 N 
ATOM      2  C   UNL     1       3.059   5.976  18.756  0.00  0.00    +0.000 C 
ATOM      3  C   UNL     1       2.278   5.142  19.912  0.00  0.00    +0.000 C 
ATOM      4  C   UNL     1       2.809   3.735  20.487  0.00  0.00    +0.000 C 
ATOM      5  C   UNL     1       1.881   2.450  20.138  0.00  0.00    +0.000 C 
ATOM      6  C   UNL     1       2.237   1.936  18.662  0.00  0.00    +0.000 C 
ATOM      7  C   UNL     1       3.096   3.083  18.197  0.00  0.00    +0.000 C 
ATOM      8  C   UNL     1       3.147   3.994  17.023  0.00  0.00    +0.000 C 
ATOM      9  S   UNL     1       4.265   3.307  19.570  0.00  0.00    +0.000 S 
ATOM     10  O   UNL     1       5.149   4.434  19.607  0.00  0.00    +0.000 OA
ATOM     11  O   UNL     1       4.732   2.016  20.039  0.00  0.00    +0.000 OA
ENDROOT
BRANCH   1  16
ATOM     12  C   UNL     1       6.473   5.042  15.323  0.00  0.00    +0.000 A 
ATOM     13  N   UNL     1       7.412   5.848  15.830  0.00  0.00    +0.000 NA
ATOM     14  C   UNL     1       7.036   6.561  16.906  0.00  0.00    +0.000 A 
ATOM     15  C   UNL     1       5.779   6.508  17.481  0.00  0.00    +0.000 A 
ATOM     16  C   UNL     1       4.877   5.616  16.943  0.00  0.00    +0.000 A 
ATOM     17  N   UNL     1       5.239   4.916  15.842  0.00  0.00    +0.000 NA
BRANCH  12  19
ATOM     18  C   UNL     1       5.553   3.745  13.344  0.00  0.00    +0.000 C 
ATOM     19  C   UNL     1       6.800   4.260  14.067  0.00  0.00    +0.000 C 
ATOM     20  C   UNL     1       7.649   5.103  13.113  0.00  0.00    +0.000 C 
ENDBRANCH  12  19
ENDBRANCH   1  16
TORSDOF 2
ENDMDL
MODEL 5
REMARK VINA RESULT:      -7.7      2.037      3.391
REMARK  Name = 
REMARK  4 active torsions:
REMARK  status: ('A' for Active; 'I' for Inactive)
REMARK    1  A    between atoms: C_1  and  C_2
REMARK    2  A    between atoms: C_2  and  C_3
REMARK    3  A    between atoms: C_2  and  C_4
REMARK    4  A    between atoms: C_8  and  N_9
REMARK                            x       y       z     vdW  Elec       q    Type
REMARK                         _______ _______ _______ _____ _____    ______ ____
ROOT
ATOM      1  N   UNL     1       4.088   5.300  18.367  0.00  0.00    +0.000 N 
ATOM      2  C   UNL     1       3.812   5.525  19.850  0.00  0.00    +0.000 C 
ATOM      3  C   UNL     1       2.615   4.768  20.648  0.00  0.00    +0.000 C 
ATOM      4  C   UNL     1       2.322   3.193  20.499  0.00  0.00    +0.000 C 
ATOM      5  C   UNL     1       0.917   2.815  19.779  0.00  0.00    +0.000 C 
ATOM      6  C   UNL     1       1.110   2.889  18.190  0.00  0.00    +0.000 C 
ATOM      7  C   UNL     1       2.464   3.547  18.132  0.00  0.00    +0.000 C 
ATOM      8  C   UNL     1       3.071   4.723  17.453  0.00  0.00    +0.000 C 
ATOM      9  S   UNL     1       3.454   2.559  19.291  0.00  0.00    +0.000 S 
ATOM     10  O   UNL     1       4.772   2.972  19.671  0.00  0.00    +0.000 OA
ATOM     11  O   UNL     1       3.173   1.147  19.103  0.00  0.00    +0.000 OA
ENDROOT
BRANCH   1  16
ATOM     12  C   UNL     1       6.627   4.490  15.946  0.00  0.00    +0.000 A 
ATOM     13  N   UNL     1       7.797   4.561  16.590  0.00  0.00    +0.000 NA
ATOM     14  C   UNL     1       7.725   4.965  17.870  0.00  0.00    +0.000 A 
ATOM     15  C   UNL     1       6.551   5.303  18.520  0.00  0.00    +0.000 A 
ATOM     16  C   UNL     1       5.376   5.155  17.815  0.00  0.00    +0.000 A 
ATOM     17  N   UNL     1       5.443   4.775  16.517  0.00  0.00    +0.000 NA
BRANCH  12  19
ATOM     18  C   UNL     1       5.233   4.056  13.870  0.00  0.00    +0.000 C 
ATOM     19  C   UNL     1       6.637   4.110  14.480  0.00  0.00    +0.000 C 
ATOM     20  C   UNL     1       7.520   5.070  13.680  0.00  0.00    +0.000 C 
ENDBRANCH  12  19
ENDBRANCH   1  16
TORSDOF 2
ENDMDL
MODEL 6
REMARK VINA RESULT:      -7.7      2.048      2.917
REMARK  Name = 
REMARK  4 active torsions:
REMARK  status: ('A' for Active; 'I' for Inactive)
REMARK    1  A    between atoms: C_1  and  C_2
REMARK    2  A    between atoms: C_2  and  C_3
REMARK    3  A    between atoms: C_2  and  C_4
REMARK    4  A    between atoms: C_8  and  N_9
REMARK                            x       y       z     vdW  Elec       q    Type
REMARK                         _______ _______ _______ _____ _____    ______ ____
ROOT
ATOM      1  N   UNL     1       4.500   4.762  18.769  0.00  0.00    +0.000 N 
ATOM      2  C   UNL     1       4.871   3.320  19.097  0.00  0.00    +0.000 C 
ATOM      3  C   UNL     1       3.888   2.324  19.924  0.00  0.00    +0.000 C 
ATOM      4  C   UNL     1       2.314   2.191  19.615  0.00  0.00    +0.000 C 
ATOM      5  C   UNL     1       1.330   2.735  20.786  0.00  0.00    +0.000 C 
ATOM      6  C   UNL     1       1.183   4.325  20.645  0.00  0.00    +0.000 C 
ATOM      7  C   UNL     1       2.265   4.588  19.631  0.00  0.00    +0.000 C 
ATOM      8  C   UNL     1       3.440   5.493  19.506  0.00  0.00    +0.000 C 
ATOM      9  S   UNL     1       1.928   3.358  18.337  0.00  0.00    +0.000 S 
ATOM     10  O   UNL     1       2.852   3.148  17.263  0.00  0.00    +0.000 OA
ATOM     11  O   UNL     1       0.502   3.291  18.078  0.00  0.00    +0.000 OA
ENDROOT
BRANCH   1  16
ATOM     12  C   UNL     1       5.813   5.207  15.446  0.00  0.00    +0.000 A 
ATOM     13  N   UNL     1       5.536   6.468  15.096  0.00  0.00    +0.000 NA
ATOM     14  C   UNL     1       4.818   7.167  15.993  0.00  0.00    +0.000 A 
ATOM     15  C   UNL     1       4.367   6.663  17.200  0.00  0.00    +0.000 A 
ATOM     16  C   UNL     1       4.735   5.375  17.522  0.00  0.00    +0.000 A 
ATOM     17  N   UNL     1       5.434   4.656  16.612  0.00  0.00    +0.000 NA
BRANCH  12  19
ATOM     18  C   UNL     1       5.632   3.659  13.442  0.00  0.00    +0.000 C 
ATOM     19  C   UNL     1       6.559   4.336  14.456  0.00  0.00    +0.000 C 
ATOM     20  C   UNL     1       7.632   5.148  13.726  0.00  0.00    +0.000 C 
ENDBRANCH  12  19
ENDBRANCH   1  16
TORSDOF 2
ENDMDL
MODEL 7
REMARK VINA RESULT:      -7.4      2.013      3.428
REMARK  Name = 
REMARK  4 active torsions:
REMARK  status: ('A' for Active; 'I' for Inactive)
REMARK    1  A    between atoms: C_1  and  C_2
REMARK    2  A    between atoms: C_2  and  C_3
REMARK    3  A    between atoms: C_2  and  C_4
REMARK    4  A    between atoms: C_8  and  N_9
REMARK                            x       y       z     vdW  Elec       q    Type
REMARK                         _______ _______ _______ _____ _____    ______ ____
ROOT
ATOM      1  N   UNL     1       3.770   5.523  18.208  0.00  0.00    +0.000 N 
ATOM      2  C   UNL     1       3.547   5.714  19.705  0.00  0.00    +0.000 C 
ATOM      3  C   UNL     1       2.665   4.684  20.602  0.00  0.00    +0.000 C 
ATOM      4  C   UNL     1       2.811   3.085  20.498  0.00  0.00    +0.000 C 
ATOM      5  C   UNL     1       1.520   2.309  19.893  0.00  0.00    +0.000 C 
ATOM      6  C   UNL     1       1.574   2.379  18.292  0.00  0.00    +0.000 C 
ATOM      7  C   UNL     1       2.684   3.382  18.122  0.00  0.00    +0.000 C 
ATOM      8  C   UNL     1       2.893   4.656  17.383  0.00  0.00    +0.000 C 
ATOM      9  S   UNL     1       3.988   2.746  19.216  0.00  0.00    +0.000 S 
ATOM     10  O   UNL     1       5.163   3.520  19.488  0.00  0.00    +0.000 OA
ATOM     11  O   UNL     1       4.098   1.307  19.070  0.00  0.00    +0.000 OA
ENDROOT
BRANCH   1  16
ATOM     12  C   UNL     1       6.258   5.369  15.610  0.00  0.00    +0.000 A 
ATOM     13  N   UNL     1       7.406   5.775  16.162  0.00  0.00    +0.000 NA
ATOM     14  C   UNL     1       7.315   6.181  17.441  0.00  0.00    +0.000 A 
ATOM     15  C   UNL     1       6.142   6.203  18.175  0.00  0.00    +0.000 A 
ATOM     16  C   UNL     1       5.006   5.719  17.562  0.00  0.00    +0.000 A 
ATOM     17  N   UNL     1       5.084   5.335  16.266  0.00  0.00    +0.000 NA
BRANCH  12  19
ATOM     18  C   UNL     1       7.634   5.160  13.487  0.00  0.00    +0.000 C 
ATOM     19  C   UNL     1       6.268   4.963  14.150  0.00  0.00    +0.000 C 
ATOM     20  C   UNL     1       5.813   3.511  13.991  0.00  0.00    +0.000 C 
ENDBRANCH  12  19
ENDBRANCH   1  16
TORSDOF 2
ENDMDL
MODEL 8
REMARK VINA RESULT:      -7.4      1.668      2.870
REMARK  Name = 
REMARK  4 active torsions:
REMARK  status: ('A' for Active; 'I' for Inactive)
REMARK    1  A    between atoms: C_1  and  C_2
REMARK    2  A    between atoms: C_2  and  C_3
REMARK    3  A    between atoms: C_2  and  C_4
REMARK    4  A    between atoms: C_8  and  N_9
REMARK                            x       y       z     vdW  Elec       q    Type
REMARK                         _______ _______ _______ _____ _____    ______ ____
ROOT
ATOM      1  N   UNL     1       4.931   4.224  19.012  0.00  0.00    +0.000 N 
ATOM      2  C   UNL     1       4.766   2.708  18.969  0.00  0.00    +0.000 C 
ATOM      3  C   UNL     1       3.358   1.966  19.300  0.00  0.00    +0.000 C 
ATOM      4  C   UNL     1       1.946   2.463  18.710  0.00  0.00    +0.000 C 
ATOM      5  C   UNL     1       0.904   3.050  19.808  0.00  0.00    +0.000 C 
ATOM      6  C   UNL     1       1.273   4.581  20.108  0.00  0.00    +0.000 C 
ATOM      7  C   UNL     1       2.603   4.661  19.406  0.00  0.00    +0.000 C 
ATOM      8  C   UNL     1       3.984   5.101  19.742  0.00  0.00    +0.000 C 
ATOM      9  S   UNL     1       2.255   3.938  17.776  0.00  0.00    +0.000 S 
ATOM     10  O   UNL     1       3.315   3.655  16.855  0.00  0.00    +0.000 OA
ATOM     11  O   UNL     1       0.986   4.432  17.276  0.00  0.00    +0.000 OA
ENDROOT
BRANCH   1  16
ATOM     12  C   UNL     1       6.618   4.963  15.918  0.00  0.00    +0.000 A 
ATOM     13  N   UNL     1       7.230   6.139  16.094  0.00  0.00    +0.000 NA
ATOM     14  C   UNL     1       7.003   6.732  17.279  0.00  0.00    +0.000 A 
ATOM     15  C   UNL     1       6.198   6.210  18.276  0.00  0.00    +0.000 A 
ATOM     16  C   UNL     1       5.642   4.969  18.051  0.00  0.00    +0.000 A 
ATOM     17  N   UNL     1       5.843   4.378  16.849  0.00  0.00    +0.000 NA
BRANCH  12  19
ATOM     18  C   UNL     1       5.426   3.938  13.925  0.00  0.00    +0.000 C 
ATOM     19  C   UNL     1       6.770   4.269  14.580  0.00  0.00    +0.000 C 
ATOM     20  C   UNL     1       7.623   5.112  13.630  0.00  0.00    +0.000 C 
ENDBRANCH  12  19
ENDBRANCH   1  16
TORSDOF 2
ENDMDL
MODEL 9
REMARK VINA RESULT:      -7.2      3.678      4.742
REMARK  Name = 
REMARK  4 active torsions:
REMARK  status: ('A' for Active; 'I' for Inactive)
REMARK    1  A    between atoms: C_1  and  C_2
REMARK    2  A    between atoms: C_2  and  C_3
REMARK    3  A    between atoms: C_2  and  C_4
REMARK    4  A    between atoms: C_8  and  N_9
REMARK                            x       y       z     vdW  Elec       q    Type
REMARK                         _______ _______ _______ _____ _____    ______ ____
ROOT
ATOM      1  N   UNL     1       3.807   5.948  18.488  0.00  0.00    +0.000 N 
ATOM      2  C   UNL     1       4.078   5.328  17.121  0.00  0.00    +0.000 C 
ATOM      3  C   UNL     1       4.071   3.723  16.865  0.00  0.00    +0.000 C 
ATOM      4  C   UNL     1       2.927   2.749  17.442  0.00  0.00    +0.000 C 
ATOM      5  C   UNL     1       3.419   1.697  18.577  0.00  0.00    +0.000 C 
ATOM      6  C   UNL     1       3.447   2.440  19.997  0.00  0.00    +0.000 C 
ATOM      7  C   UNL     1       3.252   3.862  19.541  0.00  0.00    +0.000 C 
ATOM      8  C   UNL     1       3.928   5.171  19.746  0.00  0.00    +0.000 C 
ATOM      9  S   UNL     1       1.829   3.744  18.416  0.00  0.00    +0.000 S 
ATOM     10  O   UNL     1       1.430   4.863  17.615  0.00  0.00    +0.000 OA
ATOM     11  O   UNL     1       0.817   2.876  18.988  0.00  0.00    +0.000 OA
ENDROOT
BRANCH   1  16
ATOM     12  C   UNL     1       1.523   8.184  20.147  0.00  0.00    +0.000 A 
ATOM     13  N   UNL     1       1.172   9.104  19.242  0.00  0.00    +0.000 NA
ATOM     14  C   UNL     1       1.786   9.000  18.050  0.00  0.00    +0.000 A 
ATOM     15  C   UNL     1       2.726   8.035  17.735  0.00  0.00    +0.000 A 
ATOM     16  C   UNL     1       3.001   7.085  18.694  0.00  0.00    +0.000 A 
ATOM     17  N   UNL     1       2.407   7.199  19.906  0.00  0.00    +0.000 NA
BRANCH  12  19
ATOM     18  C   UNL     1       1.588   9.357  22.397  0.00  0.00    +0.000 C 
ATOM     19  C   UNL     1       0.925   8.279  21.536  0.00  0.00    +0.000 C 
ATOM     20  C   UNL     1      -0.584   8.524  21.456  0.00  0.00    +0.000 C 
ENDBRANCH  12  19
ENDBRANCH   1  16
TORSDOF 2
ENDMDL
