MODEL 1
REMARK VINA RESULT:      -7.0      0.000      0.000
REMARK  Name = 
REMARK  5 active torsions:
REMARK  status: ('A' for Active; 'I' for Inactive)
REMARK    1  A    between atoms: C_1  and  O_2
REMARK    2  A    between atoms: O_2  and  C_3
REMARK    3  A    between atoms: C_7  and  C_8
REMARK    4  A    between atoms: C_8  and  N_9
REMARK    5  A    between atoms: C_15  and  N_16
REMARK                            x       y       z     vdW  Elec       q    Type
REMARK                         _______ _______ _______ _____ _____    ______ ____
ROOT
ATOM      1  N   UNL     1       6.157   5.765  16.536  0.00  0.00    +0.000 NA
ATOM      2  C   UNL     1       4.743   5.424  16.353  0.00  0.00    +0.000 C 
ATOM      3  C   UNL     1       4.199   4.341  17.294  0.00  0.00    +0.000 C 
ATOM      4  C   UNL     1       4.538   4.584  18.778  0.00  0.00    +0.000 C 
ATOM      5  C   UNL     1       4.627   3.201  19.536  0.00  0.00    +0.000 C 
ATOM      6  C   UNL     1       3.211   3.392  20.035  0.00  0.00    +0.000 C 
ATOM      7  C   UNL     1       3.406   4.938  19.881  0.00  0.00    +0.000 C 
ATOM      8  C   UNL     1       5.967   5.155  18.972  0.00  0.00    +0.000 C 
ATOM      9  C   UNL     1       6.388   6.176  17.920  0.00  0.00    +0.000 C 
ENDROOT
BRANCH   7  10
ATOM     10  N   UNL     1       2.097   5.421  19.378  0.00  0.00    +0.000 NA
ATOM     11  C   UNL     1       1.299   6.003  20.502  0.00  0.00    +0.000 C 
ATOM     12  C   UNL     1       1.759   7.401  20.935  0.00  0.00    +0.000 C 
ATOM     13  O   UNL     1       1.625   8.313  19.846  0.00  0.00    +0.000 OA
ATOM     14  C   UNL     1       2.417   7.892  18.730  0.00  0.00    +0.000 C 
ATOM     15  C   UNL     1       2.175   6.425  18.312  0.00  0.00    +0.000 C 
ENDBRANCH   7  10
BRANCH   1  16
ATOM     16  C   UNL     1       7.105   4.750  16.039  0.00  0.00    +0.000 C 
BRANCH  16  21
ATOM     17  C   UNL     1       6.133   3.463  12.553  0.00  0.00    +0.000 A 
ATOM     18  C   UNL     1       6.938   4.259  11.736  0.00  0.00    +0.000 A 
ATOM     19  C   UNL     1       7.794   5.204  12.300  0.00  0.00    +0.000 A 
ATOM     20  C   UNL     1       7.844   5.357  13.687  0.00  0.00    +0.000 A 
ATOM     21  C   UNL     1       7.041   4.573  14.527  0.00  0.00    +0.000 A 
ATOM     22  C   UNL     1       6.208   3.602  13.944  0.00  0.00    +0.000 A 
BRANCH  17  24
ATOM     23  C   UNL     1       6.115   1.493  11.224  0.00  0.00    +0.000 C 
ATOM     24  O   UNL     1       5.392   2.516  11.900  0.00  0.00    +0.000 OA
ENDBRANCH  17  24
ENDBRANCH  16  21
ENDBRANCH   1  16
TORSDOF 4
ENDMDL
MODEL 2
REMARK VINA RESULT:      -6.9      1.679      2.741
REMARK  Name = 
REMARK  5 active torsions:
REMARK  status: ('A' for Active; 'I' for Inactive)
REMARK    1  A    between atoms: C_1  and  O_2
REMARK    2  A    between atoms: O_2  and  C_3
REMARK    3  A    between atoms: C_7  and  C_8
REMARK    4  A    between atoms: C_8  and  N_9
REMARK    5  A    between atoms: C_15  and  N_16
REMARK                            x       y       z     vdW  Elec       q    Type
REMARK                         _______ _______ _______ _____ _____    ______ ____
ROOT
ATOM      1  N   UNL     1       6.310   4.208  16.692  0.00  0.00    +0.000 NA
ATOM      2  C   UNL     1       6.276   4.476  18.134  0.00  0.00    +0.000 C 
ATOM      3  C   UNL     1       5.426   5.680  18.561  0.00  0.00    +0.000 C 
ATOM      4  C   UNL     1       4.012   5.687  17.948  0.00  0.00    +0.000 C 
ATOM      5  C   UNL     1       3.503   7.175  17.804  0.00  0.00    +0.000 C 
ATOM      6  C   UNL     1       2.726   7.026  19.094  0.00  0.00    +0.000 C 
ATOM      7  C   UNL     1       2.676   5.482  18.842  0.00  0.00    +0.000 C 
ATOM      8  C   UNL     1       4.002   5.194  16.477  0.00  0.00    +0.000 C 
ATOM      9  C   UNL     1       4.947   4.031  16.194  0.00  0.00    +0.000 C 
ENDROOT
BRANCH   7  10
ATOM     10  N   UNL     1       2.848   4.888  20.190  0.00  0.00    +0.000 NA
ATOM     11  C   UNL     1       1.514   4.710  20.845  0.00  0.00    +0.000 C 
ATOM     12  C   UNL     1       0.711   3.516  20.313  0.00  0.00    +0.000 C 
ATOM     13  O   UNL     1       1.430   2.306  20.552  0.00  0.00    +0.000 OA
ATOM     14  C   UNL     1       2.703   2.334  19.899  0.00  0.00    +0.000 C 
ATOM     15  C   UNL     1       3.539   3.594  20.214  0.00  0.00    +0.000 C 
ENDBRANCH   7  10
BRANCH   1  16
ATOM     16  C   UNL     1       7.123   5.157  15.909  0.00  0.00    +0.000 C 
BRANCH  16  21
ATOM     17  C   UNL     1       6.252   3.590  12.512  0.00  0.00    +0.000 A 
ATOM     18  C   UNL     1       7.072   4.327  11.655  0.00  0.00    +0.000 A 
ATOM     19  C   UNL     1       7.905   5.323  12.164  0.00  0.00    +0.000 A 
ATOM     20  C   UNL     1       7.918   5.584  13.535  0.00  0.00    +0.000 A 
ATOM     21  C   UNL     1       7.100   4.861  14.414  0.00  0.00    +0.000 A 
ATOM     22  C   UNL     1       6.290   3.838  13.889  0.00  0.00    +0.000 A 
BRANCH  17  24
ATOM     23  C   UNL     1       4.308   2.956  11.303  0.00  0.00    +0.000 C 
ATOM     24  O   UNL     1       5.537   2.587  11.918  0.00  0.00    +0.000 OA
ENDBRANCH  17  24
ENDBRANCH  16  21
ENDBRANCH   1  16
TORSDOF 4
ENDMDL
MODEL 3
REMARK VINA RESULT:      -6.7      4.037      6.922
REMARK  Name = 
REMARK  5 active torsions:
REMARK  status: ('A' for Active; 'I' for Inactive)
REMARK    1  A    between atoms: C_1  and  O_2
REMARK    2  A    between atoms: O_2  and  C_3
REMARK    3  A    between atoms: C_7  and  C_8
REMARK    4  A    between atoms: C_8  and  N_9
REMARK    5  A    between atoms: C_15  and  N_16
REMARK                            x       y       z     vdW  Elec       q    Type
REMARK                         _______ _______ _______ _____ _____    ______ ____
ROOT
ATOM      1  N   UNL     1       2.245   7.893  19.359  0.00  0.00    +0.000 NA
ATOM      2  C   UNL     1       2.302   8.864  18.260  0.00  0.00    +0.000 C 
ATOM      3  C   UNL     1       0.967   9.526  17.895  0.00  0.00    +0.000 C 
ATOM      4  C   UNL     1       0.203  10.086  19.111  0.00  0.00    +0.000 C 
ATOM      5  C   UNL     1      -1.350  10.062  18.819  0.00  0.00    +0.000 C 
ATOM      6  C   UNL     1      -1.292  11.524  18.432  0.00  0.00    +0.000 C 
ATOM      7  C   UNL     1      -0.024  11.674  19.338  0.00  0.00    +0.000 C 
ATOM      8  C   UNL     1       0.315   9.168  20.356  0.00  0.00    +0.000 C 
ATOM      9  C   UNL     1       1.688   8.532  20.550  0.00  0.00    +0.000 C 
ENDROOT
BRANCH   7  10
ATOM     10  N   UNL     1       0.855  12.599  18.581  0.00  0.00    +0.000 NA
ATOM     11  C   UNL     1       0.297  13.987  18.626  0.00  0.00    +0.000 C 
ATOM     12  C   UNL     1       0.524  14.708  19.961  0.00  0.00    +0.000 C 
ATOM     13  O   UNL     1       1.924  14.839  20.208  0.00  0.00    +0.000 OA
ATOM     14  C   UNL     1       2.553  13.554  20.264  0.00  0.00    +0.000 C 
ATOM     15  C   UNL     1       2.244  12.654  19.046  0.00  0.00    +0.000 C 
ENDBRANCH   7  10
BRANCH   1  16
ATOM     16  C   UNL     1       1.615   6.607  19.011  0.00  0.00    +0.000 C 
BRANCH  16  21
ATOM     17  C   UNL     1       4.876   4.609  18.639  0.00  0.00    +0.000 A 
ATOM     18  C   UNL     1       4.477   3.601  17.759  0.00  0.00    +0.000 A 
ATOM     19  C   UNL     1       3.167   3.562  17.282  0.00  0.00    +0.000 A 
ATOM     20  C   UNL     1       2.251   4.533  17.688  0.00  0.00    +0.000 A 
ATOM     21  C   UNL     1       2.626   5.552  18.574  0.00  0.00    +0.000 A 
ATOM     22  C   UNL     1       3.959   5.597  19.020  0.00  0.00    +0.000 A 
BRANCH  17  24
ATOM     23  C   UNL     1       7.135   4.745  17.917  0.00  0.00    +0.000 C 
ATOM     24  O   UNL     1       6.200   4.598  18.980  0.00  0.00    +0.000 OA
ENDBRANCH  17  24
ENDBRANCH  16  21
ENDBRANCH   1  16
TORSDOF 4
ENDMDL
MODEL 4
REMARK VINA RESULT:      -6.6      4.150      6.784
REMARK  Name = 
REMARK  5 active torsions:
REMARK  status: ('A' for Active; 'I' for Inactive)
REMARK    1  A    between atoms: C_1  and  O_2
REMARK    2  A    between atoms: O_2  and  C_3
REMARK    3  A    between atoms: C_7  and  C_8
REMARK    4  A    between atoms: C_8  and  N_9
REMARK    5  A    between atoms: C_15  and  N_16
REMARK                            x       y       z     vdW  Elec       q    Type
REMARK                         _______ _______ _______ _____ _____    ______ ____
ROOT
ATOM      1  N   UNL     1       7.137   7.539  18.299  0.00  0.00    +0.000 NA
ATOM      2  C   UNL     1       5.765   7.505  17.783  0.00  0.00    +0.000 C 
ATOM      3  C   UNL     1       5.542   6.605  16.560  0.00  0.00    +0.000 C 
ATOM      4  C   UNL     1       6.123   5.187  16.723  0.00  0.00    +0.000 C 
ATOM      5  C   UNL     1       6.519   4.610  15.306  0.00  0.00    +0.000 C 
ATOM      6  C   UNL     1       5.210   3.852  15.259  0.00  0.00    +0.000 C 
ATOM      7  C   UNL     1       5.186   3.870  16.824  0.00  0.00    +0.000 C 
ATOM      8  C   UNL     1       7.484   5.187  17.467  0.00  0.00    +0.000 C 
ATOM      9  C   UNL     1       7.574   6.181  18.621  0.00  0.00    +0.000 C 
ENDROOT
BRANCH   7  10
ATOM     10  N   UNL     1       3.757   4.079  17.162  0.00  0.00    +0.000 NA
ATOM     11  C   UNL     1       3.015   2.782  17.079  0.00  0.00    +0.000 C 
ATOM     12  C   UNL     1       3.261   1.845  18.269  0.00  0.00    +0.000 C 
ATOM     13  O   UNL     1       2.824   2.470  19.475  0.00  0.00    +0.000 OA
ATOM     14  C   UNL     1       3.531   3.695  19.698  0.00  0.00    +0.000 C 
ATOM     15  C   UNL     1       3.512   4.656  18.489  0.00  0.00    +0.000 C 
ENDBRANCH   7  10
BRANCH   1  16
ATOM     16  C   UNL     1       8.088   8.301  17.470  0.00  0.00    +0.000 C 
BRANCH  16  21
ATOM     17  C   UNL     1       8.773  12.027  18.104  0.00  0.00    +0.000 A 
ATOM     18  C   UNL     1       9.380  11.981  19.360  0.00  0.00    +0.000 A 
ATOM     19  C   UNL     1       9.573  10.759  20.003  0.00  0.00    +0.000 A 
ATOM     20  C   UNL     1       9.156   9.577  19.388  0.00  0.00    +0.000 A 
ATOM     21  C   UNL     1       8.540   9.599  18.130  0.00  0.00    +0.000 A 
ATOM     22  C   UNL     1       8.383  10.836  17.480  0.00  0.00    +0.000 A 
BRANCH  17  24
ATOM     23  C   UNL     1       7.603  14.085  17.904  0.00  0.00    +0.000 C 
ATOM     24  O   UNL     1       8.707  13.268  17.531  0.00  0.00    +0.000 OA
ENDBRANCH  17  24
ENDBRANCH  16  21
ENDBRANCH   1  16
TORSDOF 4
ENDMDL
MODEL 5
REMARK VINA RESULT:      -6.5      3.033      8.851
REMARK  Name = 
REMARK  5 active torsions:
REMARK  status: ('A' for Active; 'I' for Inactive)
REMARK    1  A    between atoms: C_1  and  O_2
REMARK    2  A    between atoms: O_2  and  C_3
REMARK    3  A    between atoms: C_7  and  C_8
REMARK    4  A    between atoms: C_8  and  N_9
REMARK    5  A    between atoms: C_15  and  N_16
REMARK                            x       y       z     vdW  Elec       q    Type
REMARK                         _______ _______ _______ _____ _____    ______ ____
ROOT
ATOM      1  N   UNL     1       1.926   7.612  20.430  0.00  0.00    +0.000 NA
ATOM      2  C   UNL     1       2.684   6.403  20.767  0.00  0.00    +0.000 C 
ATOM      3  C   UNL     1       2.426   5.189  19.865  0.00  0.00    +0.000 C 
ATOM      4  C   UNL     1       2.506   5.509  18.360  0.00  0.00    +0.000 C 
ATOM      5  C   UNL     1       1.569   4.524  17.557  0.00  0.00    +0.000 C 
ATOM      6  C   UNL     1       2.768   3.659  17.234  0.00  0.00    +0.000 C 
ATOM      7  C   UNL     1       3.678   4.921  17.408  0.00  0.00    +0.000 C 
ATOM      8  C   UNL     1       1.897   6.893  18.016  0.00  0.00    +0.000 C 
ATOM      9  C   UNL     1       2.189   7.985  19.041  0.00  0.00    +0.000 C 
ENDROOT
BRANCH   7  10
ATOM     10  N   UNL     1       4.896   4.400  18.075  0.00  0.00    +0.000 NA
ATOM     11  C   UNL     1       5.756   3.681  17.084  0.00  0.00    +0.000 C 
ATOM     12  C   UNL     1       6.545   4.612  16.152  0.00  0.00    +0.000 C 
ATOM     13  O   UNL     1       7.429   5.428  16.920  0.00  0.00    +0.000 OA
ATOM     14  C   UNL     1       6.698   6.225  17.858  0.00  0.00    +0.000 C 
ATOM     15  C   UNL     1       5.721   5.415  18.739  0.00  0.00    +0.000 C 
ENDBRANCH   7  10
BRANCH   1  16
ATOM     16  C   UNL     1       0.495   7.559  20.782  0.00  0.00    +0.000 C 
BRANCH  16  21
ATOM     17  C   UNL     1      -0.824  11.164  20.929  0.00  0.00    +0.000 A 
ATOM     18  C   UNL     1      -1.005  11.331  22.304  0.00  0.00    +0.000 A 
ATOM     19  C   UNL     1      -0.703  10.291  23.183  0.00  0.00    +0.000 A 
ATOM     20  C   UNL     1      -0.219   9.080  22.687  0.00  0.00    +0.000 A 
ATOM     21  C   UNL     1      -0.033   8.887  21.311  0.00  0.00    +0.000 A 
ATOM     22  C   UNL     1      -0.312   9.957  20.440  0.00  0.00    +0.000 A 
BRANCH  17  24
ATOM     23  C   UNL     1      -2.129  12.168  19.216  0.00  0.00    +0.000 C 
ATOM     24  O   UNL     1      -1.076  12.272  20.168  0.00  0.00    +0.000 OA
ENDBRANCH  17  24
ENDBRANCH  16  21
ENDBRANCH   1  16
TORSDOF 4
ENDMDL
MODEL 6
REMARK VINA RESULT:      -6.4      4.145      6.896
REMARK  Name = 
REMARK  5 active torsions:
REMARK  status: ('A' for Active; 'I' for Inactive)
REMARK    1  A    between atoms: C_1  and  O_2
REMARK    2  A    between atoms: O_2  and  C_3
REMARK    3  A    between atoms: C_7  and  C_8
REMARK    4  A    between atoms: C_8  and  N_9
REMARK    5  A    between atoms: C_15  and  N_16
REMARK                            x       y       z     vdW  Elec       q    Type
REMARK                         _______ _______ _______ _____ _____    ______ ____
ROOT
ATOM      1  N   UNL     1       7.208   7.495  18.347  0.00  0.00    +0.000 NA
ATOM      2  C   UNL     1       5.846   7.507  17.804  0.00  0.00    +0.000 C 
ATOM      3  C   UNL     1       5.611   6.596  16.591  0.00  0.00    +0.000 C 
ATOM      4  C   UNL     1       6.133   5.159  16.788  0.00  0.00    +0.000 C 
ATOM      5  C   UNL     1       6.533   4.543  15.389  0.00  0.00    +0.000 C 
ATOM      6  C   UNL     1       5.196   3.837  15.327  0.00  0.00    +0.000 C 
ATOM      7  C   UNL     1       5.142   3.882  16.891  0.00  0.00    +0.000 C 
ATOM      8  C   UNL     1       7.478   5.118  17.560  0.00  0.00    +0.000 C 
ATOM      9  C   UNL     1       7.584   6.127  18.699  0.00  0.00    +0.000 C 
ENDROOT
BRANCH   7  10
ATOM     10  N   UNL     1       3.716   4.153  17.197  0.00  0.00    +0.000 NA
ATOM     11  C   UNL     1       2.927   2.884  17.128  0.00  0.00    +0.000 C 
ATOM     12  C   UNL     1       3.115   1.965  18.342  0.00  0.00    +0.000 C 
ATOM     13  O   UNL     1       2.679   2.633  19.526  0.00  0.00    +0.000 OA
ATOM     14  C   UNL     1       3.429   3.835  19.736  0.00  0.00    +0.000 C 
ATOM     15  C   UNL     1       3.469   4.768  18.506  0.00  0.00    +0.000 C 
ENDBRANCH   7  10
BRANCH   1  16
ATOM     16  C   UNL     1       8.205   8.205  17.525  0.00  0.00    +0.000 C 
BRANCH  16  21
ATOM     17  C   UNL     1       9.485  11.036  19.785  0.00  0.00    +0.000 A 
ATOM     18  C   UNL     1       9.129  12.161  19.038  0.00  0.00    +0.000 A 
ATOM     19  C   UNL     1       8.478  12.014  17.814  0.00  0.00    +0.000 A 
ATOM     20  C   UNL     1       8.182  10.738  17.333  0.00  0.00    +0.000 A 
ATOM     21  C   UNL     1       8.533   9.594  18.062  0.00  0.00    +0.000 A 
ATOM     22  C   UNL     1       9.160   9.760  19.310  0.00  0.00    +0.000 A 
BRANCH  17  24
ATOM     23  C   UNL     1       9.707  12.538  21.612  0.00  0.00    +0.000 C 
ATOM     24  O   UNL     1      10.047  11.297  21.004  0.00  0.00    +0.000 OA
ENDBRANCH  17  24
ENDBRANCH  16  21
ENDBRANCH   1  16
TORSDOF 4
ENDMDL
MODEL 7
REMARK VINA RESULT:      -6.4      4.194      6.832
REMARK  Name = 
REMARK  5 active torsions:
REMARK  status: ('A' for Active; 'I' for Inactive)
REMARK    1  A    between atoms: C_1  and  O_2
REMARK    2  A    between atoms: O_2  and  C_3
REMARK    3  A    between atoms: C_7  and  C_8
REMARK    4  A    between atoms: C_8  and  N_9
REMARK    5  A    between atoms: C_15  and  N_16
REMARK                            x       y       z     vdW  Elec       q    Type
REMARK                         _______ _______ _______ _____ _____    ______ ____
ROOT
ATOM      1  N   UNL     1       2.182   8.072  19.053  0.00  0.00    +0.000 NA
ATOM      2  C   UNL     1       2.177   9.108  18.014  0.00  0.00    +0.000 C 
ATOM      3  C   UNL     1       0.824   9.789  17.768  0.00  0.00    +0.000 C 
ATOM      4  C   UNL     1       0.133  10.273  19.058  0.00  0.00    +0.000 C 
ATOM      5  C   UNL     1      -1.434  10.264  18.855  0.00  0.00    +0.000 C 
ATOM      6  C   UNL     1      -1.396  11.747  18.556  0.00  0.00    +0.000 C 
ATOM      7  C   UNL     1      -0.077  11.844  19.394  0.00  0.00    +0.000 C 
ATOM      8  C   UNL     1       0.316   9.281  20.236  0.00  0.00    +0.000 C 
ATOM      9  C   UNL     1       1.696   8.636  20.311  0.00  0.00    +0.000 C 
ENDROOT
BRANCH   7  10
ATOM     10  N   UNL     1       0.758  12.814  18.645  0.00  0.00    +0.000 NA
ATOM     11  C   UNL     1       0.220  14.199  18.824  0.00  0.00    +0.000 C 
ATOM     12  C   UNL     1       0.544  14.823  20.188  0.00  0.00    +0.000 C 
ATOM     13  O   UNL     1       1.959  14.928  20.347  0.00  0.00    +0.000 OA
ATOM     14  C   UNL     1       2.576  13.639  20.270  0.00  0.00    +0.000 C 
ATOM     15  C   UNL     1       2.177  12.829  19.017  0.00  0.00    +0.000 C 
ENDBRANCH   7  10
BRANCH   1  16
ATOM     16  C   UNL     1       1.530   6.808  18.664  0.00  0.00    +0.000 C 
BRANCH  16  21
ATOM     17  C   UNL     1       3.087   3.470  17.573  0.00  0.00    +0.000 A 
ATOM     18  C   UNL     1       4.342   3.889  17.128  0.00  0.00    +0.000 A 
ATOM     19  C   UNL     1       4.691   5.238  17.179  0.00  0.00    +0.000 A 
ATOM     20  C   UNL     1       3.782   6.173  17.676  0.00  0.00    +0.000 A 
ATOM     21  C   UNL     1       2.514   5.777  18.124  0.00  0.00    +0.000 A 
ATOM     22  C   UNL     1       2.190   4.408  18.096  0.00  0.00    +0.000 A 
BRANCH  17  24
ATOM     23  C   UNL     1       3.611   1.344  18.496  0.00  0.00    +0.000 C 
ATOM     24  O   UNL     1       2.880   2.118  17.551  0.00  0.00    +0.000 OA
ENDBRANCH  17  24
ENDBRANCH  16  21
ENDBRANCH   1  16
TORSDOF 4
ENDMDL
MODEL 8
REMARK VINA RESULT:      -6.4      5.322      8.814
REMARK  Name = 
REMARK  5 active torsions:
REMARK  status: ('A' for Active; 'I' for Inactive)
REMARK    1  A    between atoms: C_1  and  O_2
REMARK    2  A    between atoms: O_2  and  C_3
REMARK    3  A    between atoms: C_7  and  C_8
REMARK    4  A    between atoms: C_8  and  N_9
REMARK    5  A    between atoms: C_15  and  N_16
REMARK                            x       y       z     vdW  Elec       q    Type
REMARK                         _______ _______ _______ _____ _____    ______ ____
ROOT
ATOM      1  N   UNL     1       0.491   9.607  19.663  0.00  0.00    +0.000 NA
ATOM      2  C   UNL     1       0.998  10.334  20.831  0.00  0.00    +0.000 C 
ATOM      3  C   UNL     1       1.102  11.856  20.667  0.00  0.00    +0.000 C 
ATOM      4  C   UNL     1      -0.177  12.505  20.103  0.00  0.00    +0.000 C 
ATOM      5  C   UNL     1       0.201  13.814  19.303  0.00  0.00    +0.000 C 
ATOM      6  C   UNL     1      -0.150  14.648  20.516  0.00  0.00    +0.000 C 
ATOM      7  C   UNL     1      -1.106  13.499  20.982  0.00  0.00    +0.000 C 
ATOM      8  C   UNL     1      -0.849  11.636  19.009  0.00  0.00    +0.000 C 
ATOM      9  C   UNL     1      -0.818  10.136  19.285  0.00  0.00    +0.000 C 
ENDROOT
BRANCH   7  10
ATOM     10  N   UNL     1      -0.936  13.460  22.455  0.00  0.00    +0.000 NA
ATOM     11  C   UNL     1      -1.618  14.637  23.081  0.00  0.00    +0.000 C 
ATOM     12  C   UNL     1      -3.145  14.506  23.155  0.00  0.00    +0.000 C 
ATOM     13  O   UNL     1      -3.495  13.378  23.956  0.00  0.00    +0.000 OA
ATOM     14  C   UNL     1      -2.955  12.174  23.401  0.00  0.00    +0.000 C 
ATOM     15  C   UNL     1      -1.441  12.247  23.105  0.00  0.00    +0.000 C 
ENDBRANCH   7  10
BRANCH   1  16
ATOM     16  C   UNL     1       1.446   9.497  18.545  0.00  0.00    +0.000 C 
BRANCH  16  21
ATOM     17  C   UNL     1       2.748   6.036  19.587  0.00  0.00    +0.000 A 
ATOM     18  C   UNL     1       3.695   5.791  18.591  0.00  0.00    +0.000 A 
ATOM     19  C   UNL     1       3.919   6.734  17.589  0.00  0.00    +0.000 A 
ATOM     20  C   UNL     1       3.193   7.926  17.580  0.00  0.00    +0.000 A 
ATOM     21  C   UNL     1       2.233   8.192  18.566  0.00  0.00    +0.000 A 
ATOM     22  C   UNL     1       2.042   7.245  19.589  0.00  0.00    +0.000 A 
BRANCH  17  24
ATOM     23  C   UNL     1       1.410   4.428  20.715  0.00  0.00    +0.000 C 
ATOM     24  O   UNL     1       2.665   5.082  20.564  0.00  0.00    +0.000 OA
ENDBRANCH  17  24
ENDBRANCH  16  21
ENDBRANCH   1  16
TORSDOF 4
ENDMDL
MODEL 9
REMARK VINA RESULT:      -6.3      4.390      7.390
REMARK  Name = 
REMARK  5 active torsions:
REMARK  status: ('A' for Active; 'I' for Inactive)
REMARK    1  A    between atoms: C_1  and  O_2
REMARK    2  A    between atoms: O_2  and  C_3
REMARK    3  A    between atoms: C_7  and  C_8
REMARK    4  A    between atoms: C_8  and  N_9
REMARK    5  A    between atoms: C_15  and  N_16
REMARK                            x       y       z     vdW  Elec       q    Type
REMARK                         _______ _______ _______ _____ _____    ______ ____
ROOT
ATOM      1  N   UNL     1       2.322   8.012  18.951  0.00  0.00    +0.000 NA
ATOM      2  C   UNL     1       2.307   9.072  17.937  0.00  0.00    +0.000 C 
ATOM      3  C   UNL     1       0.936   9.707  17.666  0.00  0.00    +0.000 C 
ATOM      4  C   UNL     1       0.189  10.132  18.945  0.00  0.00    +0.000 C 
ATOM      5  C   UNL     1      -1.370  10.069  18.696  0.00  0.00    +0.000 C 
ATOM      6  C   UNL     1      -1.381  11.559  18.433  0.00  0.00    +0.000 C 
ATOM      7  C   UNL     1      -0.091  11.686  19.311  0.00  0.00    +0.000 C 
ATOM      8  C   UNL     1       0.377   9.120  20.105  0.00  0.00    +0.000 C 
ATOM      9  C   UNL     1       1.779   8.527  20.206  0.00  0.00    +0.000 C 
ENDROOT
BRANCH   7  10
ATOM     10  N   UNL     1       0.727  12.705  18.610  0.00  0.00    +0.000 NA
ATOM     11  C   UNL     1       0.104  14.057  18.766  0.00  0.00    +0.000 C 
ATOM     12  C   UNL     1       0.322  14.689  20.147  0.00  0.00    +0.000 C 
ATOM     13  O   UNL     1       1.719  14.872  20.379  0.00  0.00    +0.000 OA
ATOM     14  C   UNL     1       2.409  13.619  20.331  0.00  0.00    +0.000 C 
ATOM     15  C   UNL     1       2.121  12.796  19.056  0.00  0.00    +0.000 C 
ENDBRANCH   7  10
BRANCH   1  16
ATOM     16  C   UNL     1       1.731   6.734  18.514  0.00  0.00    +0.000 C 
BRANCH  16  21
ATOM     17  C   UNL     1       3.117   3.493  20.041  0.00  0.00    +0.000 A 
ATOM     18  C   UNL     1       4.303   3.340  19.321  0.00  0.00    +0.000 A 
ATOM     19  C   UNL     1       4.661   4.274  18.350  0.00  0.00    +0.000 A 
ATOM     20  C   UNL     1       3.829   5.366  18.096  0.00  0.00    +0.000 A 
ATOM     21  C   UNL     1       2.631   5.538  18.802  0.00  0.00    +0.000 A 
ATOM     22  C   UNL     1       2.301   4.604  19.801  0.00  0.00    +0.000 A 
BRANCH  17  24
ATOM     23  C   UNL     1       1.636   2.595  21.667  0.00  0.00    +0.000 C 
ATOM     24  O   UNL     1       2.904   2.564  21.022  0.00  0.00    +0.000 OA
ENDBRANCH  17  24
ENDBRANCH  16  21
ENDBRANCH   1  16
TORSDOF 4
ENDMDL
