MODEL 1
REMARK VINA RESULT:      -6.9      0.000      0.000
REMARK  Name = 
REMARK  9 active torsions:
REMARK  status: ('A' for Active; 'I' for Inactive)
REMARK    1  A    between atoms: C_1  and  C_2
REMARK    2  A    between atoms: C_2  and  O_3
REMARK    3  A    between atoms: O_3  and  C_4
REMARK    4  A    between atoms: C_4  and  C_5
REMARK    5  A    between atoms: C_5  and  N_6
REMARK    6  A    between atoms: C_8  and  C_9
REMARK    7  A    between atoms: N_13  and  C_14
REMARK    8  A    between atoms: C_14  and  C_15
REMARK    9  A    between atoms: C_26  and  C_27
REMARK                            x       y       z     vdW  Elec       q    Type
REMARK                         _______ _______ _______ _____ _____    ______ ____
ROOT
ATOM      1  N   UNL     1      -2.547  12.038  19.416  0.00  0.00    +0.000 N 
ATOM      2  N   UNL     1      -3.436  11.366  18.652  0.00  0.00    +0.000 NA
ATOM      3  C   UNL     1      -2.678  10.553  17.905  0.00  0.00    +0.000 A 
ATOM      4  C   UNL     1      -3.288   9.722  16.846  0.00  0.00    +0.000 C 
ATOM      5  C   UNL     1      -1.315  10.638  18.264  0.00  0.00    +0.000 A 
ATOM      6  N   UNL     1      -0.240   9.958  17.810  0.00  0.00    +0.000 NA
ATOM      7  C   UNL     1       0.916  10.338  18.350  0.00  0.00    +0.000 A 
ATOM      8  N   UNL     1       2.112   9.712  18.028  0.00  0.00    +0.000 N 
ATOM      9  N   UNL     1       1.056  11.347  19.219  0.00  0.00    +0.000 NA
ATOM     10  C   UNL     1      -0.006  12.076  19.650  0.00  0.00    +0.000 A 
ATOM     11  N   UNL     1       0.207  13.227  20.424  0.00  0.00    +0.000 N 
ATOM     12  C   UNL     1       1.467  13.844  20.551  0.00  0.00    +0.000 A 
ATOM     13  C   UNL     1       2.312  13.967  19.446  0.00  0.00    +0.000 A 
ATOM     14  C   UNL     1       3.614  14.434  19.606  0.00  0.00    +0.000 A 
ATOM     15  C   UNL     1       4.564  14.432  18.448  0.00  0.00    +0.000 C 
ATOM     16  C   UNL     1       4.000  14.865  20.870  0.00  0.00    +0.000 A 
ATOM     17  C   UNL     1       3.074  14.790  21.901  0.00  0.00    +0.000 A 
ATOM     18  N   UNL     1       1.820  14.293  21.771  0.00  0.00    +0.000 NA
ATOM     19  C   UNL     1      -1.248  11.654  19.206  0.00  0.00    +0.000 A 
ATOM     20  H   UNL     1       2.753   9.962  18.775  0.00  0.00    +0.000 HD
ATOM     21  H   UNL     1      -0.192  13.166  21.352  0.00  0.00    +0.000 HD
ENDROOT
BRANCH   1  22
ATOM     22  C   UNL     1      -3.063  12.922  20.448  0.00  0.00    +0.000 C 
BRANCH  22  23
ATOM     23  C   UNL     1      -4.552  12.745  20.724  0.00  0.00    +0.000 C 
BRANCH  23  24
ATOM     24  O   UNL     1      -4.777  12.458  22.104  0.00  0.00    +0.000 OA
BRANCH  24  26
ATOM     25  C   UNL     1      -3.974  12.494  24.354  0.00  0.00    +0.000 C 
ATOM     26  C   UNL     1      -3.611  12.675  22.893  0.00  0.00    +0.000 C 
ENDBRANCH  24  26
ENDBRANCH  23  24
ENDBRANCH  22  23
ENDBRANCH   1  22
BRANCH   8  27
ATOM     27  C   UNL     1       2.035   8.297  17.694  0.00  0.00    +0.000 C 
BRANCH  27  28
ATOM     28  C   UNL     1       3.060   7.495  18.529  0.00  0.00    +0.000 C 
ATOM     29  C   UNL     1       4.316   7.065  17.742  0.00  0.00    +0.000 C 
ATOM     30  C   UNL     1       4.155   5.772  16.943  0.00  0.00    +0.000 C 
ATOM     31  N   UNL     1       3.572   4.688  17.739  0.00  0.00    +0.000 NA
ATOM     32  C   UNL     1       2.262   5.086  18.248  0.00  0.00    +0.000 C 
ATOM     33  C   UNL     1       2.394   6.276  19.195  0.00  0.00    +0.000 C 
ATOM     34  H   UNL     1       4.189   4.476  18.523  0.00  0.00    +0.000 HD
ENDBRANCH  27  28
ENDBRANCH   8  27
TORSDOF 6
ENDMDL
MODEL 2
REMARK VINA RESULT:      -6.7      0.933      1.004
REMARK  Name = 
REMARK  9 active torsions:
REMARK  status: ('A' for Active; 'I' for Inactive)
REMARK    1  A    between atoms: C_1  and  C_2
REMARK    2  A    between atoms: C_2  and  O_3
REMARK    3  A    between atoms: O_3  and  C_4
REMARK    4  A    between atoms: C_4  and  C_5
REMARK    5  A    between atoms: C_5  and  N_6
REMARK    6  A    between atoms: C_8  and  C_9
REMARK    7  A    between atoms: N_13  and  C_14
REMARK    8  A    between atoms: C_14  and  C_15
REMARK    9  A    between atoms: C_26  and  C_27
REMARK                            x       y       z     vdW  Elec       q    Type
REMARK                         _______ _______ _______ _____ _____    ______ ____
ROOT
ATOM      1  N   UNL     1      -2.296  12.170  19.713  0.00  0.00    +0.000 N 
ATOM      2  N   UNL     1      -3.247  11.520  19.007  0.00  0.00    +0.000 NA
ATOM      3  C   UNL     1      -2.558  10.695  18.208  0.00  0.00    +0.000 A 
ATOM      4  C   UNL     1      -3.254   9.883  17.188  0.00  0.00    +0.000 C 
ATOM      5  C   UNL     1      -1.173  10.751  18.475  0.00  0.00    +0.000 A 
ATOM      6  N   UNL     1      -0.145  10.051  17.948  0.00  0.00    +0.000 NA
ATOM      7  C   UNL     1       1.052  10.404  18.411  0.00  0.00    +0.000 A 
ATOM      8  N   UNL     1       2.211   9.755  18.007  0.00  0.00    +0.000 N 
ATOM      9  N   UNL     1       1.271  11.405  19.274  0.00  0.00    +0.000 NA
ATOM     10  C   UNL     1       0.256  12.153  19.777  0.00  0.00    +0.000 A 
ATOM     11  N   UNL     1       0.544  13.296  20.540  0.00  0.00    +0.000 N 
ATOM     12  C   UNL     1       1.822  13.886  20.585  0.00  0.00    +0.000 A 
ATOM     13  C   UNL     1       2.595  13.997  19.426  0.00  0.00    +0.000 A 
ATOM     14  C   UNL     1       3.914  14.436  19.501  0.00  0.00    +0.000 A 
ATOM     15  C   UNL     1       4.784  14.421  18.283  0.00  0.00    +0.000 C 
ATOM     16  C   UNL     1       4.392  14.852  20.739  0.00  0.00    +0.000 A 
ATOM     17  C   UNL     1       3.535  14.791  21.829  0.00  0.00    +0.000 A 
ATOM     18  N   UNL     1       2.264  14.320  21.781  0.00  0.00    +0.000 NA
ATOM     19  C   UNL     1      -1.021  11.760  19.415  0.00  0.00    +0.000 A 
ATOM     20  H   UNL     1       2.905   9.988  18.711  0.00  0.00    +0.000 HD
ATOM     21  H   UNL     1       0.206  13.238  21.492  0.00  0.00    +0.000 HD
ENDROOT
BRANCH   1  22
ATOM     22  C   UNL     1      -2.724  13.059  20.780  0.00  0.00    +0.000 C 
BRANCH  22  23
ATOM     23  C   UNL     1      -2.673  12.427  22.166  0.00  0.00    +0.000 C 
BRANCH  23  24
ATOM     24  O   UNL     1      -1.462  12.778  22.835  0.00  0.00    +0.000 OA
BRANCH  24  26
ATOM     25  C   UNL     1      -2.664  14.231  24.302  0.00  0.00    +0.000 C 
ATOM     26  C   UNL     1      -1.496  14.108  23.344  0.00  0.00    +0.000 C 
ENDBRANCH  24  26
ENDBRANCH  23  24
ENDBRANCH  22  23
ENDBRANCH   1  22
BRANCH   8  27
ATOM     27  C   UNL     1       2.082   8.344  17.673  0.00  0.00    +0.000 C 
BRANCH  27  28
ATOM     28  C   UNL     1       3.069   7.503  18.518  0.00  0.00    +0.000 C 
ATOM     29  C   UNL     1       4.349   7.089  17.761  0.00  0.00    +0.000 C 
ATOM     30  C   UNL     1       4.206   5.825  16.914  0.00  0.00    +0.000 C 
ATOM     31  N   UNL     1       3.585   4.720  17.650  0.00  0.00    +0.000 NA
ATOM     32  C   UNL     1       2.260   5.113  18.125  0.00  0.00    +0.000 C 
ATOM     33  C   UNL     1       2.369   6.269  19.117  0.00  0.00    +0.000 C 
ATOM     34  H   UNL     1       4.171   4.476  18.448  0.00  0.00    +0.000 HD
ENDBRANCH  27  28
ENDBRANCH   8  27
TORSDOF 6
ENDMDL
MODEL 3
REMARK VINA RESULT:      -6.7      2.205      3.176
REMARK  Name = 
REMARK  9 active torsions:
REMARK  status: ('A' for Active; 'I' for Inactive)
REMARK    1  A    between atoms: C_1  and  C_2
REMARK    2  A    between atoms: C_2  and  O_3
REMARK    3  A    between atoms: O_3  and  C_4
REMARK    4  A    between atoms: C_4  and  C_5
REMARK    5  A    between atoms: C_5  and  N_6
REMARK    6  A    between atoms: C_8  and  C_9
REMARK    7  A    between atoms: N_13  and  C_14
REMARK    8  A    between atoms: C_14  and  C_15
REMARK    9  A    between atoms: C_26  and  C_27
REMARK                            x       y       z     vdW  Elec       q    Type
REMARK                         _______ _______ _______ _____ _____    ______ ____
ROOT
ATOM      1  N   UNL     1      -4.451  11.754  17.553  0.00  0.00    +0.000 N 
ATOM      2  N   UNL     1      -4.660  11.204  16.337  0.00  0.00    +0.000 NA
ATOM      3  C   UNL     1      -3.489  10.630  16.031  0.00  0.00    +0.000 A 
ATOM      4  C   UNL     1      -3.281  10.010  14.705  0.00  0.00    +0.000 C 
ATOM      5  C   UNL     1      -2.567  10.731  17.095  0.00  0.00    +0.000 A 
ATOM      6  N   UNL     1      -1.313  10.244  17.226  0.00  0.00    +0.000 NA
ATOM      7  C   UNL     1      -0.712  10.578  18.365  0.00  0.00    +0.000 A 
ATOM      8  N   UNL     1       0.562  10.124  18.678  0.00  0.00    +0.000 N 
ATOM      9  N   UNL     1      -1.240  11.380  19.299  0.00  0.00    +0.000 NA
ATOM     10  C   UNL     1      -2.479  11.919  19.165  0.00  0.00    +0.000 A 
ATOM     11  N   UNL     1      -2.921  12.885  20.082  0.00  0.00    +0.000 N 
ATOM     12  C   UNL     1      -2.057  13.547  20.976  0.00  0.00    +0.000 A 
ATOM     13  C   UNL     1      -0.792  13.968  20.560  0.00  0.00    +0.000 A 
ATOM     14  C   UNL     1       0.116  14.480  21.483  0.00  0.00    +0.000 A 
ATOM     15  C   UNL     1       1.518  14.800  21.064  0.00  0.00    +0.000 C 
ATOM     16  C   UNL     1      -0.314  14.650  22.794  0.00  0.00    +0.000 A 
ATOM     17  C   UNL     1      -1.615  14.286  23.111  0.00  0.00    +0.000 A 
ATOM     18  N   UNL     1      -2.495  13.741  22.235  0.00  0.00    +0.000 NA
ATOM     19  C   UNL     1      -3.195  11.518  18.050  0.00  0.00    +0.000 A 
ATOM     20  H   UNL     1       0.650  10.249  19.682  0.00  0.00    +0.000 HD
ATOM     21  H   UNL     1      -3.734  12.594  20.610  0.00  0.00    +0.000 HD
ENDROOT
BRANCH   1  22
ATOM     22  C   UNL     1      -5.586  12.351  18.237  0.00  0.00    +0.000 C 
BRANCH  22  23
ATOM     23  C   UNL     1      -6.004  11.612  19.502  0.00  0.00    +0.000 C 
BRANCH  23  24
ATOM     24  O   UNL     1      -6.861  10.516  19.183  0.00  0.00    +0.000 OA
BRANCH  24  26
ATOM     25  C   UNL     1      -7.436   8.497  20.325  0.00  0.00    +0.000 C 
ATOM     26  C   UNL     1      -7.534  10.010  20.333  0.00  0.00    +0.000 C 
ENDBRANCH  24  26
ENDBRANCH  23  24
ENDBRANCH  22  23
ENDBRANCH   1  22
BRANCH   8  27
ATOM     27  C   UNL     1       0.930   8.815  18.158  0.00  0.00    +0.000 C 
BRANCH  27  28
ATOM     28  C   UNL     1       2.245   8.331  18.815  0.00  0.00    +0.000 C 
ATOM     29  C   UNL     1       2.993   7.252  18.004  0.00  0.00    +0.000 C 
ATOM     30  C   UNL     1       2.504   5.823  18.242  0.00  0.00    +0.000 C 
ATOM     31  N   UNL     1       2.386   5.499  19.667  0.00  0.00    +0.000 NA
ATOM     32  C   UNL     1       1.460   6.422  20.318  0.00  0.00    +0.000 C 
ATOM     33  C   UNL     1       1.995   7.850  20.257  0.00  0.00    +0.000 C 
ATOM     34  H   UNL     1       3.303   5.574  20.106  0.00  0.00    +0.000 HD
ENDBRANCH  27  28
ENDBRANCH   8  27
TORSDOF 6
ENDMDL
MODEL 4
REMARK VINA RESULT:      -6.6      3.120      5.599
REMARK  Name = 
REMARK  9 active torsions:
REMARK  status: ('A' for Active; 'I' for Inactive)
REMARK    1  A    between atoms: C_1  and  C_2
REMARK    2  A    between atoms: C_2  and  O_3
REMARK    3  A    between atoms: O_3  and  C_4
REMARK    4  A    between atoms: C_4  and  C_5
REMARK    5  A    between atoms: C_5  and  N_6
REMARK    6  A    between atoms: C_8  and  C_9
REMARK    7  A    between atoms: N_13  and  C_14
REMARK    8  A    between atoms: C_14  and  C_15
REMARK    9  A    between atoms: C_26  and  C_27
REMARK                            x       y       z     vdW  Elec       q    Type
REMARK                         _______ _______ _______ _____ _____    ______ ____
ROOT
ATOM      1  N   UNL     1      -5.315  11.597  17.988  0.00  0.00    +0.000 N 
ATOM      2  N   UNL     1      -4.817  11.076  16.845  0.00  0.00    +0.000 NA
ATOM      3  C   UNL     1      -3.489  11.165  16.994  0.00  0.00    +0.000 A 
ATOM      4  C   UNL     1      -2.583  10.793  15.888  0.00  0.00    +0.000 C 
ATOM      5  C   UNL     1      -3.142  11.652  18.273  0.00  0.00    +0.000 A 
ATOM      6  N   UNL     1      -1.933  11.836  18.849  0.00  0.00    +0.000 NA
ATOM      7  C   UNL     1      -1.983  12.365  20.069  0.00  0.00    +0.000 A 
ATOM      8  N   UNL     1      -0.834  12.578  20.819  0.00  0.00    +0.000 N 
ATOM      9  N   UNL     1      -3.106  12.757  20.685  0.00  0.00    +0.000 NA
ATOM     10  C   UNL     1      -4.325  12.627  20.103  0.00  0.00    +0.000 A 
ATOM     11  N   UNL     1      -5.452  13.206  20.710  0.00  0.00    +0.000 N 
ATOM     12  C   UNL     1      -5.362  14.162  21.741  0.00  0.00    +0.000 A 
ATOM     13  C   UNL     1      -4.395  15.168  21.694  0.00  0.00    +0.000 A 
ATOM     14  C   UNL     1      -4.207  16.013  22.785  0.00  0.00    +0.000 A 
ATOM     15  C   UNL     1      -3.079  16.998  22.791  0.00  0.00    +0.000 C 
ATOM     16  C   UNL     1      -5.075  15.885  23.864  0.00  0.00    +0.000 A 
ATOM     17  C   UNL     1      -6.066  14.915  23.800  0.00  0.00    +0.000 A 
ATOM     18  N   UNL     1      -6.230  14.054  22.765  0.00  0.00    +0.000 NA
ATOM     19  C   UNL     1      -4.346  11.983  18.879  0.00  0.00    +0.000 A 
ATOM     20  H   UNL     1      -1.157  12.680  21.776  0.00  0.00    +0.000 HD
ATOM     21  H   UNL     1      -6.150  12.529  20.988  0.00  0.00    +0.000 HD
ENDROOT
BRANCH   1  22
ATOM     22  C   UNL     1      -6.750  11.528  18.202  0.00  0.00    +0.000 C 
BRANCH  22  23
ATOM     23  C   UNL     1      -7.191  10.342  19.053  0.00  0.00    +0.000 C 
BRANCH  23  24
ATOM     24  O   UNL     1      -6.995  10.618  20.439  0.00  0.00    +0.000 OA
BRANCH  24  26
ATOM     25  C   UNL     1      -7.916   8.450  20.846  0.00  0.00    +0.000 C 
ATOM     26  C   UNL     1      -7.916   9.908  21.262  0.00  0.00    +0.000 C 
ENDBRANCH  24  26
ENDBRANCH  23  24
ENDBRANCH  22  23
ENDBRANCH   1  22
BRANCH   8  27
ATOM     27  C   UNL     1       0.263  11.644  20.606  0.00  0.00    +0.000 C 
BRANCH  27  28
ATOM     28  C   UNL     1      -0.236  10.189  20.772  0.00  0.00    +0.000 C 
ATOM     29  C   UNL     1       0.033   9.586  22.166  0.00  0.00    +0.000 C 
ATOM     30  C   UNL     1       1.428   8.987  22.342  0.00  0.00    +0.000 C 
ATOM     31  N   UNL     1       1.798   8.091  21.242  0.00  0.00    +0.000 NA
ATOM     32  C   UNL     1       1.758   8.810  19.972  0.00  0.00    +0.000 C 
ATOM     33  C   UNL     1       0.338   9.281  19.668  0.00  0.00    +0.000 C 
ATOM     34  H   UNL     1       1.144   7.310  21.210  0.00  0.00    +0.000 HD
ENDBRANCH  27  28
ENDBRANCH   8  27
TORSDOF 6
ENDMDL
MODEL 5
REMARK VINA RESULT:      -6.6      0.873      1.150
REMARK  Name = 
REMARK  9 active torsions:
REMARK  status: ('A' for Active; 'I' for Inactive)
REMARK    1  A    between atoms: C_1  and  C_2
REMARK    2  A    between atoms: C_2  and  O_3
REMARK    3  A    between atoms: O_3  and  C_4
REMARK    4  A    between atoms: C_4  and  C_5
REMARK    5  A    between atoms: C_5  and  N_6
REMARK    6  A    between atoms: C_8  and  C_9
REMARK    7  A    between atoms: N_13  and  C_14
REMARK    8  A    between atoms: C_14  and  C_15
REMARK    9  A    between atoms: C_26  and  C_27
REMARK                            x       y       z     vdW  Elec       q    Type
REMARK                         _______ _______ _______ _____ _____    ______ ____
ROOT
ATOM      1  N   UNL     1      -2.586  12.171  19.563  0.00  0.00    +0.000 N 
ATOM      2  N   UNL     1      -3.500  11.506  18.821  0.00  0.00    +0.000 NA
ATOM      3  C   UNL     1      -2.769  10.671  18.072  0.00  0.00    +0.000 A 
ATOM      4  C   UNL     1      -3.411   9.839  17.032  0.00  0.00    +0.000 C 
ATOM      5  C   UNL     1      -1.399  10.736  18.407  0.00  0.00    +0.000 A 
ATOM      6  N   UNL     1      -0.344  10.030  17.944  0.00  0.00    +0.000 NA
ATOM      7  C   UNL     1       0.827  10.396  18.461  0.00  0.00    +0.000 A 
ATOM      8  N   UNL     1       2.007   9.744  18.126  0.00  0.00    +0.000 N 
ATOM      9  N   UNL     1       1.000  11.411  19.316  0.00  0.00    +0.000 NA
ATOM     10  C   UNL     1      -0.041  12.164  19.755  0.00  0.00    +0.000 A 
ATOM     11  N   UNL     1       0.205  13.321  20.513  0.00  0.00    +0.000 N 
ATOM     12  C   UNL     1       1.478  13.916  20.611  0.00  0.00    +0.000 A 
ATOM     13  C   UNL     1       2.307  14.010  19.491  0.00  0.00    +0.000 A 
ATOM     14  C   UNL     1       3.620  14.455  19.625  0.00  0.00    +0.000 A 
ATOM     15  C   UNL     1       4.550  14.423  18.452  0.00  0.00    +0.000 C 
ATOM     16  C   UNL     1       4.034  14.893  20.878  0.00  0.00    +0.000 A 
ATOM     17  C   UNL     1       3.124  14.847  21.924  0.00  0.00    +0.000 A 
ATOM     18  N   UNL     1       1.859  14.371  21.820  0.00  0.00    +0.000 NA
ATOM     19  C   UNL     1      -1.297  11.761  19.337  0.00  0.00    +0.000 A 
ATOM     20  H   UNL     1       2.664   9.991  18.860  0.00  0.00    +0.000 HD
ATOM     21  H   UNL     1      -0.180  13.277  21.447  0.00  0.00    +0.000 HD
ENDROOT
BRANCH   1  22
ATOM     22  C   UNL     1      -3.069  13.076  20.593  0.00  0.00    +0.000 C 
BRANCH  22  23
ATOM     23  C   UNL     1      -4.589  13.130  20.703  0.00  0.00    +0.000 C 
BRANCH  23  24
ATOM     24  O   UNL     1      -5.039  12.362  21.819  0.00  0.00    +0.000 OA
BRANCH  24  26
ATOM     25  C   UNL     1      -7.344  12.226  21.204  0.00  0.00    +0.000 C 
ATOM     26  C   UNL     1      -6.351  12.734  22.230  0.00  0.00    +0.000 C 
ENDBRANCH  24  26
ENDBRANCH  23  24
ENDBRANCH  22  23
ENDBRANCH   1  22
BRANCH   8  27
ATOM     27  C   UNL     1       1.898   8.327  17.810  0.00  0.00    +0.000 C 
BRANCH  27  28
ATOM     28  C   UNL     1       3.002   7.530  18.545  0.00  0.00    +0.000 C 
ATOM     29  C   UNL     1       3.619   6.390  17.708  0.00  0.00    +0.000 C 
ATOM     30  C   UNL     1       2.835   5.078  17.743  0.00  0.00    +0.000 C 
ATOM     31  N   UNL     1       2.481   4.670  19.106  0.00  0.00    +0.000 NA
ATOM     32  C   UNL     1       1.680   5.708  19.750  0.00  0.00    +0.000 C 
ATOM     33  C   UNL     1       2.488   6.995  19.895  0.00  0.00    +0.000 C 
ATOM     34  H   UNL     1       3.334   4.518  19.644  0.00  0.00    +0.000 HD
ENDBRANCH  27  28
ENDBRANCH   8  27
TORSDOF 6
ENDMDL
MODEL 6
REMARK VINA RESULT:      -6.5      3.654      8.152
REMARK  Name = 
REMARK  9 active torsions:
REMARK  status: ('A' for Active; 'I' for Inactive)
REMARK    1  A    between atoms: C_1  and  C_2
REMARK    2  A    between atoms: C_2  and  O_3
REMARK    3  A    between atoms: O_3  and  C_4
REMARK    4  A    between atoms: C_4  and  C_5
REMARK    5  A    between atoms: C_5  and  N_6
REMARK    6  A    between atoms: C_8  and  C_9
REMARK    7  A    between atoms: N_13  and  C_14
REMARK    8  A    between atoms: C_14  and  C_15
REMARK    9  A    between atoms: C_26  and  C_27
REMARK                            x       y       z     vdW  Elec       q    Type
REMARK                         _______ _______ _______ _____ _____    ______ ____
ROOT
ATOM      1  N   UNL     1      -0.872  11.142  18.676  0.00  0.00    +0.000 N 
ATOM      2  N   UNL     1      -0.975  10.376  17.568  0.00  0.00    +0.000 NA
ATOM      3  C   UNL     1      -2.287  10.360  17.299  0.00  0.00    +0.000 A 
ATOM      4  C   UNL     1      -2.818   9.521  16.205  0.00  0.00    +0.000 C 
ATOM      5  C   UNL     1      -3.007  11.195  18.181  0.00  0.00    +0.000 A 
ATOM      6  N   UNL     1      -4.321  11.508  18.222  0.00  0.00    +0.000 NA
ATOM      7  C   UNL     1      -4.662  12.302  19.234  0.00  0.00    +0.000 A 
ATOM      8  N   UNL     1      -5.964  12.756  19.398  0.00  0.00    +0.000 N 
ATOM      9  N   UNL     1      -3.823  12.724  20.190  0.00  0.00    +0.000 NA
ATOM     10  C   UNL     1      -2.510  12.379  20.194  0.00  0.00    +0.000 A 
ATOM     11  N   UNL     1      -1.709  12.700  21.301  0.00  0.00    +0.000 N 
ATOM     12  C   UNL     1      -2.240  13.107  22.540  0.00  0.00    +0.000 A 
ATOM     13  C   UNL     1      -3.381  12.491  23.061  0.00  0.00    +0.000 A 
ATOM     14  C   UNL     1      -3.992  12.998  24.205  0.00  0.00    +0.000 A 
ATOM     15  C   UNL     1      -5.292  12.426  24.681  0.00  0.00    +0.000 C 
ATOM     16  C   UNL     1      -3.375  14.059  24.857  0.00  0.00    +0.000 A 
ATOM     17  C   UNL     1      -2.196  14.562  24.324  0.00  0.00    +0.000 A 
ATOM     18  N   UNL     1      -1.616  14.111  23.185  0.00  0.00    +0.000 NA
ATOM     19  C   UNL     1      -2.074  11.645  19.104  0.00  0.00    +0.000 A 
ATOM     20  H   UNL     1      -5.890  13.557  20.019  0.00  0.00    +0.000 HD
ATOM     21  H   UNL     1      -0.950  13.330  21.078  0.00  0.00    +0.000 HD
ENDROOT
BRANCH   1  22
ATOM     22  C   UNL     1       0.458  11.470  19.160  0.00  0.00    +0.000 C 
BRANCH  22  23
ATOM     23  C   UNL     1       0.833  10.766  20.459  0.00  0.00    +0.000 C 
BRANCH  23  24
ATOM     24  O   UNL     1       0.319   9.435  20.475  0.00  0.00    +0.000 OA
BRANCH  24  26
ATOM     25  C   UNL     1      -0.444   9.689  22.726  0.00  0.00    +0.000 C 
ATOM     26  C   UNL     1       0.385   8.851  21.773  0.00  0.00    +0.000 C 
ENDBRANCH  24  26
ENDBRANCH  23  24
ENDBRANCH  22  23
ENDBRANCH   1  22
BRANCH   8  27
ATOM     27  C   UNL     1      -6.740  12.954  18.182  0.00  0.00    +0.000 C 
BRANCH  27  28
ATOM     28  C   UNL     1      -7.782  14.079  18.392  0.00  0.00    +0.000 C 
ATOM     29  C   UNL     1      -7.913  15.046  17.197  0.00  0.00    +0.000 C 
ATOM     30  C   UNL     1      -6.889  16.181  17.180  0.00  0.00    +0.000 C 
ATOM     31  N   UNL     1      -6.788  16.867  18.472  0.00  0.00    +0.000 NA
ATOM     32  C   UNL     1      -6.414  15.918  19.518  0.00  0.00    +0.000 C 
ATOM     33  C   UNL     1      -7.498  14.857  19.691  0.00  0.00    +0.000 C 
ATOM     34  H   UNL     1      -7.689  17.286  18.702  0.00  0.00    +0.000 HD
ENDBRANCH  27  28
ENDBRANCH   8  27
TORSDOF 6
ENDMDL
MODEL 7
REMARK VINA RESULT:      -6.4      4.442      8.138
REMARK  Name = 
REMARK  9 active torsions:
REMARK  status: ('A' for Active; 'I' for Inactive)
REMARK    1  A    between atoms: C_1  and  C_2
REMARK    2  A    between atoms: C_2  and  O_3
REMARK    3  A    between atoms: O_3  and  C_4
REMARK    4  A    between atoms: C_4  and  C_5
REMARK    5  A    between atoms: C_5  and  N_6
REMARK    6  A    between atoms: C_8  and  C_9
REMARK    7  A    between atoms: N_13  and  C_14
REMARK    8  A    between atoms: C_14  and  C_15
REMARK    9  A    between atoms: C_26  and  C_27
REMARK                            x       y       z     vdW  Elec       q    Type
REMARK                         _______ _______ _______ _____ _____    ______ ____
ROOT
ATOM      1  N   UNL     1       5.554  15.925  20.650  0.00  0.00    +0.000 N 
ATOM      2  N   UNL     1       6.190  15.308  21.670  0.00  0.00    +0.000 NA
ATOM      3  C   UNL     1       5.307  14.402  22.109  0.00  0.00    +0.000 A 
ATOM      4  C   UNL     1       5.598  13.591  23.310  0.00  0.00    +0.000 C 
ATOM      5  C   UNL     1       4.147  14.376  21.305  0.00  0.00    +0.000 A 
ATOM      6  N   UNL     1       3.054  13.584  21.359  0.00  0.00    +0.000 NA
ATOM      7  C   UNL     1       2.120  13.877  20.457  0.00  0.00    +0.000 A 
ATOM      8  N   UNL     1       0.954  13.132  20.347  0.00  0.00    +0.000 N 
ATOM      9  N   UNL     1       2.186  14.900  19.596  0.00  0.00    +0.000 NA
ATOM     10  C   UNL     1       3.254  15.738  19.559  0.00  0.00    +0.000 A 
ATOM     11  N   UNL     1       3.205  16.894  18.763  0.00  0.00    +0.000 N 
ATOM     12  C   UNL     1       2.010  17.397  18.214  0.00  0.00    +0.000 A 
ATOM     13  C   UNL     1       0.830  17.400  18.962  0.00  0.00    +0.000 A 
ATOM     14  C   UNL     1      -0.378  17.752  18.367  0.00  0.00    +0.000 A 
ATOM     15  C   UNL     1      -1.661  17.620  19.129  0.00  0.00    +0.000 C 
ATOM     16  C   UNL     1      -0.350  18.193  17.048  0.00  0.00    +0.000 A 
ATOM     17  C   UNL     1       0.875  18.241  16.397  0.00  0.00    +0.000 A 
ATOM     18  N   UNL     1       2.052  17.857  16.948  0.00  0.00    +0.000 NA
ATOM     19  C   UNL     1       4.305  15.416  20.400  0.00  0.00    +0.000 A 
ATOM     20  H   UNL     1       0.585  13.350  19.426  0.00  0.00    +0.000 HD
ATOM     21  H   UNL     1       3.901  16.904  18.028  0.00  0.00    +0.000 HD
ENDROOT
BRANCH   1  22
ATOM     22  C   UNL     1       6.301  16.890  19.862  0.00  0.00    +0.000 C 
BRANCH  22  23
ATOM     23  C   UNL     1       6.816  16.339  18.538  0.00  0.00    +0.000 C 
BRANCH  23  24
ATOM     24  O   UNL     1       8.195  15.984  18.643  0.00  0.00    +0.000 OA
BRANCH  24  26
ATOM     25  C   UNL     1       9.709  14.205  18.143  0.00  0.00    +0.000 C 
ATOM     26  C   UNL     1       8.378  14.577  18.766  0.00  0.00    +0.000 C 
ENDBRANCH  24  26
ENDBRANCH  23  24
ENDBRANCH  22  23
ENDBRANCH   1  22
BRANCH   8  27
ATOM     27  C   UNL     1       1.052  11.718  20.682  0.00  0.00    +0.000 C 
BRANCH  27  28
ATOM     28  C   UNL     1      -0.360  11.095  20.786  0.00  0.00    +0.000 C 
ATOM     29  C   UNL     1      -1.042  11.305  22.155  0.00  0.00    +0.000 C 
ATOM     30  C   UNL     1      -0.657  10.281  23.222  0.00  0.00    +0.000 C 
ATOM     31  N   UNL     1      -0.748   8.901  22.735  0.00  0.00    +0.000 NA
ATOM     32  C   UNL     1       0.124   8.717  21.578  0.00  0.00    +0.000 C 
ATOM     33  C   UNL     1      -0.331   9.600  20.419  0.00  0.00    +0.000 C 
ATOM     34  H   UNL     1      -1.711   8.701  22.468  0.00  0.00    +0.000 HD
ENDBRANCH  27  28
ENDBRANCH   8  27
TORSDOF 6
ENDMDL
MODEL 8
REMARK VINA RESULT:      -6.4      2.454      3.566
REMARK  Name = 
REMARK  9 active torsions:
REMARK  status: ('A' for Active; 'I' for Inactive)
REMARK    1  A    between atoms: C_1  and  C_2
REMARK    2  A    between atoms: C_2  and  O_3
REMARK    3  A    between atoms: O_3  and  C_4
REMARK    4  A    between atoms: C_4  and  C_5
REMARK    5  A    between atoms: C_5  and  N_6
REMARK    6  A    between atoms: C_8  and  C_9
REMARK    7  A    between atoms: N_13  and  C_14
REMARK    8  A    between atoms: C_14  and  C_15
REMARK    9  A    between atoms: C_26  and  C_27
REMARK                            x       y       z     vdW  Elec       q    Type
REMARK                         _______ _______ _______ _____ _____    ______ ____
ROOT
ATOM      1  N   UNL     1      -4.431  11.746  17.653  0.00  0.00    +0.000 N 
ATOM      2  N   UNL     1      -4.628  11.242  16.415  0.00  0.00    +0.000 NA
ATOM      3  C   UNL     1      -3.451  10.688  16.094  0.00  0.00    +0.000 A 
ATOM      4  C   UNL     1      -3.231  10.122  14.747  0.00  0.00    +0.000 C 
ATOM      5  C   UNL     1      -2.537  10.754  17.168  0.00  0.00    +0.000 A 
ATOM      6  N   UNL     1      -1.281  10.271  17.287  0.00  0.00    +0.000 NA
ATOM      7  C   UNL     1      -0.690  10.564  18.443  0.00  0.00    +0.000 A 
ATOM      8  N   UNL     1       0.586  10.106  18.746  0.00  0.00    +0.000 N 
ATOM      9  N   UNL     1      -1.229  11.324  19.404  0.00  0.00    +0.000 NA
ATOM     10  C   UNL     1      -2.470  11.861  19.283  0.00  0.00    +0.000 A 
ATOM     11  N   UNL     1      -2.925  12.787  20.235  0.00  0.00    +0.000 N 
ATOM     12  C   UNL     1      -2.071  13.419  21.159  0.00  0.00    +0.000 A 
ATOM     13  C   UNL     1      -0.806  13.864  20.769  0.00  0.00    +0.000 A 
ATOM     14  C   UNL     1       0.093  14.346  21.717  0.00  0.00    +0.000 A 
ATOM     15  C   UNL     1       1.495  14.690  21.320  0.00  0.00    +0.000 C 
ATOM     16  C   UNL     1      -0.347  14.461  23.031  0.00  0.00    +0.000 A 
ATOM     17  C   UNL     1      -1.647  14.076  23.325  0.00  0.00    +0.000 A 
ATOM     18  N   UNL     1      -2.518  13.561  22.422  0.00  0.00    +0.000 NA
ATOM     19  C   UNL     1      -3.176  11.499  18.149  0.00  0.00    +0.000 A 
ATOM     20  H   UNL     1       0.666  10.192  19.755  0.00  0.00    +0.000 HD
ATOM     21  H   UNL     1      -3.739  12.471  20.745  0.00  0.00    +0.000 HD
ENDROOT
BRANCH   1  22
ATOM     22  C   UNL     1      -5.574  12.309  18.352  0.00  0.00    +0.000 C 
BRANCH  22  23
ATOM     23  C   UNL     1      -6.912  12.014  17.684  0.00  0.00    +0.000 C 
BRANCH  23  24
ATOM     24  O   UNL     1      -7.299  13.095  16.836  0.00  0.00    +0.000 OA
BRANCH  24  26
ATOM     25  C   UNL     1      -6.995  15.460  16.691  0.00  0.00    +0.000 C 
ATOM     26  C   UNL     1      -7.467  14.310  17.559  0.00  0.00    +0.000 C 
ENDBRANCH  24  26
ENDBRANCH  23  24
ENDBRANCH  22  23
ENDBRANCH   1  22
BRANCH   8  27
ATOM     27  C   UNL     1       0.966   8.820  18.178  0.00  0.00    +0.000 C 
BRANCH  27  28
ATOM     28  C   UNL     1       2.269   8.310  18.837  0.00  0.00    +0.000 C 
ATOM     29  C   UNL     1       3.006   7.229  18.020  0.00  0.00    +0.000 C 
ATOM     30  C   UNL     1       2.495   5.805  18.241  0.00  0.00    +0.000 C 
ATOM     31  N   UNL     1       2.365   5.469  19.662  0.00  0.00    +0.000 NA
ATOM     32  C   UNL     1       1.448   6.398  20.317  0.00  0.00    +0.000 C 
ATOM     33  C   UNL     1       2.005   7.819  20.273  0.00  0.00    +0.000 C 
ATOM     34  H   UNL     1       3.280   5.526  20.107  0.00  0.00    +0.000 HD
ENDBRANCH  27  28
ENDBRANCH   8  27
TORSDOF 6
ENDMDL
MODEL 9
REMARK VINA RESULT:      -6.3      4.539      7.924
REMARK  Name = 
REMARK  9 active torsions:
REMARK  status: ('A' for Active; 'I' for Inactive)
REMARK    1  A    between atoms: C_1  and  C_2
REMARK    2  A    between atoms: C_2  and  O_3
REMARK    3  A    between atoms: O_3  and  C_4
REMARK    4  A    between atoms: C_4  and  C_5
REMARK    5  A    between atoms: C_5  and  N_6
REMARK    6  A    between atoms: C_8  and  C_9
REMARK    7  A    between atoms: N_13  and  C_14
REMARK    8  A    between atoms: C_14  and  C_15
REMARK    9  A    between atoms: C_26  and  C_27
REMARK                            x       y       z     vdW  Elec       q    Type
REMARK                         _______ _______ _______ _____ _____    ______ ____
ROOT
ATOM      1  N   UNL     1      -2.373  15.471  24.119  0.00  0.00    +0.000 N 
ATOM      2  N   UNL     1      -3.029  16.651  24.072  0.00  0.00    +0.000 NA
ATOM      3  C   UNL     1      -3.973  16.465  23.139  0.00  0.00    +0.000 A 
ATOM      4  C   UNL     1      -4.839  17.585  22.714  0.00  0.00    +0.000 C 
ATOM      5  C   UNL     1      -3.978  15.135  22.664  0.00  0.00    +0.000 A 
ATOM      6  N   UNL     1      -4.791  14.518  21.779  0.00  0.00    +0.000 NA
ATOM      7  C   UNL     1      -4.469  13.252  21.531  0.00  0.00    +0.000 A 
ATOM      8  N   UNL     1      -5.228  12.459  20.680  0.00  0.00    +0.000 N 
ATOM      9  N   UNL     1      -3.402  12.622  22.039  0.00  0.00    +0.000 NA
ATOM     10  C   UNL     1      -2.544  13.240  22.891  0.00  0.00    +0.000 A 
ATOM     11  N   UNL     1      -1.350  12.601  23.263  0.00  0.00    +0.000 N 
ATOM     12  C   UNL     1      -0.840  11.475  22.587  0.00  0.00    +0.000 A 
ATOM     13  C   UNL     1      -0.896  11.397  21.194  0.00  0.00    +0.000 A 
ATOM     14  C   UNL     1      -0.536  10.221  20.542  0.00  0.00    +0.000 A 
ATOM     15  C   UNL     1      -0.729  10.089  19.062  0.00  0.00    +0.000 C 
ATOM     16  C   UNL     1      -0.027   9.179  21.310  0.00  0.00    +0.000 A 
ATOM     17  C   UNL     1       0.076   9.365  22.682  0.00  0.00    +0.000 A 
ATOM     18  N   UNL     1      -0.315  10.486  23.336  0.00  0.00    +0.000 NA
ATOM     19  C   UNL     1      -2.890  14.525  23.272  0.00  0.00    +0.000 A 
ATOM     20  H   UNL     1      -4.969  11.504  20.905  0.00  0.00    +0.000 HD
ATOM     21  H   UNL     1      -1.289  12.409  24.254  0.00  0.00    +0.000 HD
ENDROOT
BRANCH   1  22
ATOM     22  C   UNL     1      -1.355  15.295  25.142  0.00  0.00    +0.000 C 
BRANCH  22  23
ATOM     23  C   UNL     1      -0.732  16.601  25.622  0.00  0.00    +0.000 C 
BRANCH  23  24
ATOM     24  O   UNL     1      -0.952  16.778  27.021  0.00  0.00    +0.000 OA
BRANCH  24  26
ATOM     25  C   UNL     1       0.953  16.193  28.339  0.00  0.00    +0.000 C 
ATOM     26  C   UNL     1       0.189  17.323  27.678  0.00  0.00    +0.000 C 
ENDBRANCH  24  26
ENDBRANCH  23  24
ENDBRANCH  22  23
ENDBRANCH   1  22
BRANCH   8  27
ATOM     27  C   UNL     1      -6.654  12.744  20.627  0.00  0.00    +0.000 C 
BRANCH  27  28
ATOM     28  C   UNL     1      -7.313  11.959  19.469  0.00  0.00    +0.000 C 
ATOM     29  C   UNL     1      -6.540  10.692  19.047  0.00  0.00    +0.000 C 
ATOM     30  C   UNL     1      -5.403  10.940  18.056  0.00  0.00    +0.000 C 
ATOM     31  N   UNL     1      -5.818  11.770  16.920  0.00  0.00    +0.000 NA
ATOM     32  C   UNL     1      -6.311  13.061  17.394  0.00  0.00    +0.000 C 
ATOM     33  C   UNL     1      -7.559  12.874  18.254  0.00  0.00    +0.000 C 
ATOM     34  H   UNL     1      -6.558  11.292  16.407  0.00  0.00    +0.000 HD
ENDBRANCH  27  28
ENDBRANCH   8  27
TORSDOF 6
ENDMDL
