MODEL 1
REMARK VINA RESULT:      -7.0      0.000      0.000
REMARK  Name = 
REMARK  5 active torsions:
REMARK  status: ('A' for Active; 'I' for Inactive)
REMARK    1  A    between atoms: N_1  and  C_2
REMARK    2  A    between atoms: N_7  and  C_8
REMARK    3  A    between atoms: C_8  and  C_9
REMARK    4  A    between atoms: C_9  and  C_10
REMARK    5  A    between atoms: C_13  and  C_14
REMARK                            x       y       z     vdW  Elec       q    Type
REMARK                         _______ _______ _______ _____ _____    ______ ____
ROOT
ATOM      1  C   UNL     1       6.295   3.746  12.914  0.00  0.00    +0.000 A 
ATOM      2  N   UNL     1       7.163   4.150  11.978  0.00  0.00    +0.000 NA
ATOM      3  C   UNL     1       8.042   5.077  12.372  0.00  0.00    +0.000 A 
ATOM      4  N   UNL     1       8.130   5.630  13.590  0.00  0.00    +0.000 NA
ATOM      5  C   UNL     1       7.246   5.221  14.524  0.00  0.00    +0.000 A 
ATOM      6  N   UNL     1       7.413   5.882  15.722  0.00  0.00    +0.000 N 
ATOM      7  C   UNL     1       6.290   4.245  14.219  0.00  0.00    +0.000 A 
ATOM      8 CL   UNL     1       5.085   3.634  15.307  0.00  0.00    +0.000 Cl
ATOM      9  H   UNL     1       8.216   6.500  15.731  0.00  0.00    +0.000 HD
ENDROOT
BRANCH   1  10
ATOM     10  N   UNL     1       5.427   2.720  12.519  0.00  0.00    +0.000 N 
ATOM     11  H   UNL     1       5.972   1.924  12.201  0.00  0.00    +0.000 HD
ATOM     12  H   UNL     1       4.730   3.039  11.855  0.00  0.00    +0.000 HD
ENDBRANCH   1  10
BRANCH   6  13
ATOM     13  C   UNL     1       6.693   5.600  16.942  0.00  0.00    +0.000 C 
BRANCH  13  14
ATOM     14  C   UNL     1       5.604   6.630  17.255  0.00  0.00    +0.000 C 
BRANCH  14  15
ATOM     15  C   UNL     1       4.598   6.031  18.196  0.00  0.00    +0.000 A 
ATOM     16  C   UNL     1       4.874   4.918  18.957  0.00  0.00    +0.000 A 
ATOM     17  N   UNL     1       3.990   4.341  19.790  0.00  0.00    +0.000 NA
ATOM     18  C   UNL     1       2.761   4.890  19.876  0.00  0.00    +0.000 A 
ATOM     19  N   UNL     1       2.381   5.951  19.133  0.00  0.00    +0.000 NA
ATOM     20  C   UNL     1       3.305   6.493  18.311  0.00  0.00    +0.000 A 
BRANCH  18  21
ATOM     21  C   UNL     1       1.803   4.295  20.879  0.00  0.00    +0.000 C 
ATOM     22  C   UNL     1       0.975   3.101  20.444  0.00  0.00    +0.000 C 
ATOM     23  C   UNL     1       2.026   2.933  21.499  0.00  0.00    +0.000 C 
ENDBRANCH  18  21
ENDBRANCH  14  15
ENDBRANCH  13  14
ENDBRANCH   6  13
TORSDOF 5
ENDMDL
MODEL 2
REMARK VINA RESULT:      -7.0      0.378      1.111
REMARK  Name = 
REMARK  5 active torsions:
REMARK  status: ('A' for Active; 'I' for Inactive)
REMARK    1  A    between atoms: N_1  and  C_2
REMARK    2  A    between atoms: N_7  and  C_8
REMARK    3  A    between atoms: C_8  and  C_9
REMARK    4  A    between atoms: C_9  and  C_10
REMARK    5  A    between atoms: C_13  and  C_14
REMARK                            x       y       z     vdW  Elec       q    Type
REMARK                         _______ _______ _______ _____ _____    ______ ____
ROOT
ATOM      1  C   UNL     1       6.303   3.744  12.947  0.00  0.00    +0.000 A 
ATOM      2  N   UNL     1       7.136   4.224  12.015  0.00  0.00    +0.000 NA
ATOM      3  C   UNL     1       7.998   5.155  12.439  0.00  0.00    +0.000 A 
ATOM      4  N   UNL     1       8.099   5.644  13.683  0.00  0.00    +0.000 NA
ATOM      5  C   UNL     1       7.250   5.159  14.613  0.00  0.00    +0.000 A 
ATOM      6  N   UNL     1       7.426   5.759  15.841  0.00  0.00    +0.000 N 
ATOM      7  C   UNL     1       6.315   4.173  14.277  0.00  0.00    +0.000 A 
ATOM      8 CL   UNL     1       5.155   3.469  15.357  0.00  0.00    +0.000 Cl
ATOM      9  H   UNL     1       8.212   6.400  15.865  0.00  0.00    +0.000 HD
ENDROOT
BRANCH   1  10
ATOM     10  N   UNL     1       5.456   2.716  12.516  0.00  0.00    +0.000 N 
ATOM     11  H   UNL     1       5.898   2.216  11.751  0.00  0.00    +0.000 HD
ATOM     12  H   UNL     1       4.520   3.048  12.311  0.00  0.00    +0.000 HD
ENDBRANCH   1  10
BRANCH   6  13
ATOM     13  C   UNL     1       6.744   5.391  17.060  0.00  0.00    +0.000 C 
BRANCH  13  14
ATOM     14  C   UNL     1       5.830   6.494  17.599  0.00  0.00    +0.000 C 
BRANCH  14  15
ATOM     15  C   UNL     1       4.646   5.878  18.289  0.00  0.00    +0.000 A 
ATOM     16  C   UNL     1       3.382   6.414  18.199  0.00  0.00    +0.000 A 
ATOM     17  N   UNL     1       2.305   5.905  18.823  0.00  0.00    +0.000 NA
ATOM     18  C   UNL     1       2.485   4.803  19.581  0.00  0.00    +0.000 A 
ATOM     19  N   UNL     1       3.694   4.234  19.770  0.00  0.00    +0.000 NA
ATOM     20  C   UNL     1       4.744   4.786  19.123  0.00  0.00    +0.000 A 
BRANCH  18  21
ATOM     21  C   UNL     1       1.258   4.182  20.204  0.00  0.00    +0.000 C 
ATOM     22  C   UNL     1       0.790   2.844  19.664  0.00  0.00    +0.000 C 
ATOM     23  C   UNL     1       1.330   2.936  21.059  0.00  0.00    +0.000 C 
ENDBRANCH  18  21
ENDBRANCH  14  15
ENDBRANCH  13  14
ENDBRANCH   6  13
TORSDOF 5
ENDMDL
MODEL 3
REMARK VINA RESULT:      -7.0      1.969      7.042
REMARK  Name = 
REMARK  5 active torsions:
REMARK  status: ('A' for Active; 'I' for Inactive)
REMARK    1  A    between atoms: N_1  and  C_2
REMARK    2  A    between atoms: N_7  and  C_8
REMARK    3  A    between atoms: C_8  and  C_9
REMARK    4  A    between atoms: C_9  and  C_10
REMARK    5  A    between atoms: C_13  and  C_14
REMARK                            x       y       z     vdW  Elec       q    Type
REMARK                         _______ _______ _______ _____ _____    ______ ____
ROOT
ATOM      1  C   UNL     1       1.336   2.720  19.575  0.00  0.00    +0.000 A 
ATOM      2  N   UNL     1       1.349   2.430  20.882  0.00  0.00    +0.000 NA
ATOM      3  C   UNL     1       1.889   3.365  21.672  0.00  0.00    +0.000 A 
ATOM      4  N   UNL     1       2.410   4.538  21.283  0.00  0.00    +0.000 NA
ATOM      5  C   UNL     1       2.398   4.816  19.963  0.00  0.00    +0.000 A 
ATOM      6  N   UNL     1       2.989   6.029  19.682  0.00  0.00    +0.000 N 
ATOM      7  C   UNL     1       1.845   3.909  19.050  0.00  0.00    +0.000 A 
ATOM      8 CL   UNL     1       1.774   4.123  17.330  0.00  0.00    +0.000 Cl
ATOM      9  H   UNL     1       3.258   6.546  20.512  0.00  0.00    +0.000 HD
ENDROOT
BRANCH   1  10
ATOM     10  N   UNL     1       0.700   1.773  18.762  0.00  0.00    +0.000 N 
ATOM     11  H   UNL     1       0.451   0.964  19.322  0.00  0.00    +0.000 HD
ATOM     12  H   UNL     1       1.240   1.554  17.931  0.00  0.00    +0.000 HD
ENDBRANCH   1  10
BRANCH   6  13
ATOM     13  C   UNL     1       3.042   6.654  18.381  0.00  0.00    +0.000 C 
BRANCH  13  14
ATOM     14  C   UNL     1       4.460   7.046  17.955  0.00  0.00    +0.000 C 
BRANCH  14  15
ATOM     15  C   UNL     1       4.923   6.144  16.847  0.00  0.00    +0.000 A 
ATOM     16  C   UNL     1       5.130   4.797  17.034  0.00  0.00    +0.000 A 
ATOM     17  N   UNL     1       5.568   3.965  16.073  0.00  0.00    +0.000 NA
ATOM     18  C   UNL     1       5.819   4.491  14.856  0.00  0.00    +0.000 A 
ATOM     19  N   UNL     1       5.693   5.809  14.590  0.00  0.00    +0.000 NA
ATOM     20  C   UNL     1       5.252   6.602  15.590  0.00  0.00    +0.000 A 
BRANCH  18  21
ATOM     21  C   UNL     1       6.222   3.539  13.757  0.00  0.00    +0.000 C 
ATOM     22  C   UNL     1       5.317   3.435  12.544  0.00  0.00    +0.000 C 
ATOM     23  C   UNL     1       6.689   4.021  12.402  0.00  0.00    +0.000 C 
ENDBRANCH  18  21
ENDBRANCH  14  15
ENDBRANCH  13  14
ENDBRANCH   6  13
TORSDOF 5
ENDMDL
MODEL 4
REMARK VINA RESULT:      -6.9      1.835      7.111
REMARK  Name = 
REMARK  5 active torsions:
REMARK  status: ('A' for Active; 'I' for Inactive)
REMARK    1  A    between atoms: N_1  and  C_2
REMARK    2  A    between atoms: N_7  and  C_8
REMARK    3  A    between atoms: C_8  and  C_9
REMARK    4  A    between atoms: C_9  and  C_10
REMARK    5  A    between atoms: C_13  and  C_14
REMARK                            x       y       z     vdW  Elec       q    Type
REMARK                         _______ _______ _______ _____ _____    ______ ____
ROOT
ATOM      1  C   UNL     1       1.571   2.907  19.321  0.00  0.00    +0.000 A 
ATOM      2  N   UNL     1       0.766   3.633  20.108  0.00  0.00    +0.000 NA
ATOM      3  C   UNL     1       1.314   4.737  20.627  0.00  0.00    +0.000 A 
ATOM      4  N   UNL     1       2.568   5.172  20.441  0.00  0.00    +0.000 NA
ATOM      5  C   UNL     1       3.372   4.430  19.653  0.00  0.00    +0.000 A 
ATOM      6  N   UNL     1       4.642   4.957  19.563  0.00  0.00    +0.000 N 
ATOM      7  C   UNL     1       2.895   3.260  19.049  0.00  0.00    +0.000 A 
ATOM      8 CL   UNL     1       3.813   2.201  18.027  0.00  0.00    +0.000 Cl
ATOM      9  H   UNL     1       4.740   5.851  20.032  0.00  0.00    +0.000 HD
ENDROOT
BRANCH   1  10
ATOM     10  N   UNL     1       0.970   1.795  18.717  0.00  0.00    +0.000 N 
ATOM     11  H   UNL     1       1.463   0.954  18.999  0.00  0.00    +0.000 HD
ATOM     12  H   UNL     1       0.876   1.906  17.713  0.00  0.00    +0.000 HD
ENDBRANCH   1  10
BRANCH   6  13
ATOM     13  C   UNL     1       5.702   4.454  18.719  0.00  0.00    +0.000 C 
BRANCH  13  14
ATOM     14  C   UNL     1       6.368   5.541  17.871  0.00  0.00    +0.000 C 
BRANCH  14  15
ATOM     15  C   UNL     1       6.349   5.136  16.425  0.00  0.00    +0.000 A 
ATOM     16  C   UNL     1       5.267   4.508  15.851  0.00  0.00    +0.000 A 
ATOM     17  N   UNL     1       5.225   4.108  14.568  0.00  0.00    +0.000 NA
ATOM     18  C   UNL     1       6.314   4.340  13.805  0.00  0.00    +0.000 A 
ATOM     19  N   UNL     1       7.440   4.905  14.290  0.00  0.00    +0.000 NA
ATOM     20  C   UNL     1       7.432   5.285  15.586  0.00  0.00    +0.000 A 
BRANCH  18  21
ATOM     21  C   UNL     1       6.228   3.973  12.343  0.00  0.00    +0.000 C 
ATOM     22  C   UNL     1       6.386   2.512  11.970  0.00  0.00    +0.000 C 
ATOM     23  C   UNL     1       5.065   3.192  11.774  0.00  0.00    +0.000 C 
ENDBRANCH  18  21
ENDBRANCH  14  15
ENDBRANCH  13  14
ENDBRANCH   6  13
TORSDOF 5
ENDMDL
MODEL 5
REMARK VINA RESULT:      -6.8      1.837      7.064
REMARK  Name = 
REMARK  5 active torsions:
REMARK  status: ('A' for Active; 'I' for Inactive)
REMARK    1  A    between atoms: N_1  and  C_2
REMARK    2  A    between atoms: N_7  and  C_8
REMARK    3  A    between atoms: C_8  and  C_9
REMARK    4  A    between atoms: C_9  and  C_10
REMARK    5  A    between atoms: C_13  and  C_14
REMARK                            x       y       z     vdW  Elec       q    Type
REMARK                         _______ _______ _______ _____ _____    ______ ____
ROOT
ATOM      1  C   UNL     1       1.543   2.954  19.241  0.00  0.00    +0.000 A 
ATOM      2  N   UNL     1       0.738   3.710  19.999  0.00  0.00    +0.000 NA
ATOM      3  C   UNL     1       1.301   4.807  20.517  0.00  0.00    +0.000 A 
ATOM      4  N   UNL     1       2.569   5.208  20.355  0.00  0.00    +0.000 NA
ATOM      5  C   UNL     1       3.374   4.436  19.596  0.00  0.00    +0.000 A 
ATOM      6  N   UNL     1       4.658   4.930  19.530  0.00  0.00    +0.000 N 
ATOM      7  C   UNL     1       2.882   3.270  18.996  0.00  0.00    +0.000 A 
ATOM      8 CL   UNL     1       3.798   2.175  18.011  0.00  0.00    +0.000 Cl
ATOM      9  H   UNL     1       4.767   5.828  19.989  0.00  0.00    +0.000 HD
ENDROOT
BRANCH   1  10
ATOM     10  N   UNL     1       0.930   1.849  18.638  0.00  0.00    +0.000 N 
ATOM     11  H   UNL     1       1.114   1.866  17.640  0.00  0.00    +0.000 HD
ATOM     12  H   UNL     1      -0.053   1.775  18.878  0.00  0.00    +0.000 HD
ENDBRANCH   1  10
BRANCH   6  13
ATOM     13  C   UNL     1       5.725   4.390  18.719  0.00  0.00    +0.000 C 
BRANCH  13  14
ATOM     14  C   UNL     1       6.429   5.446  17.863  0.00  0.00    +0.000 C 
BRANCH  14  15
ATOM     15  C   UNL     1       6.368   5.049  16.416  0.00  0.00    +0.000 A 
ATOM     16  C   UNL     1       7.424   5.242  15.555  0.00  0.00    +0.000 A 
ATOM     17  N   UNL     1       7.395   4.922  14.250  0.00  0.00    +0.000 NA
ATOM     18  C   UNL     1       6.258   4.383  13.762  0.00  0.00    +0.000 A 
ATOM     19  N   UNL     1       5.154   4.201  14.517  0.00  0.00    +0.000 NA
ATOM     20  C   UNL     1       5.234   4.540  15.821  0.00  0.00    +0.000 A 
BRANCH  18  21
ATOM     21  C   UNL     1       6.262   3.941  12.319  0.00  0.00    +0.000 C 
ATOM     22  C   UNL     1       6.404   2.459  12.033  0.00  0.00    +0.000 C 
ATOM     23  C   UNL     1       5.119   3.160  11.711  0.00  0.00    +0.000 C 
ENDBRANCH  18  21
ENDBRANCH  14  15
ENDBRANCH  13  14
ENDBRANCH   6  13
TORSDOF 5
ENDMDL
MODEL 6
REMARK VINA RESULT:      -6.7      4.367      5.904
REMARK  Name = 
REMARK  5 active torsions:
REMARK  status: ('A' for Active; 'I' for Inactive)
REMARK    1  A    between atoms: N_1  and  C_2
REMARK    2  A    between atoms: N_7  and  C_8
REMARK    3  A    between atoms: C_8  and  C_9
REMARK    4  A    between atoms: C_9  and  C_10
REMARK    5  A    between atoms: C_13  and  C_14
REMARK                            x       y       z     vdW  Elec       q    Type
REMARK                         _______ _______ _______ _____ _____    ______ ____
ROOT
ATOM      1  C   UNL     1       4.074   2.489  19.230  0.00  0.00    +0.000 A 
ATOM      2  N   UNL     1       3.219   1.596  18.716  0.00  0.00    +0.000 NA
ATOM      3  C   UNL     1       2.313   2.092  17.866  0.00  0.00    +0.000 A 
ATOM      4  N   UNL     1       2.183   3.373  17.492  0.00  0.00    +0.000 NA
ATOM      5  C   UNL     1       3.045   4.265  18.022  0.00  0.00    +0.000 A 
ATOM      6  N   UNL     1       2.792   5.550  17.591  0.00  0.00    +0.000 N 
ATOM      7  C   UNL     1       4.040   3.849  18.914  0.00  0.00    +0.000 A 
ATOM      8 CL   UNL     1       5.204   4.881  19.683  0.00  0.00    +0.000 Cl
ATOM      9  H   UNL     1       2.062   5.602  16.890  0.00  0.00    +0.000 HD
ENDROOT
BRANCH   1  10
ATOM     10  N   UNL     1       5.068   1.954  20.058  0.00  0.00    +0.000 N 
ATOM     11  H   UNL     1       5.958   2.391  19.839  0.00  0.00    +0.000 HD
ATOM     12  H   UNL     1       5.085   0.940  20.034  0.00  0.00    +0.000 HD
ENDBRANCH   1  10
BRANCH   6  13
ATOM     13  C   UNL     1       3.598   6.710  17.896  0.00  0.00    +0.000 C 
BRANCH  13  14
ATOM     14  C   UNL     1       2.845   8.032  17.722  0.00  0.00    +0.000 C 
BRANCH  14  15
ATOM     15  C   UNL     1       1.982   8.284  18.926  0.00  0.00    +0.000 A 
ATOM     16  C   UNL     1       1.177   9.395  19.033  0.00  0.00    +0.000 A 
ATOM     17  N   UNL     1       0.412   9.666  20.105  0.00  0.00    +0.000 NA
ATOM     18  C   UNL     1       0.444   8.793  21.133  0.00  0.00    +0.000 A 
ATOM     19  N   UNL     1       1.238   7.702  21.141  0.00  0.00    +0.000 NA
ATOM     20  C   UNL     1       1.989   7.476  20.042  0.00  0.00    +0.000 A 
BRANCH  18  21
ATOM     21  C   UNL     1      -0.486   9.053  22.294  0.00  0.00    +0.000 C 
ATOM     22  C   UNL     1       0.113   9.624  23.564  0.00  0.00    +0.000 C 
ATOM     23  C   UNL     1      -0.834  10.452  22.751  0.00  0.00    +0.000 C 
ENDBRANCH  18  21
ENDBRANCH  14  15
ENDBRANCH  13  14
ENDBRANCH   6  13
TORSDOF 5
ENDMDL
MODEL 7
REMARK VINA RESULT:      -6.7      2.972      4.672
REMARK  Name = 
REMARK  5 active torsions:
REMARK  status: ('A' for Active; 'I' for Inactive)
REMARK    1  A    between atoms: N_1  and  C_2
REMARK    2  A    between atoms: N_7  and  C_8
REMARK    3  A    between atoms: C_8  and  C_9
REMARK    4  A    between atoms: C_9  and  C_10
REMARK    5  A    between atoms: C_13  and  C_14
REMARK                            x       y       z     vdW  Elec       q    Type
REMARK                         _______ _______ _______ _____ _____    ______ ____
ROOT
ATOM      1  C   UNL     1       7.208   6.216  17.507  0.00  0.00    +0.000 A 
ATOM      2  N   UNL     1       7.923   6.350  18.631  0.00  0.00    +0.000 NA
ATOM      3  C   UNL     1       7.508   5.613  19.667  0.00  0.00    +0.000 A 
ATOM      4  N   UNL     1       6.463   4.774  19.684  0.00  0.00    +0.000 NA
ATOM      5  C   UNL     1       5.745   4.652  18.548  0.00  0.00    +0.000 A 
ATOM      6  N   UNL     1       4.680   3.791  18.697  0.00  0.00    +0.000 N 
ATOM      7  C   UNL     1       6.101   5.371  17.401  0.00  0.00    +0.000 A 
ATOM      8 CL   UNL     1       5.268   5.327  15.880  0.00  0.00    +0.000 Cl
ATOM      9  H   UNL     1       4.659   3.331  19.600  0.00  0.00    +0.000 HD
ENDROOT
BRANCH   1  10
ATOM     10  N   UNL     1       7.693   6.930  16.404  0.00  0.00    +0.000 N 
ATOM     11  H   UNL     1       8.464   6.419  15.986  0.00  0.00    +0.000 HD
ATOM     12  H   UNL     1       7.910   7.894  16.634  0.00  0.00    +0.000 HD
ENDBRANCH   1  10
BRANCH   6  13
ATOM     13  C   UNL     1       3.786   3.372  17.642  0.00  0.00    +0.000 C 
BRANCH  13  14
ATOM     14  C   UNL     1       2.308   3.587  17.979  0.00  0.00    +0.000 C 
BRANCH  14  15
ATOM     15  C   UNL     1       2.141   4.885  18.716  0.00  0.00    +0.000 A 
ATOM     16  C   UNL     1       2.447   6.099  18.145  0.00  0.00    +0.000 A 
ATOM     17  N   UNL     1       2.335   7.278  18.782  0.00  0.00    +0.000 NA
ATOM     18  C   UNL     1       1.898   7.259  20.059  0.00  0.00    +0.000 A 
ATOM     19  N   UNL     1       1.620   6.116  20.720  0.00  0.00    +0.000 NA
ATOM     20  C   UNL     1       1.752   4.959  20.036  0.00  0.00    +0.000 A 
BRANCH  18  21
ATOM     21  C   UNL     1       1.686   8.590  20.740  0.00  0.00    +0.000 C 
ATOM     22  C   UNL     1       0.340   9.266  20.567  0.00  0.00    +0.000 C 
ATOM     23  C   UNL     1       0.749   8.755  21.915  0.00  0.00    +0.000 C 
ENDBRANCH  18  21
ENDBRANCH  14  15
ENDBRANCH  13  14
ENDBRANCH   6  13
TORSDOF 5
ENDMDL
MODEL 8
REMARK VINA RESULT:      -6.7      2.486      4.715
REMARK  Name = 
REMARK  5 active torsions:
REMARK  status: ('A' for Active; 'I' for Inactive)
REMARK    1  A    between atoms: N_1  and  C_2
REMARK    2  A    between atoms: N_7  and  C_8
REMARK    3  A    between atoms: C_8  and  C_9
REMARK    4  A    between atoms: C_9  and  C_10
REMARK    5  A    between atoms: C_13  and  C_14
REMARK                            x       y       z     vdW  Elec       q    Type
REMARK                         _______ _______ _______ _____ _____    ______ ____
ROOT
ATOM      1  C   UNL     1       6.985   5.531  16.911  0.00  0.00    +0.000 A 
ATOM      2  N   UNL     1       7.913   6.139  17.661  0.00  0.00    +0.000 NA
ATOM      3  C   UNL     1       7.780   5.977  18.982  0.00  0.00    +0.000 A 
ATOM      4  N   UNL     1       6.822   5.282  19.610  0.00  0.00    +0.000 NA
ATOM      5  C   UNL     1       5.888   4.679  18.846  0.00  0.00    +0.000 A 
ATOM      6  N   UNL     1       4.940   4.025  19.602  0.00  0.00    +0.000 N 
ATOM      7  C   UNL     1       5.941   4.776  17.450  0.00  0.00    +0.000 A 
ATOM      8 CL   UNL     1       4.807   4.070  16.344  0.00  0.00    +0.000 Cl
ATOM      9  H   UNL     1       5.144   4.033  20.595  0.00  0.00    +0.000 HD
ENDROOT
BRANCH   1  10
ATOM     10  N   UNL     1       7.173   5.638  15.527  0.00  0.00    +0.000 N 
ATOM     11  H   UNL     1       6.653   4.903  15.060  0.00  0.00    +0.000 HD
ATOM     12  H   UNL     1       8.155   5.679  15.274  0.00  0.00    +0.000 HD
ENDBRANCH   1  10
BRANCH   6  13
ATOM     13  C   UNL     1       3.872   3.204  19.081  0.00  0.00    +0.000 C 
BRANCH  13  14
ATOM     14  C   UNL     1       2.482   3.656  19.538  0.00  0.00    +0.000 C 
BRANCH  14  15
ATOM     15  C   UNL     1       2.317   5.126  19.276  0.00  0.00    +0.000 A 
ATOM     16  C   UNL     1       2.415   5.662  18.012  0.00  0.00    +0.000 A 
ATOM     17  N   UNL     1       2.298   6.975  17.743  0.00  0.00    +0.000 NA
ATOM     18  C   UNL     1       2.075   7.808  18.781  0.00  0.00    +0.000 A 
ATOM     19  N   UNL     1       2.013   7.382  20.060  0.00  0.00    +0.000 NA
ATOM     20  C   UNL     1       2.139   6.056  20.277  0.00  0.00    +0.000 A 
BRANCH  18  21
ATOM     21  C   UNL     1       1.854   9.267  18.464  0.00  0.00    +0.000 C 
ATOM     22  C   UNL     1       0.450   9.706  18.097  0.00  0.00    +0.000 C 
ATOM     23  C   UNL     1       1.067  10.181  19.377  0.00  0.00    +0.000 C 
ENDBRANCH  18  21
ENDBRANCH  14  15
ENDBRANCH  13  14
ENDBRANCH   6  13
TORSDOF 5
ENDMDL
MODEL 9
REMARK VINA RESULT:      -6.6      1.968      6.818
REMARK  Name = 
REMARK  5 active torsions:
REMARK  status: ('A' for Active; 'I' for Inactive)
REMARK    1  A    between atoms: N_1  and  C_2
REMARK    2  A    between atoms: N_7  and  C_8
REMARK    3  A    between atoms: C_8  and  C_9
REMARK    4  A    between atoms: C_9  and  C_10
REMARK    5  A    between atoms: C_13  and  C_14
REMARK                            x       y       z     vdW  Elec       q    Type
REMARK                         _______ _______ _______ _____ _____    ______ ____
ROOT
ATOM      1  C   UNL     1       2.195   3.605  18.556  0.00  0.00    +0.000 A 
ATOM      2  N   UNL     1       1.926   2.558  19.347  0.00  0.00    +0.000 NA
ATOM      3  C   UNL     1       2.961   2.091  20.053  0.00  0.00    +0.000 A 
ATOM      4  N   UNL     1       4.216   2.561  20.039  0.00  0.00    +0.000 NA
ATOM      5  C   UNL     1       4.478   3.611  19.233  0.00  0.00    +0.000 A 
ATOM      6  N   UNL     1       5.804   3.982  19.278  0.00  0.00    +0.000 N 
ATOM      7  C   UNL     1       3.462   4.184  18.459  0.00  0.00    +0.000 A 
ATOM      8 CL   UNL     1       3.653   5.521  17.370  0.00  0.00    +0.000 Cl
ATOM      9  H   UNL     1       6.343   3.465  19.965  0.00  0.00    +0.000 HD
ENDROOT
BRANCH   1  10
ATOM     10  N   UNL     1       1.092   4.138  17.877  0.00  0.00    +0.000 N 
ATOM     11  H   UNL     1       1.092   3.800  16.920  0.00  0.00    +0.000 HD
ATOM     12  H   UNL     1       1.039   5.148  17.962  0.00  0.00    +0.000 HD
ENDBRANCH   1  10
BRANCH   6  13
ATOM     13  C   UNL     1       6.378   5.128  18.611  0.00  0.00    +0.000 C 
BRANCH  13  14
ATOM     14  C   UNL     1       7.597   4.782  17.752  0.00  0.00    +0.000 C 
BRANCH  14  15
ATOM     15  C   UNL     1       7.167   4.556  16.331  0.00  0.00    +0.000 A 
ATOM     16  C   UNL     1       7.652   5.310  15.287  0.00  0.00    +0.000 A 
ATOM     17  N   UNL     1       7.270   5.153  14.008  0.00  0.00    +0.000 NA
ATOM     18  C   UNL     1       6.355   4.198  13.740  0.00  0.00    +0.000 A 
ATOM     19  N   UNL     1       5.786   3.442  14.702  0.00  0.00    +0.000 NA
ATOM     20  C   UNL     1       6.201   3.641  15.972  0.00  0.00    +0.000 A 
BRANCH  18  21
ATOM     21  C   UNL     1       5.999   3.964  12.292  0.00  0.00    +0.000 C 
ATOM     22  C   UNL     1       6.443   2.661  11.657  0.00  0.00    +0.000 C 
ATOM     23  C   UNL     1       4.983   2.926  11.869  0.00  0.00    +0.000 C 
ENDBRANCH  18  21
ENDBRANCH  14  15
ENDBRANCH  13  14
ENDBRANCH   6  13
TORSDOF 5
ENDMDL
