MODEL 1
REMARK VINA RESULT:      -7.0      0.000      0.000
REMARK  Name = 
REMARK  8 active torsions:
REMARK  status: ('A' for Active; 'I' for Inactive)
REMARK    1  A    between atoms: C_1  and  O_2
REMARK    2  A    between atoms: O_2  and  C_3
REMARK    3  A    between atoms: C_6  and  C_7
REMARK    4  A    between atoms: C_8  and  C_9
REMARK    5  A    between atoms: C_9  and  O_11
REMARK    6  A    between atoms: C_12  and  C_13
REMARK    7  A    between atoms: C_24  and  O_25
REMARK    8  A    between atoms: O_25  and  C_26
REMARK                            x       y       z     vdW  Elec       q    Type
REMARK                         _______ _______ _______ _____ _____    ______ ____
ROOT
ATOM      1  C   UNL     1      -0.282  11.107  20.016  0.00  0.00    +0.000 C 
ATOM      2  C   UNL     1      -1.106  11.544  19.020  0.00  0.00    +0.000 C 
ATOM      3  C   UNL     1      -1.559  12.975  19.015  0.00  0.00    +0.000 C 
ATOM      4  O   UNL     1      -2.430  13.110  20.157  0.00  0.00    +0.000 OA
ATOM      5  C   UNL     1      -2.068  12.190  21.253  0.00  0.00    +0.000 A 
ATOM      6  C   UNL     1      -2.768  12.612  22.377  0.00  0.00    +0.000 A 
ATOM      7  C   UNL     1      -2.124  13.555  23.133  0.00  0.00    +0.000 A 
ATOM      8  C   UNL     1      -0.749  13.740  22.899  0.00  0.00    +0.000 A 
ATOM      9  C   UNL     1      -0.007  12.877  22.016  0.00  0.00    +0.000 A 
ATOM     10  C   UNL     1      -0.680  11.938  21.232  0.00  0.00    +0.000 A 
ENDROOT
BRANCH   3  11
ATOM     11  C   UNL     1      -0.344  13.941  18.832  0.00  0.00    +0.000 A 
ATOM     12  C   UNL     1      -0.445  15.283  19.335  0.00  0.00    +0.000 A 
ATOM     13  C   UNL     1       0.644  16.148  19.428  0.00  0.00    +0.000 A 
ATOM     14  C   UNL     1       1.858  15.639  19.061  0.00  0.00    +0.000 A 
ATOM     15  C   UNL     1       1.984  14.373  18.524  0.00  0.00    +0.000 A 
ATOM     16  C   UNL     1       0.904  13.515  18.355  0.00  0.00    +0.000 A 
ATOM     17  O   UNL     1       3.297  14.071  18.294  0.00  0.00    +0.000 OA
ATOM     18  C   UNL     1       3.929  15.128  19.052  0.00  0.00    +0.000 C 
ATOM     19  O   UNL     1       3.056  16.254  19.255  0.00  0.00    +0.000 OA
ENDBRANCH   3  11
BRANCH   1  23
ATOM     20  C   UNL     1       2.116   7.495  19.701  0.00  0.00    +0.000 A 
ATOM     21  C   UNL     1       1.305   7.745  20.790  0.00  0.00    +0.000 A 
ATOM     22  C   UNL     1       0.417   8.820  20.770  0.00  0.00    +0.000 A 
ATOM     23  C   UNL     1       0.401   9.795  19.737  0.00  0.00    +0.000 A 
ATOM     24  C   UNL     1       1.133   9.465  18.594  0.00  0.00    +0.000 A 
ATOM     25  C   UNL     1       1.984   8.318  18.578  0.00  0.00    +0.000 A 
BRANCH  20  27
ATOM     26  C   UNL     1       2.429   5.192  20.297  0.00  0.00    +0.000 C 
ATOM     27  O   UNL     1       2.962   6.445  19.902  0.00  0.00    +0.000 OA
ENDBRANCH  20  27
ENDBRANCH   1  23
BRANCH   2  28
ATOM     28  C   UNL     1      -1.823  10.733  18.003  0.00  0.00    +0.000 C 
ATOM     29  O   UNL     1      -2.486   9.755  18.291  0.00  0.00    +0.000 OA
BRANCH  28  30
ATOM     30  O   UNL     1      -1.554  11.103  16.736  0.00  0.00    +0.000 OA
ATOM     31  H   UNL     1      -0.641  11.393  16.587  0.00  0.00    +0.000 HD
ENDBRANCH  28  30
ENDBRANCH   2  28
BRANCH   6  32
ATOM     32  O   UNL     1      -4.065  12.263  22.613  0.00  0.00    +0.000 OA
ATOM     33  C   UNL     1      -4.632  13.023  23.695  0.00  0.00    +0.000 C 
ENDBRANCH   6  32
TORSDOF 6
ENDMDL
MODEL 2
REMARK VINA RESULT:      -6.8      2.184      6.079
REMARK  Name = 
REMARK  8 active torsions:
REMARK  status: ('A' for Active; 'I' for Inactive)
REMARK    1  A    between atoms: C_1  and  O_2
REMARK    2  A    between atoms: O_2  and  C_3
REMARK    3  A    between atoms: C_6  and  C_7
REMARK    4  A    between atoms: C_8  and  C_9
REMARK    5  A    between atoms: C_9  and  O_11
REMARK    6  A    between atoms: C_12  and  C_13
REMARK    7  A    between atoms: C_24  and  O_25
REMARK    8  A    between atoms: O_25  and  C_26
REMARK                            x       y       z     vdW  Elec       q    Type
REMARK                         _______ _______ _______ _____ _____    ______ ____
ROOT
ATOM      1  C   UNL     1      -1.390  12.356  19.690  0.00  0.00    +0.000 C 
ATOM      2  C   UNL     1      -0.679  11.576  20.555  0.00  0.00    +0.000 C 
ATOM      3  C   UNL     1      -0.105  12.192  21.798  0.00  0.00    +0.000 C 
ATOM      4  O   UNL     1       0.928  13.092  21.345  0.00  0.00    +0.000 OA
ATOM      5  C   UNL     1       0.643  13.646  20.006  0.00  0.00    +0.000 A 
ATOM      6  C   UNL     1       1.530  14.698  19.813  0.00  0.00    +0.000 A 
ATOM      7  C   UNL     1       1.086  15.913  20.264  0.00  0.00    +0.000 A 
ATOM      8  C   UNL     1      -0.287  16.031  20.550  0.00  0.00    +0.000 A 
ATOM      9  C   UNL     1      -1.220  14.978  20.242  0.00  0.00    +0.000 A 
ATOM     10  C   UNL     1      -0.751  13.737  19.808  0.00  0.00    +0.000 A 
ENDROOT
BRANCH   3  11
ATOM     11  C   UNL     1      -1.242  12.707  22.738  0.00  0.00    +0.000 A 
ATOM     12  C   UNL     1      -1.054  13.949  23.437  0.00  0.00    +0.000 A 
ATOM     13  C   UNL     1      -2.079  14.607  24.114  0.00  0.00    +0.000 A 
ATOM     14  C   UNL     1      -3.319  14.038  24.042  0.00  0.00    +0.000 A 
ATOM     15  C   UNL     1      -3.526  12.820  23.426  0.00  0.00    +0.000 A 
ATOM     16  C   UNL     1      -2.508  12.107  22.803  0.00  0.00    +0.000 A 
ATOM     17  O   UNL     1      -4.853  12.491  23.432  0.00  0.00    +0.000 OA
ATOM     18  C   UNL     1      -5.422  13.768  23.799  0.00  0.00    +0.000 C 
ATOM     19  O   UNL     1      -4.474  14.617  24.471  0.00  0.00    +0.000 OA
ENDBRANCH   3  11
BRANCH   1  23
ATOM     20  C   UNL     1      -3.572  10.609  16.361  0.00  0.00    +0.000 A 
ATOM     21  C   UNL     1      -2.194  10.556  16.445  0.00  0.00    +0.000 A 
ATOM     22  C   UNL     1      -1.547  10.964  17.610  0.00  0.00    +0.000 A 
ATOM     23  C   UNL     1      -2.219  11.593  18.692  0.00  0.00    +0.000 A 
ATOM     24  C   UNL     1      -3.614  11.528  18.647  0.00  0.00    +0.000 A 
ATOM     25  C   UNL     1      -4.284  11.035  17.486  0.00  0.00    +0.000 A 
BRANCH  20  27
ATOM     26  C   UNL     1      -3.125  10.029  14.076  0.00  0.00    +0.000 C 
ATOM     27  O   UNL     1      -4.042  10.230  15.139  0.00  0.00    +0.000 OA
ENDBRANCH  20  27
ENDBRANCH   1  23
BRANCH   2  28
ATOM     28  C   UNL     1      -0.188  10.190  20.346  0.00  0.00    +0.000 C 
ATOM     29  O   UNL     1      -0.759   9.216  20.797  0.00  0.00    +0.000 OA
BRANCH  28  30
ATOM     30  O   UNL     1       1.011  10.134  19.733  0.00  0.00    +0.000 OA
ATOM     31  H   UNL     1       1.064  10.637  18.906  0.00  0.00    +0.000 HD
ENDBRANCH  28  30
ENDBRANCH   2  28
BRANCH   6  32
ATOM     32  O   UNL     1       2.810  14.515  19.382  0.00  0.00    +0.000 OA
ATOM     33  C   UNL     1       2.898  13.464  18.403  0.00  0.00    +0.000 C 
ENDBRANCH   6  32
TORSDOF 6
ENDMDL
MODEL 3
REMARK VINA RESULT:      -6.8      2.291      5.170
REMARK  Name = 
REMARK  8 active torsions:
REMARK  status: ('A' for Active; 'I' for Inactive)
REMARK    1  A    between atoms: C_1  and  O_2
REMARK    2  A    between atoms: O_2  and  C_3
REMARK    3  A    between atoms: C_6  and  C_7
REMARK    4  A    between atoms: C_8  and  C_9
REMARK    5  A    between atoms: C_9  and  O_11
REMARK    6  A    between atoms: C_12  and  C_13
REMARK    7  A    between atoms: C_24  and  O_25
REMARK    8  A    between atoms: O_25  and  C_26
REMARK                            x       y       z     vdW  Elec       q    Type
REMARK                         _______ _______ _______ _____ _____    ______ ____
ROOT
ATOM      1  C   UNL     1       0.989  10.191  19.731  0.00  0.00    +0.000 C 
ATOM      2  C   UNL     1       0.071  10.151  20.740  0.00  0.00    +0.000 C 
ATOM      3  C   UNL     1      -0.926  11.265  20.871  0.00  0.00    +0.000 C 
ATOM      4  O   UNL     1      -0.163  12.427  21.255  0.00  0.00    +0.000 OA
ATOM      5  C   UNL     1       1.219  12.391  20.733  0.00  0.00    +0.000 A 
ATOM      6  C   UNL     1       1.745  13.664  20.909  0.00  0.00    +0.000 A 
ATOM      7  C   UNL     1       1.517  14.528  19.871  0.00  0.00    +0.000 A 
ATOM      8  C   UNL     1       1.093  13.970  18.650  0.00  0.00    +0.000 A 
ATOM      9  C   UNL     1       1.046  12.546  18.442  0.00  0.00    +0.000 A 
ATOM     10  C   UNL     1       1.255  11.678  19.516  0.00  0.00    +0.000 A 
ENDROOT
BRANCH   3  11
ATOM     11  C   UNL     1      -1.866  11.318  19.624  0.00  0.00    +0.000 A 
ATOM     12  C   UNL     1      -1.756  10.285  18.630  0.00  0.00    +0.000 A 
ATOM     13  C   UNL     1      -2.684  10.109  17.606  0.00  0.00    +0.000 A 
ATOM     14  C   UNL     1      -3.764  10.947  17.613  0.00  0.00    +0.000 A 
ATOM     15  C   UNL     1      -3.876  11.983  18.518  0.00  0.00    +0.000 A 
ATOM     16  C   UNL     1      -2.929  12.225  19.507  0.00  0.00    +0.000 A 
ATOM     17  O   UNL     1      -5.065  12.639  18.363  0.00  0.00    +0.000 OA
ATOM     18  C   UNL     1      -5.762  11.689  17.526  0.00  0.00    +0.000 C 
ATOM     19  O   UNL     1      -4.862  10.817  16.819  0.00  0.00    +0.000 OA
ENDBRANCH   3  11
BRANCH   1  23
ATOM     20  C   UNL     1       2.477   6.280  18.554  0.00  0.00    +0.000 A 
ATOM     21  C   UNL     1       2.431   7.343  17.675  0.00  0.00    +0.000 A 
ATOM     22  C   UNL     1       2.122   8.622  18.136  0.00  0.00    +0.000 A 
ATOM     23  C   UNL     1       1.685   8.884  19.462  0.00  0.00    +0.000 A 
ATOM     24  C   UNL     1       1.853   7.830  20.365  0.00  0.00    +0.000 A 
ATOM     25  C   UNL     1       2.250   6.536  19.910  0.00  0.00    +0.000 A 
BRANCH  20  27
ATOM     26  C   UNL     1       1.678   4.175  17.724  0.00  0.00    +0.000 C 
ATOM     27  O   UNL     1       2.738   5.093  17.936  0.00  0.00    +0.000 OA
ENDBRANCH  20  27
ENDBRANCH   1  23
BRANCH   2  28
ATOM     28  C   UNL     1       0.034   9.234  21.908  0.00  0.00    +0.000 C 
ATOM     29  O   UNL     1      -0.765   8.322  22.002  0.00  0.00    +0.000 OA
BRANCH  28  30
ATOM     30  O   UNL     1       0.872   9.595  22.899  0.00  0.00    +0.000 OA
ATOM     31  H   UNL     1       1.802   9.375  22.740  0.00  0.00    +0.000 HD
ENDBRANCH  28  30
ENDBRANCH   2  28
BRANCH   6  32
ATOM     32  O   UNL     1       2.283  14.085  22.089  0.00  0.00    +0.000 OA
ATOM     33  C   UNL     1       3.255  15.126  21.891  0.00  0.00    +0.000 C 
ENDBRANCH   6  32
TORSDOF 6
ENDMDL
MODEL 4
REMARK VINA RESULT:      -6.7      2.167      5.999
REMARK  Name = 
REMARK  8 active torsions:
REMARK  status: ('A' for Active; 'I' for Inactive)
REMARK    1  A    between atoms: C_1  and  O_2
REMARK    2  A    between atoms: O_2  and  C_3
REMARK    3  A    between atoms: C_6  and  C_7
REMARK    4  A    between atoms: C_8  and  C_9
REMARK    5  A    between atoms: C_9  and  O_11
REMARK    6  A    between atoms: C_12  and  C_13
REMARK    7  A    between atoms: C_24  and  O_25
REMARK    8  A    between atoms: O_25  and  C_26
REMARK                            x       y       z     vdW  Elec       q    Type
REMARK                         _______ _______ _______ _____ _____    ______ ____
ROOT
ATOM      1  C   UNL     1      -1.067  12.242  19.131  0.00  0.00    +0.000 C 
ATOM      2  C   UNL     1      -0.424  11.500  20.079  0.00  0.00    +0.000 C 
ATOM      3  C   UNL     1       0.285  12.198  21.203  0.00  0.00    +0.000 C 
ATOM      4  O   UNL     1       1.404  12.876  20.594  0.00  0.00    +0.000 OA
ATOM      5  C   UNL     1       1.130  13.272  19.198  0.00  0.00    +0.000 A 
ATOM      6  C   UNL     1       2.138  14.155  18.829  0.00  0.00    +0.000 A 
ATOM      7  C   UNL     1       1.880  15.470  19.112  0.00  0.00    +0.000 A 
ATOM      8  C   UNL     1       0.550  15.814  19.418  0.00  0.00    +0.000 A 
ATOM      9  C   UNL     1      -0.528  14.867  19.293  0.00  0.00    +0.000 A 
ATOM     10  C   UNL     1      -0.248  13.524  19.029  0.00  0.00    +0.000 A 
ENDROOT
BRANCH   3  11
ATOM     11  C   UNL     1      -0.728  12.991  22.090  0.00  0.00    +0.000 A 
ATOM     12  C   UNL     1      -1.989  12.382  22.414  0.00  0.00    +0.000 A 
ATOM     13  C   UNL     1      -2.862  12.896  23.371  0.00  0.00    +0.000 A 
ATOM     14  C   UNL     1      -2.438  14.005  24.047  0.00  0.00    +0.000 A 
ATOM     15  C   UNL     1      -1.259  14.648  23.726  0.00  0.00    +0.000 A 
ATOM     16  C   UNL     1      -0.403  14.196  22.729  0.00  0.00    +0.000 A 
ATOM     17  O   UNL     1      -1.025  15.690  24.579  0.00  0.00    +0.000 OA
ATOM     18  C   UNL     1      -1.989  15.384  25.612  0.00  0.00    +0.000 C 
ATOM     19  O   UNL     1      -3.054  14.542  25.136  0.00  0.00    +0.000 OA
ENDBRANCH   3  11
BRANCH   1  23
ATOM     20  C   UNL     1      -3.654  10.398  16.163  0.00  0.00    +0.000 A 
ATOM     21  C   UNL     1      -2.284  10.226  16.151  0.00  0.00    +0.000 A 
ATOM     22  C   UNL     1      -1.511  10.680  17.220  0.00  0.00    +0.000 A 
ATOM     23  C   UNL     1      -2.037  11.468  18.278  0.00  0.00    +0.000 A 
ATOM     24  C   UNL     1      -3.431  11.529  18.341  0.00  0.00    +0.000 A 
ATOM     25  C   UNL     1      -4.233  10.993  17.288  0.00  0.00    +0.000 A 
BRANCH  20  27
ATOM     26  C   UNL     1      -3.543  10.014  13.797  0.00  0.00    +0.000 C 
ATOM     27  O   UNL     1      -4.253   9.950  15.023  0.00  0.00    +0.000 OA
ENDBRANCH  20  27
ENDBRANCH   1  23
BRANCH   2  28
ATOM     28  C   UNL     1      -0.131  10.044  20.059  0.00  0.00    +0.000 C 
ATOM     29  O   UNL     1      -0.702   9.249  20.779  0.00  0.00    +0.000 OA
BRANCH  28  30
ATOM     30  O   UNL     1       0.913   9.720  19.271  0.00  0.00    +0.000 OA
ATOM     31  H   UNL     1       0.667   9.347  18.411  0.00  0.00    +0.000 HD
ENDBRANCH  28  30
ENDBRANCH   2  28
BRANCH   6  32
ATOM     32  O   UNL     1       3.361  13.739  18.393  0.00  0.00    +0.000 OA
ATOM     33  C   UNL     1       4.260  14.845  18.196  0.00  0.00    +0.000 C 
ENDBRANCH   6  32
TORSDOF 6
ENDMDL
MODEL 5
REMARK VINA RESULT:      -6.7      1.090      1.677
REMARK  Name = 
REMARK  8 active torsions:
REMARK  status: ('A' for Active; 'I' for Inactive)
REMARK    1  A    between atoms: C_1  and  O_2
REMARK    2  A    between atoms: O_2  and  C_3
REMARK    3  A    between atoms: C_6  and  C_7
REMARK    4  A    between atoms: C_8  and  C_9
REMARK    5  A    between atoms: C_9  and  O_11
REMARK    6  A    between atoms: C_12  and  C_13
REMARK    7  A    between atoms: C_24  and  O_25
REMARK    8  A    between atoms: O_25  and  C_26
REMARK                            x       y       z     vdW  Elec       q    Type
REMARK                         _______ _______ _______ _____ _____    ______ ____
ROOT
ATOM      1  C   UNL     1      -0.649  11.570  20.369  0.00  0.00    +0.000 C 
ATOM      2  C   UNL     1      -1.360  12.172  19.371  0.00  0.00    +0.000 C 
ATOM      3  C   UNL     1      -1.814  13.593  19.546  0.00  0.00    +0.000 C 
ATOM      4  O   UNL     1      -2.805  13.558  20.593  0.00  0.00    +0.000 OA
ATOM      5  C   UNL     1      -2.563  12.470  21.562  0.00  0.00    +0.000 A 
ATOM      6  C   UNL     1      -3.383  12.719  22.655  0.00  0.00    +0.000 A 
ATOM      7  C   UNL     1      -2.829  13.520  23.618  0.00  0.00    +0.000 A 
ATOM      8  C   UNL     1      -1.436  13.718  23.567  0.00  0.00    +0.000 A 
ATOM      9  C   UNL     1      -0.600  12.995  22.644  0.00  0.00    +0.000 A 
ATOM     10  C   UNL     1      -1.180  12.203  21.651  0.00  0.00    +0.000 A 
ENDROOT
BRANCH   3  11
ATOM     11  C   UNL     1      -0.588  14.557  19.653  0.00  0.00    +0.000 A 
ATOM     12  C   UNL     1       0.577  14.286  18.857  0.00  0.00    +0.000 A 
ATOM     13  C   UNL     1       1.625  15.192  18.705  0.00  0.00    +0.000 A 
ATOM     14  C   UNL     1       1.475  16.405  19.317  0.00  0.00    +0.000 A 
ATOM     15  C   UNL     1       0.395  16.679  20.133  0.00  0.00    +0.000 A 
ATOM     16  C   UNL     1      -0.630  15.769  20.358  0.00  0.00    +0.000 A 
ATOM     17  O   UNL     1       0.439  17.971  20.579  0.00  0.00    +0.000 OA
ATOM     18  C   UNL     1       1.443  18.506  19.686  0.00  0.00    +0.000 C 
ATOM     19  O   UNL     1       2.289  17.480  19.136  0.00  0.00    +0.000 OA
ENDBRANCH   3  11
BRANCH   1  23
ATOM     20  C   UNL     1       1.823   8.057  19.703  0.00  0.00    +0.000 A 
ATOM     21  C   UNL     1       0.989   8.172  20.798  0.00  0.00    +0.000 A 
ATOM     22  C   UNL     1       0.081   9.226  20.880  0.00  0.00    +0.000 A 
ATOM     23  C   UNL     1       0.063  10.309  19.960  0.00  0.00    +0.000 A 
ATOM     24  C   UNL     1       0.820  10.120  18.801  0.00  0.00    +0.000 A 
ATOM     25  C   UNL     1       1.693   8.996  18.675  0.00  0.00    +0.000 A 
BRANCH  20  27
ATOM     26  C   UNL     1       2.175   5.717  20.101  0.00  0.00    +0.000 C 
ATOM     27  O   UNL     1       2.686   7.006  19.803  0.00  0.00    +0.000 OA
ENDBRANCH  20  27
ENDBRANCH   1  23
BRANCH   2  28
ATOM     28  C   UNL     1      -1.959  11.544  18.167  0.00  0.00    +0.000 C 
ATOM     29  O   UNL     1      -2.673  10.561  18.224  0.00  0.00    +0.000 OA
BRANCH  28  30
ATOM     30  O   UNL     1      -1.526  12.083  17.010  0.00  0.00    +0.000 OA
ATOM     31  H   UNL     1      -0.639  11.798  16.741  0.00  0.00    +0.000 HD
ENDBRANCH  28  30
ENDBRANCH   2  28
BRANCH   6  32
ATOM     32  O   UNL     1      -4.697  12.356  22.690  0.00  0.00    +0.000 OA
ATOM     33  C   UNL     1      -5.430  13.104  23.677  0.00  0.00    +0.000 C 
ENDBRANCH   6  32
TORSDOF 6
ENDMDL
MODEL 6
REMARK VINA RESULT:      -6.6      2.044      5.365
REMARK  Name = 
REMARK  8 active torsions:
REMARK  status: ('A' for Active; 'I' for Inactive)
REMARK    1  A    between atoms: C_1  and  O_2
REMARK    2  A    between atoms: O_2  and  C_3
REMARK    3  A    between atoms: C_6  and  C_7
REMARK    4  A    between atoms: C_8  and  C_9
REMARK    5  A    between atoms: C_9  and  O_11
REMARK    6  A    between atoms: C_12  and  C_13
REMARK    7  A    between atoms: C_24  and  O_25
REMARK    8  A    between atoms: O_25  and  C_26
REMARK                            x       y       z     vdW  Elec       q    Type
REMARK                         _______ _______ _______ _____ _____    ______ ____
ROOT
ATOM      1  C   UNL     1      -0.499  10.114  19.076  0.00  0.00    +0.000 C 
ATOM      2  C   UNL     1      -0.230  11.452  19.070  0.00  0.00    +0.000 C 
ATOM      3  C   UNL     1      -1.367  12.430  19.145  0.00  0.00    +0.000 C 
ATOM      4  O   UNL     1      -2.076  12.298  17.896  0.00  0.00    +0.000 OA
ATOM      5  C   UNL     1      -1.977  10.936  17.334  0.00  0.00    +0.000 A 
ATOM      6  C   UNL     1      -2.921  10.855  16.318  0.00  0.00    +0.000 A 
ATOM      7  C   UNL     1      -4.167  10.454  16.722  0.00  0.00    +0.000 A 
ATOM      8  C   UNL     1      -4.272   9.867  17.997  0.00  0.00    +0.000 A 
ATOM      9  C   UNL     1      -3.109   9.556  18.788  0.00  0.00    +0.000 A 
ATOM     10  C   UNL     1      -1.849   9.993  18.376  0.00  0.00    +0.000 A 
ENDROOT
BRANCH   3  11
ATOM     11  C   UNL     1      -2.129  12.292  20.502  0.00  0.00    +0.000 A 
ATOM     12  C   UNL     1      -1.394  11.899  21.672  0.00  0.00    +0.000 A 
ATOM     13  C   UNL     1      -1.920  11.963  22.961  0.00  0.00    +0.000 A 
ATOM     14  C   UNL     1      -3.180  12.478  23.080  0.00  0.00    +0.000 A 
ATOM     15  C   UNL     1      -3.935  12.815  21.974  0.00  0.00    +0.000 A 
ATOM     16  C   UNL     1      -3.461  12.696  20.673  0.00  0.00    +0.000 A 
ATOM     17  O   UNL     1      -5.131  13.361  22.350  0.00  0.00    +0.000 OA
ATOM     18  C   UNL     1      -4.857  13.616  23.746  0.00  0.00    +0.000 C 
ATOM     19  O   UNL     1      -3.790  12.795  24.255  0.00  0.00    +0.000 OA
ENDBRANCH   3  11
BRANCH   1  23
ATOM     20  C   UNL     1       2.620   7.120  19.533  0.00  0.00    +0.000 A 
ATOM     21  C   UNL     1       2.399   7.774  18.337  0.00  0.00    +0.000 A 
ATOM     22  C   UNL     1       1.516   8.852  18.279  0.00  0.00    +0.000 A 
ATOM     23  C   UNL     1       0.688   9.235  19.368  0.00  0.00    +0.000 A 
ATOM     24  C   UNL     1       1.007   8.651  20.596  0.00  0.00    +0.000 A 
ATOM     25  C   UNL     1       1.971   7.600  20.675  0.00  0.00    +0.000 A 
BRANCH  20  27
ATOM     26  C   UNL     1       3.402   5.259  18.236  0.00  0.00    +0.000 C 
ATOM     27  O   UNL     1       3.464   6.057  19.407  0.00  0.00    +0.000 OA
ENDBRANCH  20  27
ENDBRANCH   1  23
BRANCH   2  28
ATOM     28  C   UNL     1       1.062  12.124  18.783  0.00  0.00    +0.000 C 
ATOM     29  O   UNL     1       1.976  12.163  19.584  0.00  0.00    +0.000 OA
BRANCH  28  30
ATOM     30  O   UNL     1       1.068  12.796  17.614  0.00  0.00    +0.000 OA
ATOM     31  H   UNL     1       0.244  13.268  17.418  0.00  0.00    +0.000 HD
ENDBRANCH  28  30
ENDBRANCH   2  28
BRANCH   6  32
ATOM     32  O   UNL     1      -2.687  11.311  15.054  0.00  0.00    +0.000 OA
ATOM     33  C   UNL     1      -3.073  10.346  14.059  0.00  0.00    +0.000 C 
ENDBRANCH   6  32
TORSDOF 6
ENDMDL
MODEL 7
REMARK VINA RESULT:      -6.5      2.211      4.860
REMARK  Name = 
REMARK  8 active torsions:
REMARK  status: ('A' for Active; 'I' for Inactive)
REMARK    1  A    between atoms: C_1  and  O_2
REMARK    2  A    between atoms: O_2  and  C_3
REMARK    3  A    between atoms: C_6  and  C_7
REMARK    4  A    between atoms: C_8  and  C_9
REMARK    5  A    between atoms: C_9  and  O_11
REMARK    6  A    between atoms: C_12  and  C_13
REMARK    7  A    between atoms: C_24  and  O_25
REMARK    8  A    between atoms: O_25  and  C_26
REMARK                            x       y       z     vdW  Elec       q    Type
REMARK                         _______ _______ _______ _____ _____    ______ ____
ROOT
ATOM      1  C   UNL     1       0.860  10.043  19.702  0.00  0.00    +0.000 C 
ATOM      2  C   UNL     1      -0.064   9.965  20.703  0.00  0.00    +0.000 C 
ATOM      3  C   UNL     1      -1.144  11.005  20.790  0.00  0.00    +0.000 C 
ATOM      4  O   UNL     1      -0.474  12.232  21.145  0.00  0.00    +0.000 OA
ATOM      5  C   UNL     1       0.912  12.283  20.637  0.00  0.00    +0.000 A 
ATOM      6  C   UNL     1       1.340  13.598  20.778  0.00  0.00    +0.000 A 
ATOM      7  C   UNL     1       1.059  14.410  19.711  0.00  0.00    +0.000 A 
ATOM      8  C   UNL     1       0.693  13.785  18.504  0.00  0.00    +0.000 A 
ATOM      9  C   UNL     1       0.754  12.355  18.341  0.00  0.00    +0.000 A 
ATOM     10  C   UNL     1       1.016  11.539  19.443  0.00  0.00    +0.000 A 
ENDROOT
BRANCH   3  11
ATOM     11  C   UNL     1      -2.071  10.948  19.533  0.00  0.00    +0.000 A 
ATOM     12  C   UNL     1      -3.036  11.994  19.337  0.00  0.00    +0.000 A 
ATOM     13  C   UNL     1      -3.748  12.163  18.151  0.00  0.00    +0.000 A 
ATOM     14  C   UNL     1      -3.447  11.303  17.133  0.00  0.00    +0.000 A 
ATOM     15  C   UNL     1      -2.566  10.254  17.302  0.00  0.00    +0.000 A 
ATOM     16  C   UNL     1      -1.894  10.020  18.496  0.00  0.00    +0.000 A 
ATOM     17  O   UNL     1      -2.386   9.575  16.130  0.00  0.00    +0.000 OA
ATOM     18  C   UNL     1      -2.971  10.521  15.206  0.00  0.00    +0.000 C 
ATOM     19  O   UNL     1      -3.891  11.420  15.851  0.00  0.00    +0.000 OA
ENDBRANCH   3  11
BRANCH   1  23
ATOM     20  C   UNL     1       2.670   6.239  18.629  0.00  0.00    +0.000 A 
ATOM     21  C   UNL     1       2.611   7.300  17.746  0.00  0.00    +0.000 A 
ATOM     22  C   UNL     1       2.191   8.555  18.185  0.00  0.00    +0.000 A 
ATOM     23  C   UNL     1       1.655   8.785  19.480  0.00  0.00    +0.000 A 
ATOM     24  C   UNL     1       1.833   7.742  20.394  0.00  0.00    +0.000 A 
ATOM     25  C   UNL     1       2.341   6.478  19.967  0.00  0.00    +0.000 A 
BRANCH  20  27
ATOM     26  C   UNL     1       2.078   4.058  17.824  0.00  0.00    +0.000 C 
ATOM     27  O   UNL     1       3.046   5.074  18.031  0.00  0.00    +0.000 OA
ENDBRANCH  20  27
ENDBRANCH   1  23
BRANCH   2  28
ATOM     28  C   UNL     1      -0.046   9.084  21.898  0.00  0.00    +0.000 C 
ATOM     29  O   UNL     1      -0.791   8.131  22.023  0.00  0.00    +0.000 OA
BRANCH  28  30
ATOM     30  O   UNL     1       0.772   9.523  22.875  0.00  0.00    +0.000 OA
ATOM     31  H   UNL     1       1.111  10.421  22.741  0.00  0.00    +0.000 HD
ENDBRANCH  28  30
ENDBRANCH   2  28
BRANCH   6  32
ATOM     32  O   UNL     1       1.831  14.093  21.950  0.00  0.00    +0.000 OA
ATOM     33  C   UNL     1       2.731  15.192  21.727  0.00  0.00    +0.000 C 
ENDBRANCH   6  32
TORSDOF 6
ENDMDL
MODEL 8
REMARK VINA RESULT:      -6.5      0.552      1.004
REMARK  Name = 
REMARK  8 active torsions:
REMARK  status: ('A' for Active; 'I' for Inactive)
REMARK    1  A    between atoms: C_1  and  O_2
REMARK    2  A    between atoms: O_2  and  C_3
REMARK    3  A    between atoms: C_6  and  C_7
REMARK    4  A    between atoms: C_8  and  C_9
REMARK    5  A    between atoms: C_9  and  O_11
REMARK    6  A    between atoms: C_12  and  C_13
REMARK    7  A    between atoms: C_24  and  O_25
REMARK    8  A    between atoms: O_25  and  C_26
REMARK                            x       y       z     vdW  Elec       q    Type
REMARK                         _______ _______ _______ _____ _____    ______ ____
ROOT
ATOM      1  C   UNL     1      -0.019  11.143  20.351  0.00  0.00    +0.000 C 
ATOM      2  C   UNL     1      -0.821  11.371  19.271  0.00  0.00    +0.000 C 
ATOM      3  C   UNL     1      -1.392  12.744  19.056  0.00  0.00    +0.000 C 
ATOM      4  O   UNL     1      -2.333  12.945  20.131  0.00  0.00    +0.000 OA
ATOM      5  C   UNL     1      -1.955  12.210  21.355  0.00  0.00    +0.000 A 
ATOM      6  C   UNL     1      -2.749  12.708  22.380  0.00  0.00    +0.000 A 
ATOM      7  C   UNL     1      -2.229  13.795  23.032  0.00  0.00    +0.000 A 
ATOM      8  C   UNL     1      -0.863  14.071  22.836  0.00  0.00    +0.000 A 
ATOM      9  C   UNL     1      -0.004  13.172  22.109  0.00  0.00    +0.000 A 
ATOM     10  C   UNL     1      -0.552  12.083  21.428  0.00  0.00    +0.000 A 
ENDROOT
BRANCH   3  11
ATOM     11  C   UNL     1      -0.254  13.784  18.800  0.00  0.00    +0.000 A 
ATOM     12  C   UNL     1      -0.468  15.152  19.183  0.00  0.00    +0.000 A 
ATOM     13  C   UNL     1       0.549  16.105  19.209  0.00  0.00    +0.000 A 
ATOM     14  C   UNL     1       1.804  15.665  18.898  0.00  0.00    +0.000 A 
ATOM     15  C   UNL     1       2.037  14.372  18.474  0.00  0.00    +0.000 A 
ATOM     16  C   UNL     1       1.030  13.419  18.372  0.00  0.00    +0.000 A 
ATOM     17  O   UNL     1       3.373  14.156  18.281  0.00  0.00    +0.000 OA
ATOM     18  C   UNL     1       3.909  15.321  18.949  0.00  0.00    +0.000 C 
ATOM     19  O   UNL     1       2.948  16.388  19.046  0.00  0.00    +0.000 OA
ENDBRANCH   3  11
BRANCH   1  23
ATOM     20  C   UNL     1       1.927   7.328  19.605  0.00  0.00    +0.000 A 
ATOM     21  C   UNL     1       2.091   8.413  18.766  0.00  0.00    +0.000 A 
ATOM     22  C   UNL     1       1.601   9.665  19.135  0.00  0.00    +0.000 A 
ATOM     23  C   UNL     1       0.785   9.873  20.279  0.00  0.00    +0.000 A 
ATOM     24  C   UNL     1       0.732   8.803  21.176  0.00  0.00    +0.000 A 
ATOM     25  C   UNL     1       1.304   7.538  20.839  0.00  0.00    +0.000 A 
BRANCH  20  27
ATOM     26  C   UNL     1       3.669   5.680  19.512  0.00  0.00    +0.000 C 
ATOM     27  O   UNL     1       2.412   6.170  19.073  0.00  0.00    +0.000 OA
ENDBRANCH  20  27
ENDBRANCH   1  23
BRANCH   2  28
ATOM     28  C   UNL     1      -1.410  10.375  18.341  0.00  0.00    +0.000 C 
ATOM     29  O   UNL     1      -2.330   9.645  18.656  0.00  0.00    +0.000 OA
BRANCH  28  30
ATOM     30  O   UNL     1      -0.742  10.269  17.176  0.00  0.00    +0.000 OA
ATOM     31  H   UNL     1      -0.724  11.082  16.647  0.00  0.00    +0.000 HD
ENDBRANCH  28  30
ENDBRANCH   2  28
BRANCH   6  32
ATOM     32  O   UNL     1      -4.023  12.276  22.604  0.00  0.00    +0.000 OA
ATOM     33  C   UNL     1      -4.968  13.360  22.562  0.00  0.00    +0.000 C 
ENDBRANCH   6  32
TORSDOF 6
ENDMDL
MODEL 9
REMARK VINA RESULT:      -6.4      1.206      1.969
REMARK  Name = 
REMARK  8 active torsions:
REMARK  status: ('A' for Active; 'I' for Inactive)
REMARK    1  A    between atoms: C_1  and  O_2
REMARK    2  A    between atoms: O_2  and  C_3
REMARK    3  A    between atoms: C_6  and  C_7
REMARK    4  A    between atoms: C_8  and  C_9
REMARK    5  A    between atoms: C_9  and  O_11
REMARK    6  A    between atoms: C_12  and  C_13
REMARK    7  A    between atoms: C_24  and  O_25
REMARK    8  A    between atoms: O_25  and  C_26
REMARK                            x       y       z     vdW  Elec       q    Type
REMARK                         _______ _______ _______ _____ _____    ______ ____
ROOT
ATOM      1  C   UNL     1      -0.178  11.731  20.366  0.00  0.00    +0.000 C 
ATOM      2  C   UNL     1      -1.024  12.117  19.366  0.00  0.00    +0.000 C 
ATOM      3  C   UNL     1      -1.668  13.472  19.430  0.00  0.00    +0.000 C 
ATOM      4  O   UNL     1      -2.584  13.414  20.544  0.00  0.00    +0.000 OA
ATOM      5  C   UNL     1      -2.132  12.481  21.596  0.00  0.00    +0.000 A 
ATOM      6  C   UNL     1      -2.918  12.732  22.714  0.00  0.00    +0.000 A 
ATOM      7  C   UNL     1      -2.432  13.701  23.551  0.00  0.00    +0.000 A 
ATOM      8  C   UNL     1      -1.088  14.083  23.383  0.00  0.00    +0.000 A 
ATOM      9  C   UNL     1      -0.209  13.387  22.479  0.00  0.00    +0.000 A 
ATOM     10  C   UNL     1      -0.723  12.419  21.614  0.00  0.00    +0.000 A 
ENDROOT
BRANCH   3  11
ATOM     11  C   UNL     1      -0.591  14.602  19.354  0.00  0.00    +0.000 A 
ATOM     12  C   UNL     1       0.712  14.283  18.838  0.00  0.00    +0.000 A 
ATOM     13  C   UNL     1       1.664  15.249  18.518  0.00  0.00    +0.000 A 
ATOM     14  C   UNL     1       1.282  16.552  18.668  0.00  0.00    +0.000 A 
ATOM     15  C   UNL     1       0.060  16.895  19.211  0.00  0.00    +0.000 A 
ATOM     16  C   UNL     1      -0.882  15.951  19.604  0.00  0.00    +0.000 A 
ATOM     17  O   UNL     1      -0.114  18.251  19.202  0.00  0.00    +0.000 OA
ATOM     18  C   UNL     1       0.957  18.630  18.308  0.00  0.00    +0.000 C 
ATOM     19  O   UNL     1       1.991  17.632  18.237  0.00  0.00    +0.000 OA
ENDBRANCH   3  11
BRANCH   1  23
ATOM     20  C   UNL     1       1.891   8.202  18.898  0.00  0.00    +0.000 A 
ATOM     21  C   UNL     1       1.901   9.398  18.209  0.00  0.00    +0.000 A 
ATOM     22  C   UNL     1       1.383  10.551  18.798  0.00  0.00    +0.000 A 
ATOM     23  C   UNL     1       0.685  10.543  20.035  0.00  0.00    +0.000 A 
ATOM     24  C   UNL     1       0.790   9.361  20.773  0.00  0.00    +0.000 A 
ATOM     25  C   UNL     1       1.393   8.198  20.204  0.00  0.00    +0.000 A 
BRANCH  20  27
ATOM     26  C   UNL     1       2.689   5.940  18.810  0.00  0.00    +0.000 C 
ATOM     27  O   UNL     1       2.382   7.164  18.162  0.00  0.00    +0.000 OA
ENDBRANCH  20  27
ENDBRANCH   1  23
BRANCH   2  28
ATOM     28  C   UNL     1      -1.592  11.285  18.276  0.00  0.00    +0.000 C 
ATOM     29  O   UNL     1      -1.980  10.146  18.452  0.00  0.00    +0.000 OA
BRANCH  28  30
ATOM     30  O   UNL     1      -1.506  11.863  17.061  0.00  0.00    +0.000 OA
ATOM     31  H   UNL     1      -1.961  11.381  16.354  0.00  0.00    +0.000 HD
ENDBRANCH  28  30
ENDBRANCH   2  28
BRANCH   6  32
ATOM     32  O   UNL     1      -4.162  12.197  22.878  0.00  0.00    +0.000 OA
ATOM     33  C   UNL     1      -4.756  12.603  24.124  0.00  0.00    +0.000 C 
ENDBRANCH   6  32
TORSDOF 6
ENDMDL
