MODEL 1
REMARK VINA RESULT:      -8.3      0.000      0.000
REMARK  Name = 
REMARK  6 active torsions:
REMARK  status: ('A' for Active; 'I' for Inactive)
REMARK    1  A    between atoms: C_1  and  N_2
REMARK    2  A    between atoms: N_2  and  C_3
REMARK    3  A    between atoms: C_4  and  C_6
REMARK    4  A    between atoms: C_9  and  S_10
REMARK    5  A    between atoms: S_10  and  C_11
REMARK    6  A    between atoms: C_14  and  N_15
REMARK                            x       y       z     vdW  Elec       q    Type
REMARK                         _______ _______ _______ _____ _____    ______ ____
ROOT
ATOM      1  S   UNL     1       3.086   5.150  19.821  0.00  0.00    +0.000 S 
ENDROOT
BRANCH   1   2
ATOM      2  C   UNL     1       4.178   4.959  18.449  0.00  0.00    +0.000 A 
ATOM      3  C   UNL     1       3.708   4.776  17.131  0.00  0.00    +0.000 A 
ATOM      4  C   UNL     1       4.568   4.664  16.011  0.00  0.00    +0.000 A 
ATOM      5  C   UNL     1       5.975   4.734  16.132  0.00  0.00    +0.000 A 
ATOM      6  C   UNL     1       6.493   4.931  17.430  0.00  0.00    +0.000 A 
ATOM      7  N   UNL     1       7.744   5.054  17.890  0.00  0.00    +0.000 NA
ATOM      8  O   UNL     1       7.650   5.244  19.251  0.00  0.00    +0.000 OA
ATOM      9  N   UNL     1       6.339   5.237  19.681  0.00  0.00    +0.000 NA
ATOM     10  C   UNL     1       5.588   5.044  18.588  0.00  0.00    +0.000 A 
BRANCH   5  11
ATOM     11  N   UNL     1       6.839   4.622  14.972  0.00  0.00    +0.000 N 
ATOM     12  O   UNL     1       6.586   3.707  14.175  0.00  0.00    +0.000 OA
ATOM     13  O   UNL     1       7.769   5.422  14.834  0.00  0.00    +0.000 OA
ENDBRANCH   5  11
ENDBRANCH   1   2
BRANCH   1  17
ATOM     14  C   UNL     1       1.399   9.359  19.066  0.00  0.00    +0.000 A 
ATOM     15  C   UNL     1       2.119   8.691  18.075  0.00  0.00    +0.000 A 
ATOM     16  C   UNL     1       2.623   7.408  18.307  0.00  0.00    +0.000 A 
ATOM     17  C   UNL     1       2.472   6.801  19.558  0.00  0.00    +0.000 A 
ATOM     18  C   UNL     1       1.802   7.494  20.574  0.00  0.00    +0.000 A 
ATOM     19  C   UNL     1       1.268   8.765  20.326  0.00  0.00    +0.000 A 
BRANCH  14  23
ATOM     20  C   UNL     1      -0.932  12.255  18.165  0.00  0.00    +0.000 C 
ATOM     21  N   UNL     1      -0.494  10.892  18.418  0.00  0.00    +0.000 N 
ATOM     22  C   UNL     1      -1.514   9.854  18.368  0.00  0.00    +0.000 C 
ATOM     23  C   UNL     1       0.823  10.723  18.857  0.00  0.00    +0.000 C 
ATOM     24  O   UNL     1       1.558  11.682  19.098  0.00  0.00    +0.000 OA
ENDBRANCH  14  23
ENDBRANCH   1  17
TORSDOF 4
ENDMDL
MODEL 2
REMARK VINA RESULT:      -8.1      0.316      1.033
REMARK  Name = 
REMARK  6 active torsions:
REMARK  status: ('A' for Active; 'I' for Inactive)
REMARK    1  A    between atoms: C_1  and  N_2
REMARK    2  A    between atoms: N_2  and  C_3
REMARK    3  A    between atoms: C_4  and  C_6
REMARK    4  A    between atoms: C_9  and  S_10
REMARK    5  A    between atoms: S_10  and  C_11
REMARK    6  A    between atoms: C_14  and  N_15
REMARK                            x       y       z     vdW  Elec       q    Type
REMARK                         _______ _______ _______ _____ _____    ______ ____
ROOT
ATOM      1  S   UNL     1       2.939   4.912  19.929  0.00  0.00    +0.000 S 
ENDROOT
BRANCH   1   2
ATOM      2  C   UNL     1       4.063   4.781  18.575  0.00  0.00    +0.000 A 
ATOM      3  C   UNL     1       3.625   4.570  17.250  0.00  0.00    +0.000 A 
ATOM      4  C   UNL     1       4.508   4.505  16.145  0.00  0.00    +0.000 A 
ATOM      5  C   UNL     1       5.906   4.653  16.287  0.00  0.00    +0.000 A 
ATOM      6  C   UNL     1       6.392   4.880  17.593  0.00  0.00    +0.000 A 
ATOM      7  N   UNL     1       7.626   5.073  18.073  0.00  0.00    +0.000 NA
ATOM      8  O   UNL     1       7.500   5.259  19.432  0.00  0.00    +0.000 OA
ATOM      9  N   UNL     1       6.185   5.180  19.842  0.00  0.00    +0.000 NA
ATOM     10  C   UNL     1       5.463   4.944  18.736  0.00  0.00    +0.000 A 
BRANCH   5  11
ATOM     11  N   UNL     1       6.794   4.588  15.142  0.00  0.00    +0.000 N 
ATOM     12  O   UNL     1       6.555   3.707  14.302  0.00  0.00    +0.000 OA
ATOM     13  O   UNL     1       7.729   5.389  15.057  0.00  0.00    +0.000 OA
ENDBRANCH   5  11
ENDBRANCH   1   2
BRANCH   1  17
ATOM     14  C   UNL     1       1.409   9.219  19.431  0.00  0.00    +0.000 A 
ATOM     15  C   UNL     1       1.181   8.513  20.614  0.00  0.00    +0.000 A 
ATOM     16  C   UNL     1       1.655   7.207  20.763  0.00  0.00    +0.000 A 
ATOM     17  C   UNL     1       2.306   6.563  19.705  0.00  0.00    +0.000 A 
ATOM     18  C   UNL     1       2.482   7.246  18.496  0.00  0.00    +0.000 A 
ATOM     19  C   UNL     1       2.036   8.567  18.363  0.00  0.00    +0.000 A 
BRANCH  14  23
ATOM     20  C   UNL     1      -0.551  12.302  18.299  0.00  0.00    +0.000 C 
ATOM     21  N   UNL     1      -0.226  10.901  18.507  0.00  0.00    +0.000 N 
ATOM     22  C   UNL     1      -1.229   9.926  18.104  0.00  0.00    +0.000 C 
ATOM     23  C   UNL     1       0.939  10.624  19.232  0.00  0.00    +0.000 C 
ATOM     24  O   UNL     1       1.616  11.517  19.743  0.00  0.00    +0.000 OA
ENDBRANCH  14  23
ENDBRANCH   1  17
TORSDOF 4
ENDMDL
MODEL 3
REMARK VINA RESULT:      -7.9      0.867      1.174
REMARK  Name = 
REMARK  6 active torsions:
REMARK  status: ('A' for Active; 'I' for Inactive)
REMARK    1  A    between atoms: C_1  and  N_2
REMARK    2  A    between atoms: N_2  and  C_3
REMARK    3  A    between atoms: C_4  and  C_6
REMARK    4  A    between atoms: C_9  and  S_10
REMARK    5  A    between atoms: S_10  and  C_11
REMARK    6  A    between atoms: C_14  and  N_15
REMARK                            x       y       z     vdW  Elec       q    Type
REMARK                         _______ _______ _______ _____ _____    ______ ____
ROOT
ATOM      1  S   UNL     1       3.351   5.478  20.013  0.00  0.00    +0.000 S 
ENDROOT
BRANCH   1   2
ATOM      2  C   UNL     1       4.345   5.212  18.579  0.00  0.00    +0.000 A 
ATOM      3  C   UNL     1       3.790   5.105  17.287  0.00  0.00    +0.000 A 
ATOM      4  C   UNL     1       4.575   4.934  16.120  0.00  0.00    +0.000 A 
ATOM      5  C   UNL     1       5.986   4.862  16.164  0.00  0.00    +0.000 A 
ATOM      6  C   UNL     1       6.589   4.978  17.435  0.00  0.00    +0.000 A 
ATOM      7  N   UNL     1       7.868   4.967  17.828  0.00  0.00    +0.000 NA
ATOM      8  O   UNL     1       7.866   5.135  19.195  0.00  0.00    +0.000 OA
ATOM      9  N   UNL     1       6.586   5.247  19.696  0.00  0.00    +0.000 NA
ATOM     10  C   UNL     1       5.762   5.154  18.643  0.00  0.00    +0.000 A 
BRANCH   5  11
ATOM     11  N   UNL     1       6.771   4.692  14.957  0.00  0.00    +0.000 N 
ATOM     12  O   UNL     1       6.496   3.714  14.246  0.00  0.00    +0.000 OA
ATOM     13  O   UNL     1       7.662   5.506  14.698  0.00  0.00    +0.000 OA
ENDBRANCH   5  11
ENDBRANCH   1   2
BRANCH   1  17
ATOM     14  C   UNL     1       1.019   9.251  18.802  0.00  0.00    +0.000 A 
ATOM     15  C   UNL     1       1.823   8.582  17.878  0.00  0.00    +0.000 A 
ATOM     16  C   UNL     1       2.524   7.431  18.249  0.00  0.00    +0.000 A 
ATOM     17  C   UNL     1       2.484   6.970  19.570  0.00  0.00    +0.000 A 
ATOM     18  C   UNL     1       1.727   7.674  20.513  0.00  0.00    +0.000 A 
ATOM     19  C   UNL     1       0.998   8.807  20.130  0.00  0.00    +0.000 A 
BRANCH  14  23
ATOM     20  C   UNL     1      -0.139  12.874  18.406  0.00  0.00    +0.000 C 
ATOM     21  N   UNL     1       0.734  11.754  18.712  0.00  0.00    +0.000 N 
ATOM     22  C   UNL     1       2.104  12.072  19.091  0.00  0.00    +0.000 C 
ATOM     23  C   UNL     1       0.236  10.473  18.447  0.00  0.00    +0.000 C 
ATOM     24  O   UNL     1      -0.857  10.299  17.905  0.00  0.00    +0.000 OA
ENDBRANCH  14  23
ENDBRANCH   1  17
TORSDOF 4
ENDMDL
MODEL 4
REMARK VINA RESULT:      -7.8      1.208      1.818
REMARK  Name = 
REMARK  6 active torsions:
REMARK  status: ('A' for Active; 'I' for Inactive)
REMARK    1  A    between atoms: C_1  and  N_2
REMARK    2  A    between atoms: N_2  and  C_3
REMARK    3  A    between atoms: C_4  and  C_6
REMARK    4  A    between atoms: C_9  and  S_10
REMARK    5  A    between atoms: S_10  and  C_11
REMARK    6  A    between atoms: C_14  and  N_15
REMARK                            x       y       z     vdW  Elec       q    Type
REMARK                         _______ _______ _______ _____ _____    ______ ____
ROOT
ATOM      1  S   UNL     1       3.420   3.732  19.635  0.00  0.00    +0.000 S 
ENDROOT
BRANCH   1   2
ATOM      2  C   UNL     1       4.435   3.948  18.208  0.00  0.00    +0.000 A 
ATOM      3  C   UNL     1       3.945   3.757  16.899  0.00  0.00    +0.000 A 
ATOM      4  C   UNL     1       4.732   3.966  15.740  0.00  0.00    +0.000 A 
ATOM      5  C   UNL     1       6.078   4.392  15.810  0.00  0.00    +0.000 A 
ATOM      6  C   UNL     1       6.609   4.611  17.099  0.00  0.00    +0.000 A 
ATOM      7  N   UNL     1       7.813   5.020  17.518  0.00  0.00    +0.000 NA
ATOM      8  O   UNL     1       7.760   5.066  18.893  0.00  0.00    +0.000 OA
ATOM      9  N   UNL     1       6.526   4.680  19.374  0.00  0.00    +0.000 NA
ATOM     10  C   UNL     1       5.781   4.388  18.298  0.00  0.00    +0.000 A 
BRANCH   5  11
ATOM     11  N   UNL     1       6.865   4.606  14.611  0.00  0.00    +0.000 N 
ATOM     12  O   UNL     1       7.675   5.545  14.637  0.00  0.00    +0.000 OA
ATOM     13  O   UNL     1       6.697   3.865  13.639  0.00  0.00    +0.000 OA
ENDBRANCH   5  11
ENDBRANCH   1   2
BRANCH   1  17
ATOM     14  C   UNL     1       1.633   7.933  20.178  0.00  0.00    +0.000 A 
ATOM     15  C   UNL     1       1.247   6.881  21.010  0.00  0.00    +0.000 A 
ATOM     16  C   UNL     1       1.799   5.608  20.846  0.00  0.00    +0.000 A 
ATOM     17  C   UNL     1       2.696   5.351  19.803  0.00  0.00    +0.000 A 
ATOM     18  C   UNL     1       3.038   6.390  18.929  0.00  0.00    +0.000 A 
ATOM     19  C   UNL     1       2.510   7.673  19.118  0.00  0.00    +0.000 A 
BRANCH  14  23
ATOM     20  C   UNL     1       0.224  11.415  19.456  0.00  0.00    +0.000 C 
ATOM     21  N   UNL     1       0.662  10.050  19.214  0.00  0.00    +0.000 N 
ATOM     22  C   UNL     1       0.447   9.518  17.876  0.00  0.00    +0.000 C 
ATOM     23  C   UNL     1       1.085   9.316  20.328  0.00  0.00    +0.000 C 
ATOM     24  O   UNL     1       1.016   9.769  21.471  0.00  0.00    +0.000 OA
ENDBRANCH  14  23
ENDBRANCH   1  17
TORSDOF 4
ENDMDL
MODEL 5
REMARK VINA RESULT:      -7.7      1.245      1.836
REMARK  Name = 
REMARK  6 active torsions:
REMARK  status: ('A' for Active; 'I' for Inactive)
REMARK    1  A    between atoms: C_1  and  N_2
REMARK    2  A    between atoms: N_2  and  C_3
REMARK    3  A    between atoms: C_4  and  C_6
REMARK    4  A    between atoms: C_9  and  S_10
REMARK    5  A    between atoms: S_10  and  C_11
REMARK    6  A    between atoms: C_14  and  N_15
REMARK                            x       y       z     vdW  Elec       q    Type
REMARK                         _______ _______ _______ _____ _____    ______ ____
ROOT
ATOM      1  S   UNL     1       3.327   3.979  19.549  0.00  0.00    +0.000 S 
ENDROOT
BRANCH   1   2
ATOM      2  C   UNL     1       4.375   4.104  18.135  0.00  0.00    +0.000 A 
ATOM      3  C   UNL     1       3.886   3.955  16.820  0.00  0.00    +0.000 A 
ATOM      4  C   UNL     1       4.703   4.094  15.671  0.00  0.00    +0.000 A 
ATOM      5  C   UNL     1       6.080   4.402  15.758  0.00  0.00    +0.000 A 
ATOM      6  C   UNL     1       6.612   4.575  17.054  0.00  0.00    +0.000 A 
ATOM      7  N   UNL     1       7.842   4.877  17.488  0.00  0.00    +0.000 NA
ATOM      8  O   UNL     1       7.776   4.930  18.863  0.00  0.00    +0.000 OA
ATOM      9  N   UNL     1       6.507   4.653  19.328  0.00  0.00    +0.000 NA
ATOM     10  C   UNL     1       5.753   4.425  18.242  0.00  0.00    +0.000 A 
BRANCH   5  11
ATOM     11  N   UNL     1       6.899   4.545  14.569  0.00  0.00    +0.000 N 
ATOM     12  O   UNL     1       7.804   5.392  14.615  0.00  0.00    +0.000 OA
ATOM     13  O   UNL     1       6.662   3.837  13.586  0.00  0.00    +0.000 OA
ENDBRANCH   5  11
ENDBRANCH   1   2
BRANCH   1  17
ATOM     14  C   UNL     1       1.564   8.220  19.770  0.00  0.00    +0.000 A 
ATOM     15  C   UNL     1       1.368   7.310  20.810  0.00  0.00    +0.000 A 
ATOM     16  C   UNL     1       1.912   6.025  20.742  0.00  0.00    +0.000 A 
ATOM     17  C   UNL     1       2.605   5.607  19.600  0.00  0.00    +0.000 A 
ATOM     18  C   UNL     1       2.752   6.497  18.530  0.00  0.00    +0.000 A 
ATOM     19  C   UNL     1       2.235   7.795  18.616  0.00  0.00    +0.000 A 
BRANCH  14  23
ATOM     20  C   UNL     1      -0.449  11.343  20.673  0.00  0.00    +0.000 C 
ATOM     21  N   UNL     1       0.082   9.994  20.773  0.00  0.00    +0.000 N 
ATOM     22  C   UNL     1      -0.267   9.237  21.967  0.00  0.00    +0.000 C 
ATOM     23  C   UNL     1       1.019   9.611  19.807  0.00  0.00    +0.000 C 
ATOM     24  O   UNL     1       1.438  10.398  18.958  0.00  0.00    +0.000 OA
ENDBRANCH  14  23
ENDBRANCH   1  17
TORSDOF 4
ENDMDL
MODEL 6
REMARK VINA RESULT:      -7.7      0.872      1.663
REMARK  Name = 
REMARK  6 active torsions:
REMARK  status: ('A' for Active; 'I' for Inactive)
REMARK    1  A    between atoms: C_1  and  N_2
REMARK    2  A    between atoms: N_2  and  C_3
REMARK    3  A    between atoms: C_4  and  C_6
REMARK    4  A    between atoms: C_9  and  S_10
REMARK    5  A    between atoms: S_10  and  C_11
REMARK    6  A    between atoms: C_14  and  N_15
REMARK                            x       y       z     vdW  Elec       q    Type
REMARK                         _______ _______ _______ _____ _____    ______ ____
ROOT
ATOM      1  S   UNL     1       3.382   5.495  20.040  0.00  0.00    +0.000 S 
ENDROOT
BRANCH   1   2
ATOM      2  C   UNL     1       4.364   5.224  18.599  0.00  0.00    +0.000 A 
ATOM      3  C   UNL     1       3.797   5.106  17.313  0.00  0.00    +0.000 A 
ATOM      4  C   UNL     1       4.572   4.931  16.139  0.00  0.00    +0.000 A 
ATOM      5  C   UNL     1       5.983   4.868  16.170  0.00  0.00    +0.000 A 
ATOM      6  C   UNL     1       6.598   4.996  17.434  0.00  0.00    +0.000 A 
ATOM      7  N   UNL     1       7.881   4.994  17.815  0.00  0.00    +0.000 NA
ATOM      8  O   UNL     1       7.891   5.172  19.181  0.00  0.00    +0.000 OA
ATOM      9  N   UNL     1       6.615   5.280  19.694  0.00  0.00    +0.000 NA
ATOM     10  C   UNL     1       5.782   5.175  18.649  0.00  0.00    +0.000 A 
BRANCH   5  11
ATOM     11  N   UNL     1       6.759   4.693  14.957  0.00  0.00    +0.000 N 
ATOM     12  O   UNL     1       7.655   5.524  14.744  0.00  0.00    +0.000 OA
ATOM     13  O   UNL     1       6.497   3.750  14.205  0.00  0.00    +0.000 OA
ENDBRANCH   5  11
ENDBRANCH   1   2
BRANCH   1  17
ATOM     14  C   UNL     1       1.053   9.285  18.880  0.00  0.00    +0.000 A 
ATOM     15  C   UNL     1       0.959   8.756  20.168  0.00  0.00    +0.000 A 
ATOM     16  C   UNL     1       1.675   7.608  20.518  0.00  0.00    +0.000 A 
ATOM     17  C   UNL     1       2.444   6.933  19.564  0.00  0.00    +0.000 A 
ATOM     18  C   UNL     1       2.492   7.427  18.255  0.00  0.00    +0.000 A 
ATOM     19  C   UNL     1       1.801   8.597  17.917  0.00  0.00    +0.000 A 
BRANCH  14  23
ATOM     20  C   UNL     1      -0.019  12.927  18.416  0.00  0.00    +0.000 C 
ATOM     21  N   UNL     1       0.808  11.792  18.791  0.00  0.00    +0.000 N 
ATOM     22  C   UNL     1       2.139  12.089  19.302  0.00  0.00    +0.000 C 
ATOM     23  C   UNL     1       0.321  10.521  18.466  0.00  0.00    +0.000 C 
ATOM     24  O   UNL     1      -0.717  10.367  17.820  0.00  0.00    +0.000 OA
ENDBRANCH  14  23
ENDBRANCH   1  17
TORSDOF 4
ENDMDL
MODEL 7
REMARK VINA RESULT:      -7.7      1.364      1.620
REMARK  Name = 
REMARK  6 active torsions:
REMARK  status: ('A' for Active; 'I' for Inactive)
REMARK    1  A    between atoms: C_1  and  N_2
REMARK    2  A    between atoms: N_2  and  C_3
REMARK    3  A    between atoms: C_4  and  C_6
REMARK    4  A    between atoms: C_9  and  S_10
REMARK    5  A    between atoms: S_10  and  C_11
REMARK    6  A    between atoms: C_14  and  N_15
REMARK                            x       y       z     vdW  Elec       q    Type
REMARK                         _______ _______ _______ _____ _____    ______ ____
ROOT
ATOM      1  S   UNL     1       3.462   3.599  19.522  0.00  0.00    +0.000 S 
ENDROOT
BRANCH   1   2
ATOM      2  C   UNL     1       4.479   3.875  18.107  0.00  0.00    +0.000 A 
ATOM      3  C   UNL     1       4.003   3.695  16.791  0.00  0.00    +0.000 A 
ATOM      4  C   UNL     1       4.790   3.953  15.642  0.00  0.00    +0.000 A 
ATOM      5  C   UNL     1       6.122   4.420  15.729  0.00  0.00    +0.000 A 
ATOM      6  C   UNL     1       6.638   4.629  17.026  0.00  0.00    +0.000 A 
ATOM      7  N   UNL     1       7.825   5.067  17.461  0.00  0.00    +0.000 NA
ATOM      8  O   UNL     1       7.763   5.084  18.837  0.00  0.00    +0.000 OA
ATOM      9  N   UNL     1       6.538   4.650  19.301  0.00  0.00    +0.000 NA
ATOM     10  C   UNL     1       5.810   4.356  18.215  0.00  0.00    +0.000 A 
BRANCH   5  11
ATOM     11  N   UNL     1       6.910   4.682  14.541  0.00  0.00    +0.000 N 
ATOM     12  O   UNL     1       6.632   4.019  13.530  0.00  0.00    +0.000 OA
ATOM     13  O   UNL     1       7.804   5.532  14.586  0.00  0.00    +0.000 OA
ENDBRANCH   5  11
ENDBRANCH   1   2
BRANCH   1  17
ATOM     14  C   UNL     1       1.625   7.772  20.111  0.00  0.00    +0.000 A 
ATOM     15  C   UNL     1       2.544   7.535  19.088  0.00  0.00    +0.000 A 
ATOM     16  C   UNL     1       3.093   6.263  18.908  0.00  0.00    +0.000 A 
ATOM     17  C   UNL     1       2.783   5.224  19.793  0.00  0.00    +0.000 A 
ATOM     18  C   UNL     1       1.908   5.474  20.856  0.00  0.00    +0.000 A 
ATOM     19  C   UNL     1       1.333   6.742  21.012  0.00  0.00    +0.000 A 
BRANCH  14  23
ATOM     20  C   UNL     1       0.458  11.389  19.675  0.00  0.00    +0.000 C 
ATOM     21  N   UNL     1       1.023  10.094  19.334  0.00  0.00    +0.000 N 
ATOM     22  C   UNL     1       1.396   9.885  17.942  0.00  0.00    +0.000 C 
ATOM     23  C   UNL     1       0.995   9.110  20.330  0.00  0.00    +0.000 C 
ATOM     24  O   UNL     1       0.447   9.299  21.417  0.00  0.00    +0.000 OA
ENDBRANCH  14  23
ENDBRANCH   1  17
TORSDOF 4
ENDMDL
MODEL 8
REMARK VINA RESULT:      -7.7      1.301      1.694
REMARK  Name = 
REMARK  6 active torsions:
REMARK  status: ('A' for Active; 'I' for Inactive)
REMARK    1  A    between atoms: C_1  and  N_2
REMARK    2  A    between atoms: N_2  and  C_3
REMARK    3  A    between atoms: C_4  and  C_6
REMARK    4  A    between atoms: C_9  and  S_10
REMARK    5  A    between atoms: S_10  and  C_11
REMARK    6  A    between atoms: C_14  and  N_15
REMARK                            x       y       z     vdW  Elec       q    Type
REMARK                         _______ _______ _______ _____ _____    ______ ____
ROOT
ATOM      1  S   UNL     1       3.315   4.019  19.616  0.00  0.00    +0.000 S 
ENDROOT
BRANCH   1   2
ATOM      2  C   UNL     1       4.376   4.165  18.214  0.00  0.00    +0.000 A 
ATOM      3  C   UNL     1       3.906   4.005  16.894  0.00  0.00    +0.000 A 
ATOM      4  C   UNL     1       4.733   4.160  15.754  0.00  0.00    +0.000 A 
ATOM      5  C   UNL     1       6.102   4.496  15.857  0.00  0.00    +0.000 A 
ATOM      6  C   UNL     1       6.616   4.681  17.158  0.00  0.00    +0.000 A 
ATOM      7  N   UNL     1       7.834   5.009  17.606  0.00  0.00    +0.000 NA
ATOM      8  O   UNL     1       7.751   5.061  18.980  0.00  0.00    +0.000 OA
ATOM      9  N   UNL     1       6.482   4.759  19.431  0.00  0.00    +0.000 NA
ATOM     10  C   UNL     1       5.746   4.515  18.337  0.00  0.00    +0.000 A 
BRANCH   5  11
ATOM     11  N   UNL     1       6.932   4.655  14.677  0.00  0.00    +0.000 N 
ATOM     12  O   UNL     1       7.832   5.506  14.740  0.00  0.00    +0.000 OA
ATOM     13  O   UNL     1       6.708   3.957  13.684  0.00  0.00    +0.000 OA
ENDBRANCH   5  11
ENDBRANCH   1   2
BRANCH   1  17
ATOM     14  C   UNL     1       1.459   8.223  19.773  0.00  0.00    +0.000 A 
ATOM     15  C   UNL     1       2.304   7.854  18.724  0.00  0.00    +0.000 A 
ATOM     16  C   UNL     1       2.859   6.573  18.678  0.00  0.00    +0.000 A 
ATOM     17  C   UNL     1       2.631   5.662  19.715  0.00  0.00    +0.000 A 
ATOM     18  C   UNL     1       1.833   6.049  20.798  0.00  0.00    +0.000 A 
ATOM     19  C   UNL     1       1.250   7.322  20.824  0.00  0.00    +0.000 A 
BRANCH  14  23
ATOM     20  C   UNL     1      -0.253  11.396  21.049  0.00  0.00    +0.000 C 
ATOM     21  N   UNL     1       0.429  10.113  21.084  0.00  0.00    +0.000 N 
ATOM     22  C   UNL     1       0.795   9.598  22.396  0.00  0.00    +0.000 C 
ATOM     23  C   UNL     1       0.826   9.574  19.855  0.00  0.00    +0.000 C 
ATOM     24  O   UNL     1       0.682  10.190  18.797  0.00  0.00    +0.000 OA
ENDBRANCH  14  23
ENDBRANCH   1  17
TORSDOF 4
ENDMDL
MODEL 9
REMARK VINA RESULT:      -7.3      1.270      1.620
REMARK  Name = 
REMARK  6 active torsions:
REMARK  status: ('A' for Active; 'I' for Inactive)
REMARK    1  A    between atoms: C_1  and  N_2
REMARK    2  A    between atoms: N_2  and  C_3
REMARK    3  A    between atoms: C_4  and  C_6
REMARK    4  A    between atoms: C_9  and  S_10
REMARK    5  A    between atoms: S_10  and  C_11
REMARK    6  A    between atoms: C_14  and  N_15
REMARK                            x       y       z     vdW  Elec       q    Type
REMARK                         _______ _______ _______ _____ _____    ______ ____
ROOT
ATOM      1  S   UNL     1       3.819   5.420  19.607  0.00  0.00    +0.000 S 
ENDROOT
BRANCH   1   2
ATOM      2  C   UNL     1       4.632   5.171  18.061  0.00  0.00    +0.000 A 
ATOM      3  C   UNL     1       4.087   4.356  17.046  0.00  0.00    +0.000 A 
ATOM      4  C   UNL     1       4.704   4.178  15.783  0.00  0.00    +0.000 A 
ATOM      5  C   UNL     1       5.918   4.814  15.441  0.00  0.00    +0.000 A 
ATOM      6  C   UNL     1       6.495   5.652  16.419  0.00  0.00    +0.000 A 
ATOM      7  N   UNL     1       7.606   6.399  16.422  0.00  0.00    +0.000 NA
ATOM      8  O   UNL     1       7.663   7.022  17.649  0.00  0.00    +0.000 OA
ATOM      9  N   UNL     1       6.594   6.676  18.451  0.00  0.00    +0.000 NA
ATOM     10  C   UNL     1       5.846   5.828  17.731  0.00  0.00    +0.000 A 
BRANCH   5  11
ATOM     11  N   UNL     1       6.531   4.623  14.140  0.00  0.00    +0.000 N 
ATOM     12  O   UNL     1       7.389   5.452  13.801  0.00  0.00    +0.000 OA
ATOM     13  O   UNL     1       6.177   3.669  13.441  0.00  0.00    +0.000 OA
ENDBRANCH   5  11
ENDBRANCH   1   2
BRANCH   1  17
ATOM     14  C   UNL     1       1.206   9.078  18.645  0.00  0.00    +0.000 A 
ATOM     15  C   UNL     1       2.070   8.547  17.686  0.00  0.00    +0.000 A 
ATOM     16  C   UNL     1       2.857   7.430  17.981  0.00  0.00    +0.000 A 
ATOM     17  C   UNL     1       2.840   6.868  19.263  0.00  0.00    +0.000 A 
ATOM     18  C   UNL     1       2.020   7.436  20.244  0.00  0.00    +0.000 A 
ATOM     19  C   UNL     1       1.207   8.534  19.935  0.00  0.00    +0.000 A 
BRANCH  14  23
ATOM     20  C   UNL     1      -0.207  12.627  18.453  0.00  0.00    +0.000 C 
ATOM     21  N   UNL     1       0.749  11.557  18.682  0.00  0.00    +0.000 N 
ATOM     22  C   UNL     1       2.105  11.951  19.039  0.00  0.00    +0.000 C 
ATOM     23  C   UNL     1       0.331  10.258  18.369  0.00  0.00    +0.000 C 
ATOM     24  O   UNL     1      -0.763  10.034  17.849  0.00  0.00    +0.000 OA
ENDBRANCH  14  23
ENDBRANCH   1  17
TORSDOF 4
ENDMDL
