MODEL 1
REMARK VINA RESULT:      -7.5      0.000      0.000
REMARK  Name = 
REMARK  2 active torsions:
REMARK  status: ('A' for Active; 'I' for Inactive)
REMARK    1  A    between atoms: C_8  and  O_9
REMARK    2  A    between atoms: N_16  and  C_17
REMARK                            x       y       z     vdW  Elec       q    Type
REMARK                         _______ _______ _______ _____ _____    ______ ____
ROOT
ATOM      1  O   UNL     1       2.257   9.609  17.346  0.00  0.00    +0.000 OA
ATOM      2  C   UNL     1       2.176   8.747  18.222  0.00  0.00    +0.000 C 
ATOM      3  C   UNL     1       2.990   7.517  18.070  0.00  0.00    +0.000 A 
ATOM      4  C   UNL     1       3.880   7.426  16.994  0.00  0.00    +0.000 A 
ATOM      5  C   UNL     1       4.633   6.275  16.809  0.00  0.00    +0.000 A 
ATOM      6  C   UNL     1       4.489   5.203  17.690  0.00  0.00    +0.000 A 
ATOM      7  C   UNL     1       3.598   5.263  18.788  0.00  0.00    +0.000 A 
ATOM      8  C   UNL     1       3.397   4.205  19.706  0.00  0.00    +0.000 A 
ATOM      9  C   UNL     1       2.519   4.322  20.779  0.00  0.00    +0.000 A 
ATOM     10  C   UNL     1       1.826   5.508  20.974  0.00  0.00    +0.000 A 
ATOM     11  C   UNL     1       2.004   6.578  20.088  0.00  0.00    +0.000 A 
ATOM     12  C   UNL     1       2.858   6.462  18.983  0.00  0.00    +0.000 A 
ATOM     13  C   UNL     1       1.278   7.840  20.343  0.00  0.00    +0.000 C 
ATOM     14  O   UNL     1       0.592   7.913  21.362  0.00  0.00    +0.000 OA
ATOM     15  N   UNL     1       1.391   8.849  19.380  0.00  0.00    +0.000 N 
ENDROOT
BRANCH  15  16
ATOM     16  C   UNL     1       0.633  10.044  19.580  0.00  0.00    +0.000 A 
ATOM     17  C   UNL     1      -0.630  10.193  18.994  0.00  0.00    +0.000 A 
ATOM     18  C   UNL     1      -1.397  11.335  19.247  0.00  0.00    +0.000 A 
ATOM     19  C   UNL     1      -0.886  12.348  20.055  0.00  0.00    +0.000 A 
ATOM     20 CL   UNL     1      -1.829  13.754  20.365  0.00  0.00    +0.000 Cl
ATOM     21  C   UNL     1       0.380  12.227  20.621  0.00  0.00    +0.000 A 
ATOM     22  C   UNL     1       1.132  11.070  20.397  0.00  0.00    +0.000 A 
ENDBRANCH  15  16
BRANCH   8  23
ATOM     23  O   UNL     1       4.034   2.993  19.630  0.00  0.00    +0.000 OA
ATOM     24  H   UNL     1       4.328   2.821  18.724  0.00  0.00    +0.000 HD
ENDBRANCH   8  23
TORSDOF 2
ENDMDL
MODEL 2
REMARK VINA RESULT:      -7.4      1.820      3.586
REMARK  Name = 
REMARK  2 active torsions:
REMARK  status: ('A' for Active; 'I' for Inactive)
REMARK    1  A    between atoms: C_8  and  O_9
REMARK    2  A    between atoms: N_16  and  C_17
REMARK                            x       y       z     vdW  Elec       q    Type
REMARK                         _______ _______ _______ _____ _____    ______ ____
ROOT
ATOM      1  O   UNL     1       1.320   5.517  20.820  0.00  0.00    +0.000 OA
ATOM      2  C   UNL     1       2.018   5.807  19.849  0.00  0.00    +0.000 C 
ATOM      3  C   UNL     1       2.669   4.704  19.101  0.00  0.00    +0.000 A 
ATOM      4  C   UNL     1       2.391   3.383  19.471  0.00  0.00    +0.000 A 
ATOM      5  C   UNL     1       3.009   2.331  18.809  0.00  0.00    +0.000 A 
ATOM      6  C   UNL     1       3.919   2.595  17.785  0.00  0.00    +0.000 A 
ATOM      7  C   UNL     1       4.222   3.919  17.387  0.00  0.00    +0.000 A 
ATOM      8  C   UNL     1       5.146   4.250  16.368  0.00  0.00    +0.000 A 
ATOM      9  C   UNL     1       5.396   5.569  16.005  0.00  0.00    +0.000 A 
ATOM     10  C   UNL     1       4.716   6.598  16.642  0.00  0.00    +0.000 A 
ATOM     11  C   UNL     1       3.792   6.307  17.653  0.00  0.00    +0.000 A 
ATOM     12  C   UNL     1       3.556   4.985  18.053  0.00  0.00    +0.000 A 
ATOM     13  C   UNL     1       3.059   7.423  18.288  0.00  0.00    +0.000 C 
ATOM     14  O   UNL     1       3.253   8.559  17.856  0.00  0.00    +0.000 OA
ATOM     15  N   UNL     1       2.226   7.108  19.368  0.00  0.00    +0.000 N 
ENDROOT
BRANCH  15  16
ATOM     16  C   UNL     1       1.572   8.188  20.037  0.00  0.00    +0.000 A 
ATOM     17  C   UNL     1       0.838   9.136  19.313  0.00  0.00    +0.000 A 
ATOM     18  C   UNL     1       0.145  10.153  19.977  0.00  0.00    +0.000 A 
ATOM     19  C   UNL     1       0.214  10.246  21.365  0.00  0.00    +0.000 A 
ATOM     20 CL   UNL     1      -0.638  11.498  22.182  0.00  0.00    +0.000 Cl
ATOM     21  C   UNL     1       0.962   9.328  22.097  0.00  0.00    +0.000 A 
ATOM     22  C   UNL     1       1.627   8.292  21.436  0.00  0.00    +0.000 A 
ENDBRANCH  15  16
BRANCH   8  23
ATOM     23  O   UNL     1       5.864   3.325  15.655  0.00  0.00    +0.000 OA
ATOM     24  H   UNL     1       6.784   3.306  15.955  0.00  0.00    +0.000 HD
ENDBRANCH   8  23
TORSDOF 2
ENDMDL
MODEL 3
REMARK VINA RESULT:      -7.4      0.133      1.017
REMARK  Name = 
REMARK  2 active torsions:
REMARK  status: ('A' for Active; 'I' for Inactive)
REMARK    1  A    between atoms: C_8  and  O_9
REMARK    2  A    between atoms: N_16  and  C_17
REMARK                            x       y       z     vdW  Elec       q    Type
REMARK                         _______ _______ _______ _____ _____    ______ ____
ROOT
ATOM      1  O   UNL     1       2.311   9.544  17.425  0.00  0.00    +0.000 OA
ATOM      2  C   UNL     1       2.216   8.670  18.287  0.00  0.00    +0.000 C 
ATOM      3  C   UNL     1       3.012   7.430  18.116  0.00  0.00    +0.000 A 
ATOM      4  C   UNL     1       3.902   7.344  17.039  0.00  0.00    +0.000 A 
ATOM      5  C   UNL     1       4.638   6.185  16.836  0.00  0.00    +0.000 A 
ATOM      6  C   UNL     1       4.477   5.101  17.700  0.00  0.00    +0.000 A 
ATOM      7  C   UNL     1       3.586   5.157  18.798  0.00  0.00    +0.000 A 
ATOM      8  C   UNL     1       3.368   4.087  19.699  0.00  0.00    +0.000 A 
ATOM      9  C   UNL     1       2.491   4.200  20.772  0.00  0.00    +0.000 A 
ATOM     10  C   UNL     1       1.816   5.393  20.986  0.00  0.00    +0.000 A 
ATOM     11  C   UNL     1       2.010   6.474  20.117  0.00  0.00    +0.000 A 
ATOM     12  C   UNL     1       2.864   6.363  19.012  0.00  0.00    +0.000 A 
ATOM     13  C   UNL     1       1.302   7.742  20.392  0.00  0.00    +0.000 C 
ATOM     14  O   UNL     1       0.616   7.809  21.412  0.00  0.00    +0.000 OA
ATOM     15  N   UNL     1       1.432   8.765  19.445  0.00  0.00    +0.000 N 
ENDROOT
BRANCH  15  16
ATOM     16  C   UNL     1       0.691   9.968  19.664  0.00  0.00    +0.000 A 
ATOM     17  C   UNL     1       1.205  10.983  20.481  0.00  0.00    +0.000 A 
ATOM     18  C   UNL     1       0.508  12.185  20.638  0.00  0.00    +0.000 A 
ATOM     19  C   UNL     1      -0.722  12.361  20.009  0.00  0.00    +0.000 A 
ATOM     20 CL   UNL     1      -1.580  13.839  20.203  0.00  0.00    +0.000 Cl
ATOM     21  C   UNL     1      -1.259  11.349  19.217  0.00  0.00    +0.000 A 
ATOM     22  C   UNL     1      -0.547  10.161  19.032  0.00  0.00    +0.000 A 
ENDBRANCH  15  16
BRANCH   8  23
ATOM     23  O   UNL     1       3.988   2.867  19.604  0.00  0.00    +0.000 OA
ATOM     24  H   UNL     1       3.338   2.152  19.660  0.00  0.00    +0.000 HD
ENDBRANCH   8  23
TORSDOF 2
ENDMDL
MODEL 4
REMARK VINA RESULT:      -7.4      0.623      3.007
REMARK  Name = 
REMARK  2 active torsions:
REMARK  status: ('A' for Active; 'I' for Inactive)
REMARK    1  A    between atoms: C_8  and  O_9
REMARK    2  A    between atoms: N_16  and  C_17
REMARK                            x       y       z     vdW  Elec       q    Type
REMARK                         _______ _______ _______ _____ _____    ______ ____
ROOT
ATOM      1  O   UNL     1       0.697   7.781  21.361  0.00  0.00    +0.000 OA
ATOM      2  C   UNL     1       1.364   7.677  20.331  0.00  0.00    +0.000 C 
ATOM      3  C   UNL     1       2.068   6.396  20.080  0.00  0.00    +0.000 A 
ATOM      4  C   UNL     1       1.873   5.334  20.971  0.00  0.00    +0.000 A 
ATOM      5  C   UNL     1       2.542   4.133  20.778  0.00  0.00    +0.000 A 
ATOM      6  C   UNL     1       3.421   3.994  19.703  0.00  0.00    +0.000 A 
ATOM      7  C   UNL     1       3.640   5.048  18.786  0.00  0.00    +0.000 A 
ATOM      8  C   UNL     1       4.529   4.973  17.687  0.00  0.00    +0.000 A 
ATOM      9  C   UNL     1       4.696   6.035  16.805  0.00  0.00    +0.000 A 
ATOM     10  C   UNL     1       3.966   7.201  16.986  0.00  0.00    +0.000 A 
ATOM     11  C   UNL     1       3.074   7.310  18.061  0.00  0.00    +0.000 A 
ATOM     12  C   UNL     1       2.922   6.261  18.977  0.00  0.00    +0.000 A 
ATOM     13  C   UNL     1       2.286   8.552  18.207  0.00  0.00    +0.000 C 
ATOM     14  O   UNL     1       2.408   9.416  17.339  0.00  0.00    +0.000 OA
ATOM     15  N   UNL     1       1.488   8.671  19.351  0.00  0.00    +0.000 N 
ENDROOT
BRANCH  15  16
ATOM     16  C   UNL     1       0.781   9.899  19.539  0.00  0.00    +0.000 A 
ATOM     17  C   UNL     1       1.326  10.922  20.325  0.00  0.00    +0.000 A 
ATOM     18  C   UNL     1       0.663  12.147  20.452  0.00  0.00    +0.000 A 
ATOM     19  C   UNL     1      -0.566  12.338  19.825  0.00  0.00    +0.000 A 
ATOM     20 CL   UNL     1      -1.383  13.844  19.983  0.00  0.00    +0.000 Cl
ATOM     21  C   UNL     1      -1.135  11.320  19.064  0.00  0.00    +0.000 A 
ATOM     22  C   UNL     1      -0.455  10.108  18.909  0.00  0.00    +0.000 A 
ENDBRANCH  15  16
BRANCH   8  23
ATOM     23  O   UNL     1       5.291   3.871  17.392  0.00  0.00    +0.000 OA
ATOM     24  H   UNL     1       5.920   4.074  16.685  0.00  0.00    +0.000 HD
ENDBRANCH   8  23
TORSDOF 2
ENDMDL
MODEL 5
REMARK VINA RESULT:      -7.4      0.614      2.831
REMARK  Name = 
REMARK  2 active torsions:
REMARK  status: ('A' for Active; 'I' for Inactive)
REMARK    1  A    between atoms: C_8  and  O_9
REMARK    2  A    between atoms: N_16  and  C_17
REMARK                            x       y       z     vdW  Elec       q    Type
REMARK                         _______ _______ _______ _____ _____    ______ ____
ROOT
ATOM      1  O   UNL     1       0.702   7.752  21.363  0.00  0.00    +0.000 OA
ATOM      2  C   UNL     1       1.367   7.652  20.332  0.00  0.00    +0.000 C 
ATOM      3  C   UNL     1       2.080   6.375  20.081  0.00  0.00    +0.000 A 
ATOM      4  C   UNL     1       1.893   5.312  20.973  0.00  0.00    +0.000 A 
ATOM      5  C   UNL     1       2.570   4.116  20.780  0.00  0.00    +0.000 A 
ATOM      6  C   UNL     1       3.448   3.981  19.704  0.00  0.00    +0.000 A 
ATOM      7  C   UNL     1       3.658   5.036  18.785  0.00  0.00    +0.000 A 
ATOM      8  C   UNL     1       4.545   4.965  17.685  0.00  0.00    +0.000 A 
ATOM      9  C   UNL     1       4.704   6.027  16.801  0.00  0.00    +0.000 A 
ATOM     10  C   UNL     1       3.967   7.189  16.983  0.00  0.00    +0.000 A 
ATOM     11  C   UNL     1       3.076   7.293  18.059  0.00  0.00    +0.000 A 
ATOM     12  C   UNL     1       2.932   6.244  18.977  0.00  0.00    +0.000 A 
ATOM     13  C   UNL     1       2.281   8.530  18.205  0.00  0.00    +0.000 C 
ATOM     14  O   UNL     1       2.395   9.394  17.336  0.00  0.00    +0.000 OA
ATOM     15  N   UNL     1       1.483   8.645  19.350  0.00  0.00    +0.000 N 
ENDROOT
BRANCH  15  16
ATOM     16  C   UNL     1       0.769   9.869  19.539  0.00  0.00    +0.000 A 
ATOM     17  C   UNL     1      -0.471  10.073  18.920  0.00  0.00    +0.000 A 
ATOM     18  C   UNL     1      -1.198  11.243  19.162  0.00  0.00    +0.000 A 
ATOM     19  C   UNL     1      -0.669  12.229  19.992  0.00  0.00    +0.000 A 
ATOM     20 CL   UNL     1      -1.562  13.670  20.288  0.00  0.00    +0.000 Cl
ATOM     21  C   UNL     1       0.575  12.053  20.591  0.00  0.00    +0.000 A 
ATOM     22  C   UNL     1       1.286  10.868  20.378  0.00  0.00    +0.000 A 
ENDBRANCH  15  16
BRANCH   8  23
ATOM     23  O   UNL     1       5.313   3.868  17.389  0.00  0.00    +0.000 OA
ATOM     24  H   UNL     1       4.807   3.054  17.523  0.00  0.00    +0.000 HD
ENDBRANCH   8  23
TORSDOF 2
ENDMDL
MODEL 6
REMARK VINA RESULT:      -7.4      1.810      3.667
REMARK  Name = 
REMARK  2 active torsions:
REMARK  status: ('A' for Active; 'I' for Inactive)
REMARK    1  A    between atoms: C_8  and  O_9
REMARK    2  A    between atoms: N_16  and  C_17
REMARK                            x       y       z     vdW  Elec       q    Type
REMARK                         _______ _______ _______ _____ _____    ______ ____
ROOT
ATOM      1  O   UNL     1       1.301   5.494  20.800  0.00  0.00    +0.000 OA
ATOM      2  C   UNL     1       2.005   5.790  19.833  0.00  0.00    +0.000 C 
ATOM      3  C   UNL     1       2.668   4.691  19.090  0.00  0.00    +0.000 A 
ATOM      4  C   UNL     1       2.395   3.368  19.457  0.00  0.00    +0.000 A 
ATOM      5  C   UNL     1       3.024   2.320  18.799  0.00  0.00    +0.000 A 
ATOM      6  C   UNL     1       3.940   2.590  17.782  0.00  0.00    +0.000 A 
ATOM      7  C   UNL     1       4.237   3.915  17.387  0.00  0.00    +0.000 A 
ATOM      8  C   UNL     1       5.166   4.253  16.374  0.00  0.00    +0.000 A 
ATOM      9  C   UNL     1       5.410   5.573  16.014  0.00  0.00    +0.000 A 
ATOM     10  C   UNL     1       4.720   6.598  16.646  0.00  0.00    +0.000 A 
ATOM     11  C   UNL     1       3.791   6.301  17.650  0.00  0.00    +0.000 A 
ATOM     12  C   UNL     1       3.560   4.977  18.048  0.00  0.00    +0.000 A 
ATOM     13  C   UNL     1       3.047   7.412  18.280  0.00  0.00    +0.000 C 
ATOM     14  O   UNL     1       3.237   8.549  17.850  0.00  0.00    +0.000 OA
ATOM     15  N   UNL     1       2.208   7.091  19.354  0.00  0.00    +0.000 N 
ENDROOT
BRANCH  15  16
ATOM     16  C   UNL     1       1.542   8.168  20.019  0.00  0.00    +0.000 A 
ATOM     17  C   UNL     1       1.590   8.282  21.414  0.00  0.00    +0.000 A 
ATOM     18  C   UNL     1       0.995   9.373  22.055  0.00  0.00    +0.000 A 
ATOM     19  C   UNL     1       0.318  10.333  21.306  0.00  0.00    +0.000 A 
ATOM     20 CL   UNL     1      -0.415  11.675  22.095  0.00  0.00    +0.000 Cl
ATOM     21  C   UNL     1       0.238  10.218  19.921  0.00  0.00    +0.000 A 
ATOM     22  C   UNL     1       0.862   9.146  19.277  0.00  0.00    +0.000 A 
ENDBRANCH  15  16
BRANCH   8  23
ATOM     23  O   UNL     1       5.895   3.332  15.666  0.00  0.00    +0.000 OA
ATOM     24  H   UNL     1       6.090   2.559  16.215  0.00  0.00    +0.000 HD
ENDBRANCH   8  23
TORSDOF 2
ENDMDL
MODEL 7
REMARK VINA RESULT:      -7.4      1.606      2.150
REMARK  Name = 
REMARK  2 active torsions:
REMARK  status: ('A' for Active; 'I' for Inactive)
REMARK    1  A    between atoms: C_8  and  O_9
REMARK    2  A    between atoms: N_16  and  C_17
REMARK                            x       y       z     vdW  Elec       q    Type
REMARK                         _______ _______ _______ _____ _____    ______ ____
ROOT
ATOM      1  O   UNL     1       3.143   8.488  17.858  0.00  0.00    +0.000 OA
ATOM      2  C   UNL     1       2.958   7.387  18.377  0.00  0.00    +0.000 C 
ATOM      3  C   UNL     1       3.652   6.214  17.792  0.00  0.00    +0.000 A 
ATOM      4  C   UNL     1       4.553   6.418  16.741  0.00  0.00    +0.000 A 
ATOM      5  C   UNL     1       5.195   5.336  16.154  0.00  0.00    +0.000 A 
ATOM      6  C   UNL     1       4.927   4.043  16.605  0.00  0.00    +0.000 A 
ATOM      7  C   UNL     1       4.022   3.803  17.666  0.00  0.00    +0.000 A 
ATOM      8  C   UNL     1       3.698   2.516  18.157  0.00  0.00    +0.000 A 
ATOM      9  C   UNL     1       2.812   2.335  19.213  0.00  0.00    +0.000 A 
ATOM     10  C   UNL     1       2.234   3.440  19.822  0.00  0.00    +0.000 A 
ATOM     11  C   UNL     1       2.534   4.729  19.365  0.00  0.00    +0.000 A 
ATOM     12  C   UNL     1       3.398   4.924  18.279  0.00  0.00    +0.000 A 
ATOM     13  C   UNL     1       1.928   5.887  20.056  0.00  0.00    +0.000 C 
ATOM     14  O   UNL     1       1.230   5.666  21.045  0.00  0.00    +0.000 OA
ATOM     15  N   UNL     1       2.162   7.153  19.507  0.00  0.00    +0.000 N 
ENDROOT
BRANCH  15  16
ATOM     16  C   UNL     1       1.519   8.271  20.123  0.00  0.00    +0.000 A 
ATOM     17  C   UNL     1       0.800   9.194  19.353  0.00  0.00    +0.000 A 
ATOM     18  C   UNL     1       0.116  10.248  19.967  0.00  0.00    +0.000 A 
ATOM     19  C   UNL     1       0.182  10.405  21.350  0.00  0.00    +0.000 A 
ATOM     20 CL   UNL     1      -0.658  11.703  22.106  0.00  0.00    +0.000 Cl
ATOM     21  C   UNL     1       0.916   9.512  22.126  0.00  0.00    +0.000 A 
ATOM     22  C   UNL     1       1.571   8.438  21.516  0.00  0.00    +0.000 A 
ENDBRANCH  15  16
BRANCH   8  23
ATOM     23  O   UNL     1       4.217   1.351  17.652  0.00  0.00    +0.000 OA
ATOM     24  H   UNL     1       4.347   0.703  18.360  0.00  0.00    +0.000 HD
ENDBRANCH   8  23
TORSDOF 2
ENDMDL
MODEL 8
REMARK VINA RESULT:      -7.3      1.596      2.302
REMARK  Name = 
REMARK  2 active torsions:
REMARK  status: ('A' for Active; 'I' for Inactive)
REMARK    1  A    between atoms: C_8  and  O_9
REMARK    2  A    between atoms: N_16  and  C_17
REMARK                            x       y       z     vdW  Elec       q    Type
REMARK                         _______ _______ _______ _____ _____    ______ ____
ROOT
ATOM      1  O   UNL     1       3.172   8.438  17.824  0.00  0.00    +0.000 OA
ATOM      2  C   UNL     1       2.979   7.342  18.350  0.00  0.00    +0.000 C 
ATOM      3  C   UNL     1       3.675   6.162  17.781  0.00  0.00    +0.000 A 
ATOM      4  C   UNL     1       4.586   6.355  16.736  0.00  0.00    +0.000 A 
ATOM      5  C   UNL     1       5.229   5.267  16.163  0.00  0.00    +0.000 A 
ATOM      6  C   UNL     1       4.953   3.978  16.622  0.00  0.00    +0.000 A 
ATOM      7  C   UNL     1       4.038   3.749  17.677  0.00  0.00    +0.000 A 
ATOM      8  C   UNL     1       3.706   2.467  18.175  0.00  0.00    +0.000 A 
ATOM      9  C   UNL     1       2.810   2.297  19.225  0.00  0.00    +0.000 A 
ATOM     10  C   UNL     1       2.230   3.409  19.820  0.00  0.00    +0.000 A 
ATOM     11  C   UNL     1       2.538   4.693  19.355  0.00  0.00    +0.000 A 
ATOM     12  C   UNL     1       3.412   4.877  18.275  0.00  0.00    +0.000 A 
ATOM     13  C   UNL     1       1.930   5.858  20.032  0.00  0.00    +0.000 C 
ATOM     14  O   UNL     1       1.222   5.647  21.016  0.00  0.00    +0.000 OA
ATOM     15  N   UNL     1       2.172   7.120  19.474  0.00  0.00    +0.000 N 
ENDROOT
BRANCH  15  16
ATOM     16  C   UNL     1       1.527   8.244  20.076  0.00  0.00    +0.000 A 
ATOM     17  C   UNL     1       1.543   8.416  21.466  0.00  0.00    +0.000 A 
ATOM     18  C   UNL     1       0.970   9.552  22.046  0.00  0.00    +0.000 A 
ATOM     19  C   UNL     1       0.345  10.501  21.240  0.00  0.00    +0.000 A 
ATOM     20 CL   UNL     1      -0.362  11.898  21.953  0.00  0.00    +0.000 Cl
ATOM     21  C   UNL     1       0.296  10.330  19.859  0.00  0.00    +0.000 A 
ATOM     22  C   UNL     1       0.900   9.212  19.276  0.00  0.00    +0.000 A 
ENDBRANCH  15  16
BRANCH   8  23
ATOM     23  O   UNL     1       4.225   1.296  17.684  0.00  0.00    +0.000 OA
ATOM     24  H   UNL     1       4.452   0.695  18.409  0.00  0.00    +0.000 HD
ENDBRANCH   8  23
TORSDOF 2
ENDMDL
MODEL 9
REMARK VINA RESULT:      -7.2      3.154      6.555
REMARK  Name = 
REMARK  2 active torsions:
REMARK  status: ('A' for Active; 'I' for Inactive)
REMARK    1  A    between atoms: C_8  and  O_9
REMARK    2  A    between atoms: N_16  and  C_17
REMARK                            x       y       z     vdW  Elec       q    Type
REMARK                         _______ _______ _______ _____ _____    ______ ____
ROOT
ATOM      1  O   UNL     1       1.949   9.434  17.225  0.00  0.00    +0.000 OA
ATOM      2  C   UNL     1       1.615   9.190  18.384  0.00  0.00    +0.000 C 
ATOM      3  C   UNL     1       0.788  10.193  19.099  0.00  0.00    +0.000 A 
ATOM      4  C   UNL     1       0.349  11.325  18.402  0.00  0.00    +0.000 A 
ATOM      5  C   UNL     1      -0.401  12.295  19.053  0.00  0.00    +0.000 A 
ATOM      6  C   UNL     1      -0.701  12.146  20.407  0.00  0.00    +0.000 A 
ATOM      7  C   UNL     1      -0.272  11.015  21.140  0.00  0.00    +0.000 A 
ATOM      8  C   UNL     1      -0.531  10.815  22.517  0.00  0.00    +0.000 A 
ATOM      9  C   UNL     1      -0.099   9.675  23.187  0.00  0.00    +0.000 A 
ATOM     10  C   UNL     1       0.595   8.693  22.495  0.00  0.00    +0.000 A 
ATOM     11  C   UNL     1       0.866   8.855  21.131  0.00  0.00    +0.000 A 
ATOM     12  C   UNL     1       0.467  10.013  20.451  0.00  0.00    +0.000 A 
ATOM     13  C   UNL     1       1.576   7.774  20.415  0.00  0.00    +0.000 C 
ATOM     14  O   UNL     1       1.847   6.750  21.041  0.00  0.00    +0.000 OA
ATOM     15  N   UNL     1       1.928   8.015  19.081  0.00  0.00    +0.000 N 
ENDROOT
BRANCH  15  16
ATOM     16  C   UNL     1       2.682   7.007  18.403  0.00  0.00    +0.000 A 
ATOM     17  C   UNL     1       3.985   7.268  17.961  0.00  0.00    +0.000 A 
ATOM     18  C   UNL     1       4.743   6.259  17.359  0.00  0.00    +0.000 A 
ATOM     19  C   UNL     1       4.186   4.997  17.161  0.00  0.00    +0.000 A 
ATOM     20 CL   UNL     1       5.117   3.756  16.418  0.00  0.00    +0.000 Cl
ATOM     21  C   UNL     1       2.881   4.732  17.568  0.00  0.00    +0.000 A 
ATOM     22  C   UNL     1       2.136   5.730  18.202  0.00  0.00    +0.000 A 
ENDBRANCH  15  16
BRANCH   8  23
ATOM     23  O   UNL     1      -1.220  11.703  23.303  0.00  0.00    +0.000 OA
ATOM     24  H   UNL     1      -0.701  11.935  24.087  0.00  0.00    +0.000 HD
ENDBRANCH   8  23
TORSDOF 2
ENDMDL
