MODEL 1
REMARK VINA RESULT:      -7.8      0.000      0.000
REMARK  Name = 
REMARK  16 active torsions:
REMARK  status: ('A' for Active; 'I' for Inactive)
REMARK    1  A    between atoms: C_1  and  C_2
REMARK    2  A    between atoms: C_2  and  O_4
REMARK    3  A    between atoms: O_4  and  C_5
REMARK    4  A    between atoms: C_5  and  C_6
REMARK    5  A    between atoms: C_8  and  O_9
REMARK    6  A    between atoms: O_9  and  C_10
REMARK    7  A    between atoms: C_13  and  C_14
REMARK    8  A    between atoms: C_18  and  O_19
REMARK    9  A    between atoms: O_19  and  C_20
REMARK   10  A    between atoms: C_20  and  C_21
REMARK   11  A    between atoms: C_23  and  O_24
REMARK   12  A    between atoms: O_24  and  C_25
REMARK   13  A    between atoms: C_25  and  C_26
REMARK   14  A    between atoms: C_28  and  O_29
REMARK   15  A    between atoms: O_29  and  C_30
REMARK   16  A    between atoms: C_30  and  C_31
REMARK                            x       y       z     vdW  Elec       q    Type
REMARK                         _______ _______ _______ _____ _____    ______ ____
ROOT
ATOM      1  C   UNL     1       2.161   4.252  17.813  0.00  0.00    +0.000 C 
ATOM      2  O   UNL     1       2.310   5.532  18.456  0.00  0.00    +0.000 OA
ATOM      3  C   UNL     1       3.133   6.458  17.737  0.00  0.00    +0.000 C 
ATOM      4  C   UNL     1       4.546   5.878  17.478  0.00  0.00    +0.000 C 
ATOM      5  C   UNL     1       4.443   4.519  16.773  0.00  0.00    +0.000 C 
ATOM      6  C   UNL     1       3.534   3.588  17.612  0.00  0.00    +0.000 C 
ENDROOT
BRANCH   1   7
ATOM      7  C   UNL     1       1.241   3.420  18.729  0.00  0.00    +0.000 C 
BRANCH   7   8
ATOM      8  O   UNL     1       0.843   4.120  19.917  0.00  0.00    +0.000 OA
BRANCH   8  10
ATOM      9  C   UNL     1       1.355   2.524  21.556  0.00  0.00    +0.000 C 
ATOM     10  C   UNL     1       1.609   3.899  21.019  0.00  0.00    +0.000 C 
ATOM     11  O   UNL     1       2.373   4.713  21.517  0.00  0.00    +0.000 OA
ENDBRANCH   8  10
ENDBRANCH   7   8
ENDBRANCH   1   7
BRANCH   3  12
ATOM     12  O   UNL     1       3.325   7.644  18.524  0.00  0.00    +0.000 OA
BRANCH  12  13
ATOM     13  C   UNL     1       2.225   8.390  18.835  0.00  0.00    +0.000 A 
ATOM     14  C   UNL     1       1.643   8.501  20.098  0.00  0.00    +0.000 A 
ATOM     15  C   UNL     1       0.509   9.297  20.281  0.00  0.00    +0.000 A 
ATOM     16  C   UNL     1      -0.032   9.997  19.200  0.00  0.00    +0.000 A 
ATOM     17  C   UNL     1       0.549   9.901  17.936  0.00  0.00    +0.000 A 
ATOM     18  C   UNL     1       1.680   9.100  17.760  0.00  0.00    +0.000 A 
BRANCH  16  19
ATOM     19  C   UNL     1      -1.213  10.862  19.395  0.00  0.00    +0.000 C 
ATOM     20  O   UNL     1      -2.197  10.794  18.669  0.00  0.00    +0.000 OA
ENDBRANCH  16  19
ENDBRANCH  12  13
ENDBRANCH   3  12
BRANCH   4  21
ATOM     21  O   UNL     1       5.446   6.794  16.801  0.00  0.00    +0.000 OA
BRANCH  21  22
ATOM     22  C   UNL     1       6.614   7.139  17.401  0.00  0.00    +0.000 C 
ATOM     23  C   UNL     1       6.880   6.256  18.581  0.00  0.00    +0.000 C 
ATOM     24  O   UNL     1       7.363   8.027  17.022  0.00  0.00    +0.000 OA
ENDBRANCH  21  22
ENDBRANCH   4  21
BRANCH   5  25
ATOM     25  O   UNL     1       5.738   3.887  16.662  0.00  0.00    +0.000 OA
BRANCH  25  26
ATOM     26  C   UNL     1       6.504   4.158  15.577  0.00  0.00    +0.000 C 
ATOM     27  C   UNL     1       5.693   4.072  14.319  0.00  0.00    +0.000 C 
ATOM     28  O   UNL     1       7.686   4.461  15.598  0.00  0.00    +0.000 OA
ENDBRANCH  25  26
ENDBRANCH   5  25
BRANCH   6  29
ATOM     29  O   UNL     1       4.107   3.405  18.935  0.00  0.00    +0.000 OA
BRANCH  29  30
ATOM     30  C   UNL     1       4.365   2.143  19.359  0.00  0.00    +0.000 C 
ATOM     31  C   UNL     1       3.880   1.154  18.342  0.00  0.00    +0.000 C 
ATOM     32  O   UNL     1       4.941   1.841  20.393  0.00  0.00    +0.000 OA
ENDBRANCH  29  30
ENDBRANCH   6  29
TORSDOF 12
ENDMDL
MODEL 2
REMARK VINA RESULT:      -7.8      0.737      1.242
REMARK  Name = 
REMARK  16 active torsions:
REMARK  status: ('A' for Active; 'I' for Inactive)
REMARK    1  A    between atoms: C_1  and  C_2
REMARK    2  A    between atoms: C_2  and  O_4
REMARK    3  A    between atoms: O_4  and  C_5
REMARK    4  A    between atoms: C_5  and  C_6
REMARK    5  A    between atoms: C_8  and  O_9
REMARK    6  A    between atoms: O_9  and  C_10
REMARK    7  A    between atoms: C_13  and  C_14
REMARK    8  A    between atoms: C_18  and  O_19
REMARK    9  A    between atoms: O_19  and  C_20
REMARK   10  A    between atoms: C_20  and  C_21
REMARK   11  A    between atoms: C_23  and  O_24
REMARK   12  A    between atoms: O_24  and  C_25
REMARK   13  A    between atoms: C_25  and  C_26
REMARK   14  A    between atoms: C_28  and  O_29
REMARK   15  A    between atoms: O_29  and  C_30
REMARK   16  A    between atoms: C_30  and  C_31
REMARK                            x       y       z     vdW  Elec       q    Type
REMARK                         _______ _______ _______ _____ _____    ______ ____
ROOT
ATOM      1  C   UNL     1       2.091   4.110  17.638  0.00  0.00    +0.000 C 
ATOM      2  O   UNL     1       2.242   5.338  18.375  0.00  0.00    +0.000 OA
ATOM      3  C   UNL     1       3.051   6.321  17.718  0.00  0.00    +0.000 C 
ATOM      4  C   UNL     1       4.463   5.772  17.398  0.00  0.00    +0.000 C 
ATOM      5  C   UNL     1       4.358   4.470  16.592  0.00  0.00    +0.000 C 
ATOM      6  C   UNL     1       3.465   3.472  17.370  0.00  0.00    +0.000 C 
ENDROOT
BRANCH   1   7
ATOM      7  C   UNL     1       1.188   3.205  18.501  0.00  0.00    +0.000 C 
BRANCH   7   8
ATOM      8  O   UNL     1       0.744   3.836  19.710  0.00  0.00    +0.000 OA
BRANCH   8  10
ATOM      9  C   UNL     1       2.241   4.533  21.374  0.00  0.00    +0.000 C 
ATOM     10  C   UNL     1       1.367   3.435  20.851  0.00  0.00    +0.000 C 
ATOM     11  O   UNL     1       1.254   2.331  21.362  0.00  0.00    +0.000 OA
ENDBRANCH   8  10
ENDBRANCH   7   8
ENDBRANCH   1   7
BRANCH   3  12
ATOM     12  O   UNL     1       3.246   7.446  18.591  0.00  0.00    +0.000 OA
BRANCH  12  13
ATOM     13  C   UNL     1       2.200   8.301  18.777  0.00  0.00    +0.000 A 
ATOM     14  C   UNL     1       1.580   9.063  17.785  0.00  0.00    +0.000 A 
ATOM     15  C   UNL     1       0.517   9.909  18.112  0.00  0.00    +0.000 A 
ATOM     16  C   UNL     1       0.062   9.978  19.431  0.00  0.00    +0.000 A 
ATOM     17  C   UNL     1       0.668   9.214  20.427  0.00  0.00    +0.000 A 
ATOM     18  C   UNL     1       1.734   8.373  20.093  0.00  0.00    +0.000 A 
BRANCH  16  19
ATOM     19  C   UNL     1      -1.080  10.850  19.775  0.00  0.00    +0.000 C 
ATOM     20  O   UNL     1      -1.730  11.440  18.921  0.00  0.00    +0.000 OA
ENDBRANCH  16  19
ENDBRANCH  12  13
ENDBRANCH   3  12
BRANCH   4  21
ATOM     21  O   UNL     1       5.349   6.743  16.781  0.00  0.00    +0.000 OA
BRANCH  21  22
ATOM     22  C   UNL     1       6.534   7.032  17.379  0.00  0.00    +0.000 C 
ATOM     23  C   UNL     1       6.758   6.138  18.560  0.00  0.00    +0.000 C 
ATOM     24  O   UNL     1       7.324   7.881  16.996  0.00  0.00    +0.000 OA
ENDBRANCH  21  22
ENDBRANCH   4  21
BRANCH   5  25
ATOM     25  O   UNL     1       5.654   3.856  16.417  0.00  0.00    +0.000 OA
BRANCH  25  26
ATOM     26  C   UNL     1       6.387   4.184  15.324  0.00  0.00    +0.000 C 
ATOM     27  C   UNL     1       5.569   4.047  14.076  0.00  0.00    +0.000 C 
ATOM     28  O   UNL     1       7.546   4.567  15.334  0.00  0.00    +0.000 OA
ENDBRANCH  25  26
ENDBRANCH   5  25
BRANCH   6  29
ATOM     29  O   UNL     1       4.057   3.192  18.668  0.00  0.00    +0.000 OA
BRANCH  29  30
ATOM     30  C   UNL     1       4.164   1.900  19.065  0.00  0.00    +0.000 C 
ATOM     31  C   UNL     1       4.706   1.838  20.461  0.00  0.00    +0.000 C 
ATOM     32  O   UNL     1       3.834   0.922  18.410  0.00  0.00    +0.000 OA
ENDBRANCH  29  30
ENDBRANCH   6  29
TORSDOF 12
ENDMDL
MODEL 3
REMARK VINA RESULT:      -7.3      0.970      1.155
REMARK  Name = 
REMARK  16 active torsions:
REMARK  status: ('A' for Active; 'I' for Inactive)
REMARK    1  A    between atoms: C_1  and  C_2
REMARK    2  A    between atoms: C_2  and  O_4
REMARK    3  A    between atoms: O_4  and  C_5
REMARK    4  A    between atoms: C_5  and  C_6
REMARK    5  A    between atoms: C_8  and  O_9
REMARK    6  A    between atoms: O_9  and  C_10
REMARK    7  A    between atoms: C_13  and  C_14
REMARK    8  A    between atoms: C_18  and  O_19
REMARK    9  A    between atoms: O_19  and  C_20
REMARK   10  A    between atoms: C_20  and  C_21
REMARK   11  A    between atoms: C_23  and  O_24
REMARK   12  A    between atoms: O_24  and  C_25
REMARK   13  A    between atoms: C_25  and  C_26
REMARK   14  A    between atoms: C_28  and  O_29
REMARK   15  A    between atoms: O_29  and  C_30
REMARK   16  A    between atoms: C_30  and  C_31
REMARK                            x       y       z     vdW  Elec       q    Type
REMARK                         _______ _______ _______ _____ _____    ______ ____
ROOT
ATOM      1  C   UNL     1       1.981   4.156  17.711  0.00  0.00    +0.000 C 
ATOM      2  O   UNL     1       2.169   5.369  18.464  0.00  0.00    +0.000 OA
ATOM      3  C   UNL     1       2.957   6.360  17.794  0.00  0.00    +0.000 C 
ATOM      4  C   UNL     1       4.353   5.809  17.407  0.00  0.00    +0.000 C 
ATOM      5  C   UNL     1       4.207   4.523  16.582  0.00  0.00    +0.000 C 
ATOM      6  C   UNL     1       3.340   3.515  17.376  0.00  0.00    +0.000 C 
ENDROOT
BRANCH   1   7
ATOM      7  C   UNL     1       1.107   3.239  18.591  0.00  0.00    +0.000 C 
BRANCH   7   8
ATOM      8  O   UNL     1       0.711   3.852  19.826  0.00  0.00    +0.000 OA
BRANCH   8  10
ATOM      9  C   UNL     1       2.285   4.531  21.425  0.00  0.00    +0.000 C 
ATOM     10  C   UNL     1       1.384   3.440  20.934  0.00  0.00    +0.000 C 
ATOM     11  O   UNL     1       1.290   2.332  21.442  0.00  0.00    +0.000 OA
ENDBRANCH   8  10
ENDBRANCH   7   8
ENDBRANCH   1   7
BRANCH   3  12
ATOM     12  O   UNL     1       3.195   7.466  18.680  0.00  0.00    +0.000 OA
BRANCH  12  13
ATOM     13  C   UNL     1       2.139   8.271  18.996  0.00  0.00    +0.000 A 
ATOM     14  C   UNL     1       1.560   8.401  20.259  0.00  0.00    +0.000 A 
ATOM     15  C   UNL     1       0.473   9.258  20.448  0.00  0.00    +0.000 A 
ATOM     16  C   UNL     1      -0.022  10.001  19.374  0.00  0.00    +0.000 A 
ATOM     17  C   UNL     1       0.555   9.885  18.110  0.00  0.00    +0.000 A 
ATOM     18  C   UNL     1       1.639   9.022  17.928  0.00  0.00    +0.000 A 
BRANCH  16  19
ATOM     19  C   UNL     1      -1.153  10.930  19.575  0.00  0.00    +0.000 C 
ATOM     20  O   UNL     1      -1.170  11.747  20.488  0.00  0.00    +0.000 OA
ENDBRANCH  16  19
ENDBRANCH  12  13
ENDBRANCH   3  12
BRANCH   4  21
ATOM     21  O   UNL     1       5.219   6.786  16.774  0.00  0.00    +0.000 OA
BRANCH  21  22
ATOM     22  C   UNL     1       6.417   7.078  17.345  0.00  0.00    +0.000 C 
ATOM     23  C   UNL     1       6.690   6.155  18.493  0.00  0.00    +0.000 C 
ATOM     24  O   UNL     1       7.182   7.950  16.964  0.00  0.00    +0.000 OA
ENDBRANCH  21  22
ENDBRANCH   4  21
BRANCH   5  25
ATOM     25  O   UNL     1       5.491   3.906  16.343  0.00  0.00    +0.000 OA
BRANCH  25  26
ATOM     26  C   UNL     1       6.029   3.982  15.100  0.00  0.00    +0.000 C 
ATOM     27  C   UNL     1       7.351   4.687  15.137  0.00  0.00    +0.000 C 
ATOM     28  O   UNL     1       5.536   3.523  14.082  0.00  0.00    +0.000 OA
ENDBRANCH  25  26
ENDBRANCH   5  25
BRANCH   6  29
ATOM     29  O   UNL     1       3.980   3.207  18.643  0.00  0.00    +0.000 OA
BRANCH  29  30
ATOM     30  C   UNL     1       4.107   1.906  19.004  0.00  0.00    +0.000 C 
ATOM     31  C   UNL     1       4.693   1.814  20.380  0.00  0.00    +0.000 C 
ATOM     32  O   UNL     1       3.763   0.943  18.335  0.00  0.00    +0.000 OA
ENDBRANCH  29  30
ENDBRANCH   6  29
TORSDOF 12
ENDMDL
MODEL 4
REMARK VINA RESULT:      -7.3      1.684      5.083
REMARK  Name = 
REMARK  16 active torsions:
REMARK  status: ('A' for Active; 'I' for Inactive)
REMARK    1  A    between atoms: C_1  and  C_2
REMARK    2  A    between atoms: C_2  and  O_4
REMARK    3  A    between atoms: O_4  and  C_5
REMARK    4  A    between atoms: C_5  and  C_6
REMARK    5  A    between atoms: C_8  and  O_9
REMARK    6  A    between atoms: O_9  and  C_10
REMARK    7  A    between atoms: C_13  and  C_14
REMARK    8  A    between atoms: C_18  and  O_19
REMARK    9  A    between atoms: O_19  and  C_20
REMARK   10  A    between atoms: C_20  and  C_21
REMARK   11  A    between atoms: C_23  and  O_24
REMARK   12  A    between atoms: O_24  and  C_25
REMARK   13  A    between atoms: C_25  and  C_26
REMARK   14  A    between atoms: C_28  and  O_29
REMARK   15  A    between atoms: O_29  and  C_30
REMARK   16  A    between atoms: C_30  and  C_31
REMARK                            x       y       z     vdW  Elec       q    Type
REMARK                         _______ _______ _______ _____ _____    ______ ____
ROOT
ATOM      1  C   UNL     1       5.974   6.449  17.733  0.00  0.00    +0.000 C 
ATOM      2  O   UNL     1       4.744   7.186  17.605  0.00  0.00    +0.000 OA
ATOM      3  C   UNL     1       3.667   6.675  18.399  0.00  0.00    +0.000 C 
ATOM      4  C   UNL     1       3.376   5.189  18.072  0.00  0.00    +0.000 C 
ATOM      5  C   UNL     1       4.656   4.353  18.215  0.00  0.00    +0.000 C 
ATOM      6  C   UNL     1       5.763   4.978  17.331  0.00  0.00    +0.000 C 
ENDROOT
BRANCH   1   7
ATOM      7  C   UNL     1       6.994   7.160  16.821  0.00  0.00    +0.000 C 
BRANCH   7   8
ATOM      8  O   UNL     1       7.331   8.480  17.270  0.00  0.00    +0.000 OA
BRANCH   8  10
ATOM      9  C   UNL     1       8.798   9.956  18.349  0.00  0.00    +0.000 C 
ATOM     10  C   UNL     1       8.290   8.552  18.231  0.00  0.00    +0.000 C 
ATOM     11  O   UNL     1       8.701   7.605  18.886  0.00  0.00    +0.000 OA
ENDBRANCH   8  10
ENDBRANCH   7   8
ENDBRANCH   1   7
BRANCH   3  12
ATOM     12  O   UNL     1       2.461   7.395  18.097  0.00  0.00    +0.000 OA
BRANCH  12  13
ATOM     13  C   UNL     1       1.875   8.112  19.100  0.00  0.00    +0.000 A 
ATOM     14  C   UNL     1       1.744   7.703  20.428  0.00  0.00    +0.000 A 
ATOM     15  C   UNL     1       1.114   8.535  21.358  0.00  0.00    +0.000 A 
ATOM     16  C   UNL     1       0.631   9.784  20.962  0.00  0.00    +0.000 A 
ATOM     17  C   UNL     1       0.766  10.205  19.639  0.00  0.00    +0.000 A 
ATOM     18  C   UNL     1       1.394   9.366  18.714  0.00  0.00    +0.000 A 
BRANCH  16  19
ATOM     19  C   UNL     1      -0.010  10.677  21.948  0.00  0.00    +0.000 C 
ATOM     20  O   UNL     1      -0.070  10.395  23.139  0.00  0.00    +0.000 OA
ENDBRANCH  16  19
ENDBRANCH  12  13
ENDBRANCH   3  12
BRANCH   4  21
ATOM     21  O   UNL     1       2.256   4.630  18.807  0.00  0.00    +0.000 OA
BRANCH  21  22
ATOM     22  C   UNL     1       1.268   3.996  18.125  0.00  0.00    +0.000 C 
ATOM     23  C   UNL     1       0.688   2.887  18.949  0.00  0.00    +0.000 C 
ATOM     24  O   UNL     1       0.881   4.299  17.007  0.00  0.00    +0.000 OA
ENDBRANCH  21  22
ENDBRANCH   4  21
BRANCH   5  25
ATOM     25  O   UNL     1       4.448   2.996  17.764  0.00  0.00    +0.000 OA
BRANCH  25  26
ATOM     26  C   UNL     1       4.171   2.039  18.685  0.00  0.00    +0.000 C 
ATOM     27  C   UNL     1       4.604   2.477  20.051  0.00  0.00    +0.000 C 
ATOM     28  O   UNL     1       3.622   0.973  18.460  0.00  0.00    +0.000 OA
ENDBRANCH  25  26
ENDBRANCH   5  25
BRANCH   6  29
ATOM     29  O   UNL     1       5.339   4.981  15.941  0.00  0.00    +0.000 OA
BRANCH  29  30
ATOM     30  C   UNL     1       6.178   4.467  15.008  0.00  0.00    +0.000 C 
ATOM     31  C   UNL     1       5.386   3.868  13.885  0.00  0.00    +0.000 C 
ATOM     32  O   UNL     1       7.399   4.513  15.043  0.00  0.00    +0.000 OA
ENDBRANCH  29  30
ENDBRANCH   6  29
TORSDOF 12
ENDMDL
MODEL 5
REMARK VINA RESULT:      -7.1      1.580      5.062
REMARK  Name = 
REMARK  16 active torsions:
REMARK  status: ('A' for Active; 'I' for Inactive)
REMARK    1  A    between atoms: C_1  and  C_2
REMARK    2  A    between atoms: C_2  and  O_4
REMARK    3  A    between atoms: O_4  and  C_5
REMARK    4  A    between atoms: C_5  and  C_6
REMARK    5  A    between atoms: C_8  and  O_9
REMARK    6  A    between atoms: O_9  and  C_10
REMARK    7  A    between atoms: C_13  and  C_14
REMARK    8  A    between atoms: C_18  and  O_19
REMARK    9  A    between atoms: O_19  and  C_20
REMARK   10  A    between atoms: C_20  and  C_21
REMARK   11  A    between atoms: C_23  and  O_24
REMARK   12  A    between atoms: O_24  and  C_25
REMARK   13  A    between atoms: C_25  and  C_26
REMARK   14  A    between atoms: C_28  and  O_29
REMARK   15  A    between atoms: O_29  and  C_30
REMARK   16  A    between atoms: C_30  and  C_31
REMARK                            x       y       z     vdW  Elec       q    Type
REMARK                         _______ _______ _______ _____ _____    ______ ____
ROOT
ATOM      1  C   UNL     1       5.982   6.605  18.124  0.00  0.00    +0.000 C 
ATOM      2  O   UNL     1       4.751   7.281  17.808  0.00  0.00    +0.000 OA
ATOM      3  C   UNL     1       3.610   6.784  18.519  0.00  0.00    +0.000 C 
ATOM      4  C   UNL     1       3.407   5.267  18.277  0.00  0.00    +0.000 C 
ATOM      5  C   UNL     1       4.689   4.497  18.619  0.00  0.00    +0.000 C 
ATOM      6  C   UNL     1       5.866   5.102  17.815  0.00  0.00    +0.000 C 
ENDROOT
BRANCH   1   7
ATOM      7  C   UNL     1       7.073   7.290  17.274  0.00  0.00    +0.000 C 
BRANCH   7   8
ATOM      8  O   UNL     1       8.135   7.848  18.061  0.00  0.00    +0.000 OA
BRANCH   8  10
ATOM      9  C   UNL     1       9.206   9.654  19.103  0.00  0.00    +0.000 C 
ATOM     10  C   UNL     1       8.213   9.205  18.076  0.00  0.00    +0.000 C 
ATOM     11  O   UNL     1       7.549   9.954  17.373  0.00  0.00    +0.000 OA
ENDBRANCH   8  10
ENDBRANCH   7   8
ENDBRANCH   1   7
BRANCH   3  12
ATOM     12  O   UNL     1       2.422   7.430  18.035  0.00  0.00    +0.000 OA
BRANCH  12  13
ATOM     13  C   UNL     1       1.838   8.373  18.829  0.00  0.00    +0.000 A 
ATOM     14  C   UNL     1       1.532   8.228  20.183  0.00  0.00    +0.000 A 
ATOM     15  C   UNL     1       0.925   9.275  20.882  0.00  0.00    +0.000 A 
ATOM     16  C   UNL     1       0.641  10.476  20.228  0.00  0.00    +0.000 A 
ATOM     17  C   UNL     1       0.951  10.635  18.878  0.00  0.00    +0.000 A 
ATOM     18  C   UNL     1       1.554   9.582  18.184  0.00  0.00    +0.000 A 
BRANCH  16  19
ATOM     19  C   UNL     1       0.025  11.595  20.970  0.00  0.00    +0.000 C 
ATOM     20  O   UNL     1       0.695  12.413  21.588  0.00  0.00    +0.000 OA
ENDBRANCH  16  19
ENDBRANCH  12  13
ENDBRANCH   3  12
BRANCH   4  21
ATOM     21  O   UNL     1       2.232   4.717  18.927  0.00  0.00    +0.000 OA
BRANCH  21  22
ATOM     22  C   UNL     1       1.369   3.958  18.204  0.00  0.00    +0.000 C 
ATOM     23  C   UNL     1       0.773   2.881  19.057  0.00  0.00    +0.000 C 
ATOM     24  O   UNL     1       1.091   4.140  17.028  0.00  0.00    +0.000 OA
ENDBRANCH  21  22
ENDBRANCH   4  21
BRANCH   5  25
ATOM     25  O   UNL     1       4.577   3.104  18.253  0.00  0.00    +0.000 OA
BRANCH  25  26
ATOM     26  C   UNL     1       4.467   2.179  19.239  0.00  0.00    +0.000 C 
ATOM     27  C   UNL     1       3.746   0.961  18.746  0.00  0.00    +0.000 C 
ATOM     28  O   UNL     1       4.909   2.290  20.372  0.00  0.00    +0.000 OA
ENDBRANCH  25  26
ENDBRANCH   5  25
BRANCH   6  29
ATOM     29  O   UNL     1       5.598   4.988  16.391  0.00  0.00    +0.000 OA
BRANCH  29  30
ATOM     30  C   UNL     1       6.553   4.447  15.595  0.00  0.00    +0.000 C 
ATOM     31  C   UNL     1       5.951   4.030  14.287  0.00  0.00    +0.000 C 
ATOM     32  O   UNL     1       7.739   4.345  15.871  0.00  0.00    +0.000 OA
ENDBRANCH  29  30
ENDBRANCH   6  29
TORSDOF 12
ENDMDL
MODEL 6
REMARK VINA RESULT:      -7.1      1.687      5.193
REMARK  Name = 
REMARK  16 active torsions:
REMARK  status: ('A' for Active; 'I' for Inactive)
REMARK    1  A    between atoms: C_1  and  C_2
REMARK    2  A    between atoms: C_2  and  O_4
REMARK    3  A    between atoms: O_4  and  C_5
REMARK    4  A    between atoms: C_5  and  C_6
REMARK    5  A    between atoms: C_8  and  O_9
REMARK    6  A    between atoms: O_9  and  C_10
REMARK    7  A    between atoms: C_13  and  C_14
REMARK    8  A    between atoms: C_18  and  O_19
REMARK    9  A    between atoms: O_19  and  C_20
REMARK   10  A    between atoms: C_20  and  C_21
REMARK   11  A    between atoms: C_23  and  O_24
REMARK   12  A    between atoms: O_24  and  C_25
REMARK   13  A    between atoms: C_25  and  C_26
REMARK   14  A    between atoms: C_28  and  O_29
REMARK   15  A    between atoms: O_29  and  C_30
REMARK   16  A    between atoms: C_30  and  C_31
REMARK                            x       y       z     vdW  Elec       q    Type
REMARK                         _______ _______ _______ _____ _____    ______ ____
ROOT
ATOM      1  C   UNL     1       6.005   6.418  18.155  0.00  0.00    +0.000 C 
ATOM      2  O   UNL     1       4.784   7.137  17.901  0.00  0.00    +0.000 OA
ATOM      3  C   UNL     1       3.640   6.610  18.583  0.00  0.00    +0.000 C 
ATOM      4  C   UNL     1       3.406   5.119  18.232  0.00  0.00    +0.000 C 
ATOM      5  C   UNL     1       4.677   4.302  18.506  0.00  0.00    +0.000 C 
ATOM      6  C   UNL     1       5.859   4.944  17.737  0.00  0.00    +0.000 C 
ENDROOT
BRANCH   1   7
ATOM      7  C   UNL     1       7.102   7.144  17.349  0.00  0.00    +0.000 C 
BRANCH   7   8
ATOM      8  O   UNL     1       8.100   7.758  18.178  0.00  0.00    +0.000 OA
BRANCH   8  10
ATOM      9  C   UNL     1       9.146   9.632  19.120  0.00  0.00    +0.000 C 
ATOM     10  C   UNL     1       8.191   9.112  18.091  0.00  0.00    +0.000 C 
ATOM     11  O   UNL     1       7.564   9.809  17.306  0.00  0.00    +0.000 OA
ENDBRANCH   8  10
ENDBRANCH   7   8
ENDBRANCH   1   7
BRANCH   3  12
ATOM     12  O   UNL     1       2.460   7.311  18.158  0.00  0.00    +0.000 OA
BRANCH  12  13
ATOM     13  C   UNL     1       1.849   8.138  19.055  0.00  0.00    +0.000 A 
ATOM     14  C   UNL     1       1.283   9.381  18.769  0.00  0.00    +0.000 A 
ATOM     15  C   UNL     1       0.691  10.133  19.786  0.00  0.00    +0.000 A 
ATOM     16  C   UNL     1       0.650   9.632  21.089  0.00  0.00    +0.000 A 
ATOM     17  C   UNL     1       1.203   8.387  21.384  0.00  0.00    +0.000 A 
ATOM     18  C   UNL     1       1.797   7.642  20.362  0.00  0.00    +0.000 A 
BRANCH  16  19
ATOM     19  C   UNL     1      -0.000  10.413  22.162  0.00  0.00    +0.000 C 
ATOM     20  O   UNL     1      -0.634   9.878  23.064  0.00  0.00    +0.000 OA
ENDBRANCH  16  19
ENDBRANCH  12  13
ENDBRANCH   3  12
BRANCH   4  21
ATOM     21  O   UNL     1       2.226   4.544  18.850  0.00  0.00    +0.000 OA
BRANCH  21  22
ATOM     22  C   UNL     1       1.296   3.938  18.066  0.00  0.00    +0.000 C 
ATOM     23  C   UNL     1       0.682   2.775  18.782  0.00  0.00    +0.000 C 
ATOM     24  O   UNL     1       0.981   4.302  16.944  0.00  0.00    +0.000 OA
ENDBRANCH  21  22
ENDBRANCH   4  21
BRANCH   5  25
ATOM     25  O   UNL     1       4.536   2.942  18.039  0.00  0.00    +0.000 OA
BRANCH  25  26
ATOM     26  C   UNL     1       4.200   1.979  18.933  0.00  0.00    +0.000 C 
ATOM     27  C   UNL     1       4.513   2.421  20.331  0.00  0.00    +0.000 C 
ATOM     28  O   UNL     1       3.687   0.905  18.663  0.00  0.00    +0.000 OA
ENDBRANCH  25  26
ENDBRANCH   5  25
BRANCH   6  29
ATOM     29  O   UNL     1       5.578   4.940  16.312  0.00  0.00    +0.000 OA
BRANCH  29  30
ATOM     30  C   UNL     1       6.521   4.448  15.469  0.00  0.00    +0.000 C 
ATOM     31  C   UNL     1       5.886   4.054  14.169  0.00  0.00    +0.000 C 
ATOM     32  O   UNL     1       7.717   4.370  15.704  0.00  0.00    +0.000 OA
ENDBRANCH  29  30
ENDBRANCH   6  29
TORSDOF 12
ENDMDL
MODEL 7
REMARK VINA RESULT:      -7.0      1.538      5.017
REMARK  Name = 
REMARK  16 active torsions:
REMARK  status: ('A' for Active; 'I' for Inactive)
REMARK    1  A    between atoms: C_1  and  C_2
REMARK    2  A    between atoms: C_2  and  O_4
REMARK    3  A    between atoms: O_4  and  C_5
REMARK    4  A    between atoms: C_5  and  C_6
REMARK    5  A    between atoms: C_8  and  O_9
REMARK    6  A    between atoms: O_9  and  C_10
REMARK    7  A    between atoms: C_13  and  C_14
REMARK    8  A    between atoms: C_18  and  O_19
REMARK    9  A    between atoms: O_19  and  C_20
REMARK   10  A    between atoms: C_20  and  C_21
REMARK   11  A    between atoms: C_23  and  O_24
REMARK   12  A    between atoms: O_24  and  C_25
REMARK   13  A    between atoms: C_25  and  C_26
REMARK   14  A    between atoms: C_28  and  O_29
REMARK   15  A    between atoms: O_29  and  C_30
REMARK   16  A    between atoms: C_30  and  C_31
REMARK                            x       y       z     vdW  Elec       q    Type
REMARK                         _______ _______ _______ _____ _____    ______ ____
ROOT
ATOM      1  C   UNL     1       5.771   6.433  17.819  0.00  0.00    +0.000 C 
ATOM      2  O   UNL     1       4.629   7.249  17.498  0.00  0.00    +0.000 OA
ATOM      3  C   UNL     1       3.413   6.831  18.130  0.00  0.00    +0.000 C 
ATOM      4  C   UNL     1       3.070   5.361  17.783  0.00  0.00    +0.000 C 
ATOM      5  C   UNL     1       4.251   4.443  18.127  0.00  0.00    +0.000 C 
ATOM      6  C   UNL     1       5.519   4.971  17.410  0.00  0.00    +0.000 C 
ENDROOT
BRANCH   1   7
ATOM      7  C   UNL     1       6.963   7.051  17.059  0.00  0.00    +0.000 C 
BRANCH   7   8
ATOM      8  O   UNL     1       7.169   8.438  17.363  0.00  0.00    +0.000 OA
BRANCH   8  10
ATOM      9  C   UNL     1       8.644  10.141  18.009  0.00  0.00    +0.000 C 
ATOM     10  C   UNL     1       8.218   8.715  18.182  0.00  0.00    +0.000 C 
ATOM     11  O   UNL     1       8.756   7.913  18.931  0.00  0.00    +0.000 OA
ENDBRANCH   8  10
ENDBRANCH   7   8
ENDBRANCH   1   7
BRANCH   3  12
ATOM     12  O   UNL     1       2.319   7.623  17.641  0.00  0.00    +0.000 OA
BRANCH  12  13
ATOM     13  C   UNL     1       1.787   8.564  18.475  0.00  0.00    +0.000 A 
ATOM     14  C   UNL     1       1.319   9.823  18.095  0.00  0.00    +0.000 A 
ATOM     15  C   UNL     1       0.802  10.697  19.055  0.00  0.00    +0.000 A 
ATOM     16  C   UNL     1       0.737  10.303  20.393  0.00  0.00    +0.000 A 
ATOM     17  C   UNL     1       1.193   9.044  20.781  0.00  0.00    +0.000 A 
ATOM     18  C   UNL     1       1.713   8.176  19.817  0.00  0.00    +0.000 A 
BRANCH  16  19
ATOM     19  C   UNL     1       0.166  11.215  21.406  0.00  0.00    +0.000 C 
ATOM     20  O   UNL     1      -0.746  10.872  22.149  0.00  0.00    +0.000 OA
ENDBRANCH  16  19
ENDBRANCH  12  13
ENDBRANCH   3  12
BRANCH   4  21
ATOM     21  O   UNL     1       1.817   4.896  18.350  0.00  0.00    +0.000 OA
BRANCH  21  22
ATOM     22  C   UNL     1       1.762   4.585  19.671  0.00  0.00    +0.000 C 
ATOM     23  C   UNL     1       0.874   3.401  19.897  0.00  0.00    +0.000 C 
ATOM     24  O   UNL     1       2.372   5.168  20.555  0.00  0.00    +0.000 OA
ENDBRANCH  21  22
ENDBRANCH   4  21
BRANCH   5  25
ATOM     25  O   UNL     1       4.017   3.093  17.669  0.00  0.00    +0.000 OA
BRANCH  25  26
ATOM     26  C   UNL     1       3.963   2.095  18.586  0.00  0.00    +0.000 C 
ATOM     27  C   UNL     1       4.610   2.518  19.870  0.00  0.00    +0.000 C 
ATOM     28  O   UNL     1       3.440   1.005  18.420  0.00  0.00    +0.000 OA
ENDBRANCH  25  26
ENDBRANCH   5  25
BRANCH   6  29
ATOM     29  O   UNL     1       5.307   4.969  15.973  0.00  0.00    +0.000 OA
BRANCH  29  30
ATOM     30  C   UNL     1       6.258   4.418  15.179  0.00  0.00    +0.000 C 
ATOM     31  C   UNL     1       5.643   3.950  13.895  0.00  0.00    +0.000 C 
ATOM     32  O   UNL     1       7.449   4.342  15.440  0.00  0.00    +0.000 OA
ENDBRANCH  29  30
ENDBRANCH   6  29
TORSDOF 12
ENDMDL
MODEL 8
REMARK VINA RESULT:      -7.0      1.482      4.939
REMARK  Name = 
REMARK  16 active torsions:
REMARK  status: ('A' for Active; 'I' for Inactive)
REMARK    1  A    between atoms: C_1  and  C_2
REMARK    2  A    between atoms: C_2  and  O_4
REMARK    3  A    between atoms: O_4  and  C_5
REMARK    4  A    between atoms: C_5  and  C_6
REMARK    5  A    between atoms: C_8  and  O_9
REMARK    6  A    between atoms: O_9  and  C_10
REMARK    7  A    between atoms: C_13  and  C_14
REMARK    8  A    between atoms: C_18  and  O_19
REMARK    9  A    between atoms: O_19  and  C_20
REMARK   10  A    between atoms: C_20  and  C_21
REMARK   11  A    between atoms: C_23  and  O_24
REMARK   12  A    between atoms: O_24  and  C_25
REMARK   13  A    between atoms: C_25  and  C_26
REMARK   14  A    between atoms: C_28  and  O_29
REMARK   15  A    between atoms: O_29  and  C_30
REMARK   16  A    between atoms: C_30  and  C_31
REMARK                            x       y       z     vdW  Elec       q    Type
REMARK                         _______ _______ _______ _____ _____    ______ ____
ROOT
ATOM      1  C   UNL     1       5.933   6.262  18.060  0.00  0.00    +0.000 C 
ATOM      2  O   UNL     1       4.859   7.145  17.686  0.00  0.00    +0.000 OA
ATOM      3  C   UNL     1       3.587   6.791  18.242  0.00  0.00    +0.000 C 
ATOM      4  C   UNL     1       3.182   5.346  17.857  0.00  0.00    +0.000 C 
ATOM      5  C   UNL     1       4.289   4.359  18.256  0.00  0.00    +0.000 C 
ATOM      6  C   UNL     1       5.623   4.821  17.619  0.00  0.00    +0.000 C 
ENDROOT
BRANCH   1   7
ATOM      7  C   UNL     1       7.199   6.819  17.377  0.00  0.00    +0.000 C 
BRANCH   7   8
ATOM      8  O   UNL     1       8.041   7.564  18.269  0.00  0.00    +0.000 OA
BRANCH   8  10
ATOM      9  C   UNL     1       9.081   9.540  18.983  0.00  0.00    +0.000 C 
ATOM     10  C   UNL     1       8.105   8.904  18.042  0.00  0.00    +0.000 C 
ATOM     11  O   UNL     1       7.442   9.508  17.211  0.00  0.00    +0.000 OA
ENDBRANCH   8  10
ENDBRANCH   7   8
ENDBRANCH   1   7
BRANCH   3  12
ATOM     12  O   UNL     1       2.569   7.649  17.702  0.00  0.00    +0.000 OA
BRANCH  12  13
ATOM     13  C   UNL     1       1.893   8.462  18.565  0.00  0.00    +0.000 A 
ATOM     14  C   UNL     1       1.727   8.243  19.933  0.00  0.00    +0.000 A 
ATOM     15  C   UNL     1       1.003   9.155  20.706  0.00  0.00    +0.000 A 
ATOM     16  C   UNL     1       0.461  10.297  20.111  0.00  0.00    +0.000 A 
ATOM     17  C   UNL     1       0.630  10.529  18.747  0.00  0.00    +0.000 A 
ATOM     18  C   UNL     1       1.352   9.611  17.979  0.00  0.00    +0.000 A 
BRANCH  16  19
ATOM     19  C   UNL     1      -0.280  11.278  20.930  0.00  0.00    +0.000 C 
ATOM     20  O   UNL     1      -0.718  11.000  22.040  0.00  0.00    +0.000 OA
ENDBRANCH  16  19
ENDBRANCH  12  13
ENDBRANCH   3  12
BRANCH   4  21
ATOM     21  O   UNL     1       1.875   4.948  18.346  0.00  0.00    +0.000 OA
BRANCH  21  22
ATOM     22  C   UNL     1       1.737   4.584  19.647  0.00  0.00    +0.000 C 
ATOM     23  C   UNL     1       0.869   3.369  19.764  0.00  0.00    +0.000 C 
ATOM     24  O   UNL     1       2.265   5.147  20.593  0.00  0.00    +0.000 OA
ENDBRANCH  21  22
ENDBRANCH   4  21
BRANCH   5  25
ATOM     25  O   UNL     1       4.006   3.029  17.768  0.00  0.00    +0.000 OA
BRANCH  25  26
ATOM     26  C   UNL     1       4.044   1.993  18.642  0.00  0.00    +0.000 C 
ATOM     27  C   UNL     1       4.497   2.457  19.994  0.00  0.00    +0.000 C 
ATOM     28  O   UNL     1       3.731   0.840  18.393  0.00  0.00    +0.000 OA
ENDBRANCH  25  26
ENDBRANCH   5  25
BRANCH   6  29
ATOM     29  O   UNL     1       5.494   4.845  16.172  0.00  0.00    +0.000 OA
BRANCH  29  30
ATOM     30  C   UNL     1       6.492   4.312  15.425  0.00  0.00    +0.000 C 
ATOM     31  C   UNL     1       5.980   3.976  14.056  0.00  0.00    +0.000 C 
ATOM     32  O   UNL     1       7.649   4.158  15.785  0.00  0.00    +0.000 OA
ENDBRANCH  29  30
ENDBRANCH   6  29
TORSDOF 12
ENDMDL
MODEL 9
REMARK VINA RESULT:      -6.9      1.651      4.812
REMARK  Name = 
REMARK  16 active torsions:
REMARK  status: ('A' for Active; 'I' for Inactive)
REMARK    1  A    between atoms: C_1  and  C_2
REMARK    2  A    between atoms: C_2  and  O_4
REMARK    3  A    between atoms: O_4  and  C_5
REMARK    4  A    between atoms: C_5  and  C_6
REMARK    5  A    between atoms: C_8  and  O_9
REMARK    6  A    between atoms: O_9  and  C_10
REMARK    7  A    between atoms: C_13  and  C_14
REMARK    8  A    between atoms: C_18  and  O_19
REMARK    9  A    between atoms: O_19  and  C_20
REMARK   10  A    between atoms: C_20  and  C_21
REMARK   11  A    between atoms: C_23  and  O_24
REMARK   12  A    between atoms: O_24  and  C_25
REMARK   13  A    between atoms: C_25  and  C_26
REMARK   14  A    between atoms: C_28  and  O_29
REMARK   15  A    between atoms: O_29  and  C_30
REMARK   16  A    between atoms: C_30  and  C_31
REMARK                            x       y       z     vdW  Elec       q    Type
REMARK                         _______ _______ _______ _____ _____    ______ ____
ROOT
ATOM      1  C   UNL     1       5.302   6.438  17.611  0.00  0.00    +0.000 C 
ATOM      2  O   UNL     1       4.132   7.267  17.485  0.00  0.00    +0.000 OA
ATOM      3  C   UNL     1       3.039   6.872  18.323  0.00  0.00    +0.000 C 
ATOM      4  C   UNL     1       2.623   5.403  18.059  0.00  0.00    +0.000 C 
ATOM      5  C   UNL     1       3.835   4.473  18.203  0.00  0.00    +0.000 C 
ATOM      6  C   UNL     1       4.964   4.976  17.270  0.00  0.00    +0.000 C 
ENDROOT
BRANCH   1   7
ATOM      7  C   UNL     1       6.350   7.032  16.649  0.00  0.00    +0.000 C 
BRANCH   7   8
ATOM      8  O   UNL     1       7.701   6.735  17.031  0.00  0.00    +0.000 OA
BRANCH   8  10
ATOM      9  C   UNL     1       8.284   8.698  18.173  0.00  0.00    +0.000 C 
ATOM     10  C   UNL     1       8.093   7.214  18.242  0.00  0.00    +0.000 C 
ATOM     11  O   UNL     1       8.289   6.531  19.237  0.00  0.00    +0.000 OA
ENDBRANCH   8  10
ENDBRANCH   7   8
ENDBRANCH   1   7
BRANCH   3  12
ATOM     12  O   UNL     1       1.886   7.675  18.023  0.00  0.00    +0.000 OA
BRANCH  12  13
ATOM     13  C   UNL     1       1.442   8.541  18.980  0.00  0.00    +0.000 A 
ATOM     14  C   UNL     1       1.504   8.337  20.359  0.00  0.00    +0.000 A 
ATOM     15  C   UNL     1       1.005   9.305  21.235  0.00  0.00    +0.000 A 
ATOM     16  C   UNL     1       0.460  10.487  20.728  0.00  0.00    +0.000 A 
ATOM     17  C   UNL     1       0.403  10.705  19.352  0.00  0.00    +0.000 A 
ATOM     18  C   UNL     1       0.900   9.730  18.483  0.00  0.00    +0.000 A 
BRANCH  16  19
ATOM     19  C   UNL     1      -0.042  11.525  21.652  0.00  0.00    +0.000 C 
ATOM     20  O   UNL     1      -0.324  11.278  22.818  0.00  0.00    +0.000 OA
ENDBRANCH  16  19
ENDBRANCH  12  13
ENDBRANCH   3  12
BRANCH   4  21
ATOM     21  O   UNL     1       1.482   4.963  18.841  0.00  0.00    +0.000 OA
BRANCH  21  22
ATOM     22  C   UNL     1       1.668   4.599  20.136  0.00  0.00    +0.000 C 
ATOM     23  C   UNL     1       0.946   3.320  20.432  0.00  0.00    +0.000 C 
ATOM     24  O   UNL     1       2.349   5.209  20.945  0.00  0.00    +0.000 OA
ENDBRANCH  21  22
ENDBRANCH   4  21
BRANCH   5  25
ATOM     25  O   UNL     1       3.508   3.122  17.808  0.00  0.00    +0.000 OA
BRANCH  25  26
ATOM     26  C   UNL     1       3.894   2.098  18.610  0.00  0.00    +0.000 C 
ATOM     27  C   UNL     1       4.519   2.618  19.870  0.00  0.00    +0.000 C 
ATOM     28  O   UNL     1       3.739   0.911  18.373  0.00  0.00    +0.000 OA
ENDBRANCH  25  26
ENDBRANCH   5  25
BRANCH   6  29
ATOM     29  O   UNL     1       4.505   4.963  15.892  0.00  0.00    +0.000 OA
BRANCH  29  30
ATOM     30  C   UNL     1       5.263   4.328  14.963  0.00  0.00    +0.000 C 
ATOM     31  C   UNL     1       6.379   3.587  15.636  0.00  0.00    +0.000 C 
ATOM     32  O   UNL     1       5.056   4.317  13.759  0.00  0.00    +0.000 OA
ENDBRANCH  29  30
ENDBRANCH   6  29
TORSDOF 12
ENDMDL
