MODEL 1
REMARK VINA RESULT:      -8.0      0.000      0.000
REMARK  Name = 
REMARK  7 active torsions:
REMARK  status: ('A' for Active; 'I' for Inactive)
REMARK    1  A    between atoms: C_1  and  C_2
REMARK    2  A    between atoms: C_2  and  S_3
REMARK    3  A    between atoms: C_2  and  C_10
REMARK    4  A    between atoms: S_3  and  C_4
REMARK    5  A    between atoms: N_8  and  C_9
REMARK    6  A    between atoms: C_16  and  C_18
REMARK    7  A    between atoms: C_22  and  C_23
REMARK                            x       y       z     vdW  Elec       q    Type
REMARK                         _______ _______ _______ _____ _____    ______ ____
ROOT
ATOM      1  C   UNL     1       6.301   6.085  17.311  0.00  0.00    +0.000 A 
ATOM      2  C   UNL     1       6.959   5.337  18.295  0.00  0.00    +0.000 A 
ATOM      3  C   UNL     1       7.936   5.944  19.060  0.00  0.00    +0.000 A 
ATOM      4  N   UNL     1       8.304   7.226  18.911  0.00  0.00    +0.000 NA
ATOM      5  C   UNL     1       7.691   7.964  17.973  0.00  0.00    +0.000 A 
ATOM      6  N   UNL     1       8.074   9.299  17.793  0.00  0.00    +0.000 N 
ATOM      7  C   UNL     1       9.017   9.950  18.567  0.00  0.00    +0.000 C 
ATOM      8  O   UNL     1       9.624   9.512  19.541  0.00  0.00    +0.000 OA
ATOM      9  C   UNL     1       6.687   7.434  17.160  0.00  0.00    +0.000 A 
ATOM     10  H   UNL     1       7.655   9.847  17.052  0.00  0.00    +0.000 HD
ENDROOT
BRANCH   7  11
ATOM     11  C   UNL     1       9.291  11.357  18.147  0.00  0.00    +0.000 A 
ATOM     12  C   UNL     1      10.566  11.708  17.726  0.00  0.00    +0.000 A 
ATOM     13  C   UNL     1      10.779  13.008  17.300  0.00  0.00    +0.000 A 
ATOM     14  C   UNL     1       9.712  13.904  17.313  0.00  0.00    +0.000 A 
ATOM     15  C   UNL     1       8.453  13.489  17.756  0.00  0.00    +0.000 A 
ATOM     16  N   UNL     1       8.238  12.218  18.183  0.00  0.00    +0.000 NA
BRANCH  15  17
ATOM     17  C   UNL     1       7.285  14.444  17.787  0.00  0.00    +0.000 C 
ATOM     18  C   UNL     1       6.763  15.002  19.090  0.00  0.00    +0.000 C 
ATOM     19  C   UNL     1       7.539  15.887  18.163  0.00  0.00    +0.000 C 
ENDBRANCH  15  17
ENDBRANCH   7  11
BRANCH   1  21
ATOM     20  C   UNL     1       3.924   5.141  17.171  0.00  0.00    +0.000 C 
ATOM     21  C   UNL     1       5.217   5.478  16.410  0.00  0.00    +0.000 C 
BRANCH  21  22
ATOM     22  S   UNL     1       5.914   3.982  15.594  0.00  0.00    +0.000 S 
BRANCH  22  23
ATOM     23  C   UNL     1       6.922   4.601  14.337  0.00  0.00    +0.000 A 
ATOM     24  N   UNL     1       7.892   5.479  14.434  0.00  0.00    +0.000 NA
ATOM     25  N   UNL     1       8.322   5.776  13.157  0.00  0.00    +0.000 NA
ATOM     26  C   UNL     1       7.619   5.044  12.322  0.00  0.00    +0.000 A 
ATOM     27  N   UNL     1       6.757   4.257  13.025  0.00  0.00    +0.000 N 
ATOM     28  C   UNL     1       5.884   3.257  12.468  0.00  0.00    +0.000 C 
ENDBRANCH  22  23
ENDBRANCH  21  22
ENDBRANCH   1  21
TORSDOF 5
ENDMDL
MODEL 2
REMARK VINA RESULT:      -8.0      7.068      9.956
REMARK  Name = 
REMARK  7 active torsions:
REMARK  status: ('A' for Active; 'I' for Inactive)
REMARK    1  A    between atoms: C_1  and  C_2
REMARK    2  A    between atoms: C_2  and  S_3
REMARK    3  A    between atoms: C_2  and  C_10
REMARK    4  A    between atoms: S_3  and  C_4
REMARK    5  A    between atoms: N_8  and  C_9
REMARK    6  A    between atoms: C_16  and  C_18
REMARK    7  A    between atoms: C_22  and  C_23
REMARK                            x       y       z     vdW  Elec       q    Type
REMARK                         _______ _______ _______ _____ _____    ______ ____
ROOT
ATOM      1  C   UNL     1       0.281  10.429  19.931  0.00  0.00    +0.000 A 
ATOM      2  C   UNL     1      -0.237   9.964  21.146  0.00  0.00    +0.000 A 
ATOM      3  C   UNL     1       0.138   8.717  21.605  0.00  0.00    +0.000 A 
ATOM      4  N   UNL     1       0.978   7.906  20.942  0.00  0.00    +0.000 NA
ATOM      5  C   UNL     1       1.486   8.325  19.774  0.00  0.00    +0.000 A 
ATOM      6  N   UNL     1       2.352   7.485  19.062  0.00  0.00    +0.000 N 
ATOM      7  C   UNL     1       2.781   6.250  19.510  0.00  0.00    +0.000 C 
ATOM      8  O   UNL     1       2.536   5.711  20.587  0.00  0.00    +0.000 OA
ATOM      9  C   UNL     1       1.167   9.575  19.240  0.00  0.00    +0.000 A 
ATOM     10  H   UNL     1       2.697   7.771  18.154  0.00  0.00    +0.000 HD
ENDROOT
BRANCH   7  11
ATOM     11  C   UNL     1       3.660   5.519  18.548  0.00  0.00    +0.000 A 
ATOM     12  C   UNL     1       3.140   4.459  17.818  0.00  0.00    +0.000 A 
ATOM     13  C   UNL     1       3.966   3.829  16.902  0.00  0.00    +0.000 A 
ATOM     14  C   UNL     1       5.275   4.283  16.752  0.00  0.00    +0.000 A 
ATOM     15  C   UNL     1       5.740   5.352  17.524  0.00  0.00    +0.000 A 
ATOM     16  N   UNL     1       4.939   5.969  18.431  0.00  0.00    +0.000 NA
BRANCH  15  17
ATOM     17  C   UNL     1       7.156   5.854  17.385  0.00  0.00    +0.000 C 
ATOM     18  C   UNL     1       7.492   7.314  17.580  0.00  0.00    +0.000 C 
ATOM     19  C   UNL     1       7.885   6.317  18.626  0.00  0.00    +0.000 C 
ENDBRANCH  15  17
ENDBRANCH   7  11
BRANCH   1  21
ATOM     20  C   UNL     1       0.742  12.948  19.917  0.00  0.00    +0.000 C 
ATOM     21  C   UNL     1      -0.101  11.795  19.348  0.00  0.00    +0.000 C 
BRANCH  21  22
ATOM     22  S   UNL     1      -1.896  12.074  19.652  0.00  0.00    +0.000 S 
BRANCH  22  23
ATOM     23  C   UNL     1      -2.667  11.592  18.185  0.00  0.00    +0.000 A 
ATOM     24  N   UNL     1      -2.108  11.178  17.073  0.00  0.00    +0.000 NA
ATOM     25  N   UNL     1      -3.102  11.039  16.126  0.00  0.00    +0.000 NA
ATOM     26  C   UNL     1      -4.243  11.346  16.703  0.00  0.00    +0.000 A 
ATOM     27  N   UNL     1      -4.021  11.656  18.011  0.00  0.00    +0.000 N 
ATOM     28  C   UNL     1      -5.033  11.958  18.988  0.00  0.00    +0.000 C 
ENDBRANCH  22  23
ENDBRANCH  21  22
ENDBRANCH   1  21
TORSDOF 5
ENDMDL
MODEL 3
REMARK VINA RESULT:      -7.8      7.652     11.829
REMARK  Name = 
REMARK  7 active torsions:
REMARK  status: ('A' for Active; 'I' for Inactive)
REMARK    1  A    between atoms: C_1  and  C_2
REMARK    2  A    between atoms: C_2  and  S_3
REMARK    3  A    between atoms: C_2  and  C_10
REMARK    4  A    between atoms: S_3  and  C_4
REMARK    5  A    between atoms: N_8  and  C_9
REMARK    6  A    between atoms: C_16  and  C_18
REMARK    7  A    between atoms: C_22  and  C_23
REMARK                            x       y       z     vdW  Elec       q    Type
REMARK                         _______ _______ _______ _____ _____    ______ ____
ROOT
ATOM      1  C   UNL     1       0.163  10.877  21.148  0.00  0.00    +0.000 A 
ATOM      2  C   UNL     1       0.245  11.859  20.154  0.00  0.00    +0.000 A 
ATOM      3  C   UNL     1       0.856  11.553  18.954  0.00  0.00    +0.000 A 
ATOM      4  N   UNL     1       1.392  10.353  18.680  0.00  0.00    +0.000 NA
ATOM      5  C   UNL     1       1.330   9.395  19.617  0.00  0.00    +0.000 A 
ATOM      6  N   UNL     1       1.898   8.142  19.354  0.00  0.00    +0.000 N 
ATOM      7  C   UNL     1       2.479   7.788  18.150  0.00  0.00    +0.000 C 
ATOM      8  O   UNL     1       2.554   8.458  17.123  0.00  0.00    +0.000 OA
ATOM      9  C   UNL     1       0.724   9.615  20.855  0.00  0.00    +0.000 A 
ATOM     10  H   UNL     1       1.903   7.431  20.074  0.00  0.00    +0.000 HD
ENDROOT
BRANCH   7  11
ATOM     11  C   UNL     1       3.062   6.412  18.131  0.00  0.00    +0.000 A 
ATOM     12  C   UNL     1       4.101   6.122  17.258  0.00  0.00    +0.000 A 
ATOM     13  C   UNL     1       4.650   4.852  17.294  0.00  0.00    +0.000 A 
ATOM     14  C   UNL     1       4.140   3.923  18.200  0.00  0.00    +0.000 A 
ATOM     15  C   UNL     1       3.086   4.276  19.047  0.00  0.00    +0.000 A 
ATOM     16  N   UNL     1       2.536   5.518  19.012  0.00  0.00    +0.000 NA
BRANCH  15  17
ATOM     17  C   UNL     1       2.512   3.285  20.029  0.00  0.00    +0.000 C 
ATOM     18  C   UNL     1       1.257   3.594  20.812  0.00  0.00    +0.000 C 
ATOM     19  C   UNL     1       1.205   2.603  19.690  0.00  0.00    +0.000 C 
ENDBRANCH  15  17
ENDBRANCH   7  11
BRANCH   1  21
ATOM     20  C   UNL     1      -0.841   9.856  23.271  0.00  0.00    +0.000 C 
ATOM     21  C   UNL     1      -0.485  11.146  22.513  0.00  0.00    +0.000 C 
BRANCH  21  22
ATOM     22  S   UNL     1      -1.975  12.193  22.250  0.00  0.00    +0.000 S 
BRANCH  22  23
ATOM     23  C   UNL     1      -1.728  13.567  23.266  0.00  0.00    +0.000 A 
ATOM     24  N   UNL     1      -0.650  14.305  23.383  0.00  0.00    +0.000 NA
ATOM     25  N   UNL     1      -0.860  15.201  24.411  0.00  0.00    +0.000 NA
ATOM     26  C   UNL     1      -2.076  14.999  24.869  0.00  0.00    +0.000 A 
ATOM     27  N   UNL     1      -2.673  14.010  24.147  0.00  0.00    +0.000 N 
ATOM     28  C   UNL     1      -4.034  13.566  24.293  0.00  0.00    +0.000 C 
ENDBRANCH  22  23
ENDBRANCH  21  22
ENDBRANCH   1  21
TORSDOF 5
ENDMDL
MODEL 4
REMARK VINA RESULT:      -7.7      6.622      8.460
REMARK  Name = 
REMARK  7 active torsions:
REMARK  status: ('A' for Active; 'I' for Inactive)
REMARK    1  A    between atoms: C_1  and  C_2
REMARK    2  A    between atoms: C_2  and  S_3
REMARK    3  A    between atoms: C_2  and  C_10
REMARK    4  A    between atoms: S_3  and  C_4
REMARK    5  A    between atoms: N_8  and  C_9
REMARK    6  A    between atoms: C_16  and  C_18
REMARK    7  A    between atoms: C_22  and  C_23
REMARK                            x       y       z     vdW  Elec       q    Type
REMARK                         _______ _______ _______ _____ _____    ______ ____
ROOT
ATOM      1  C   UNL     1       4.244   5.721  18.688  0.00  0.00    +0.000 A 
ATOM      2  C   UNL     1       4.159   6.118  17.348  0.00  0.00    +0.000 A 
ATOM      3  C   UNL     1       3.325   7.165  17.008  0.00  0.00    +0.000 A 
ATOM      4  N   UNL     1       2.573   7.832  17.898  0.00  0.00    +0.000 NA
ATOM      5  C   UNL     1       2.633   7.469  19.188  0.00  0.00    +0.000 A 
ATOM      6  N   UNL     1       1.842   8.143  20.127  0.00  0.00    +0.000 N 
ATOM      7  C   UNL     1       1.029   9.221  19.829  0.00  0.00    +0.000 C 
ATOM      8  O   UNL     1       0.897   9.790  18.749  0.00  0.00    +0.000 OA
ATOM      9  C   UNL     1       3.455   6.427  19.621  0.00  0.00    +0.000 A 
ATOM     10  H   UNL     1       1.841   7.841  21.093  0.00  0.00    +0.000 HD
ENDROOT
BRANCH   7  11
ATOM     11  C   UNL     1       0.244   9.736  20.991  0.00  0.00    +0.000 A 
ATOM     12  C   UNL     1       0.237   9.023  22.182  0.00  0.00    +0.000 A 
ATOM     13  C   UNL     1      -0.463   9.548  23.254  0.00  0.00    +0.000 A 
ATOM     14  C   UNL     1      -1.128  10.763  23.095  0.00  0.00    +0.000 A 
ATOM     15  C   UNL     1      -1.089  11.428  21.867  0.00  0.00    +0.000 A 
ATOM     16  N   UNL     1      -0.411  10.915  20.807  0.00  0.00    +0.000 NA
BRANCH  15  17
ATOM     17  C   UNL     1      -1.808  12.739  21.669  0.00  0.00    +0.000 C 
ATOM     18  C   UNL     1      -2.009  13.323  20.289  0.00  0.00    +0.000 C 
ATOM     19  C   UNL     1      -3.173  12.726  21.019  0.00  0.00    +0.000 C 
ENDBRANCH  15  17
ENDBRANCH   7  11
BRANCH   1  21
ATOM     20  C   UNL     1       6.502   4.538  18.437  0.00  0.00    +0.000 C 
ATOM     21  C   UNL     1       5.135   4.557  19.141  0.00  0.00    +0.000 C 
BRANCH  21  22
ATOM     22  S   UNL     1       4.222   2.984  18.857  0.00  0.00    +0.000 S 
BRANCH  22  23
ATOM     23  C   UNL     1       3.068   2.913  20.139  0.00  0.00    +0.000 A 
ATOM     24  N   UNL     1       3.266   2.576  21.392  0.00  0.00    +0.000 NA
ATOM     25  N   UNL     1       2.038   2.526  22.016  0.00  0.00    +0.000 NA
ATOM     26  C   UNL     1       1.128   2.865  21.129  0.00  0.00    +0.000 A 
ATOM     27  N   UNL     1       1.738   3.159  19.946  0.00  0.00    +0.000 N 
ATOM     28  C   UNL     1       1.085   3.653  18.763  0.00  0.00    +0.000 C 
ENDBRANCH  22  23
ENDBRANCH  21  22
ENDBRANCH   1  21
TORSDOF 5
ENDMDL
MODEL 5
REMARK VINA RESULT:      -7.7      4.791      6.496
REMARK  Name = 
REMARK  7 active torsions:
REMARK  status: ('A' for Active; 'I' for Inactive)
REMARK    1  A    between atoms: C_1  and  C_2
REMARK    2  A    between atoms: C_2  and  S_3
REMARK    3  A    between atoms: C_2  and  C_10
REMARK    4  A    between atoms: S_3  and  C_4
REMARK    5  A    between atoms: N_8  and  C_9
REMARK    6  A    between atoms: C_16  and  C_18
REMARK    7  A    between atoms: C_22  and  C_23
REMARK                            x       y       z     vdW  Elec       q    Type
REMARK                         _______ _______ _______ _____ _____    ______ ____
ROOT
ATOM      1  C   UNL     1       3.364   5.538  18.257  0.00  0.00    +0.000 A 
ATOM      2  C   UNL     1       3.144   4.999  19.530  0.00  0.00    +0.000 A 
ATOM      3  C   UNL     1       2.448   5.741  20.464  0.00  0.00    +0.000 A 
ATOM      4  N   UNL     1       1.969   6.972  20.225  0.00  0.00    +0.000 NA
ATOM      5  C   UNL     1       2.169   7.513  19.014  0.00  0.00    +0.000 A 
ATOM      6  N   UNL     1       1.689   8.803  18.752  0.00  0.00    +0.000 N 
ATOM      7  C   UNL     1       0.954   9.557  19.649  0.00  0.00    +0.000 C 
ATOM      8  O   UNL     1       0.561   9.229  20.765  0.00  0.00    +0.000 OA
ATOM      9  C   UNL     1       2.855   6.831  18.007  0.00  0.00    +0.000 A 
ATOM     10  H   UNL     1       1.882   9.240  17.860  0.00  0.00    +0.000 HD
ENDROOT
BRANCH   7  11
ATOM     11  C   UNL     1       0.601  10.922  19.157  0.00  0.00    +0.000 A 
ATOM     12  C   UNL     1      -0.734  11.262  18.983  0.00  0.00    +0.000 A 
ATOM     13  C   UNL     1      -1.031  12.550  18.569  0.00  0.00    +0.000 A 
ATOM     14  C   UNL     1       0.014  13.444  18.344  0.00  0.00    +0.000 A 
ATOM     15  C   UNL     1       1.338  13.036  18.530  0.00  0.00    +0.000 A 
ATOM     16  N   UNL     1       1.639  11.773  18.928  0.00  0.00    +0.000 NA
BRANCH  15  17
ATOM     17  C   UNL     1       2.486  13.984  18.285  0.00  0.00    +0.000 C 
ATOM     18  C   UNL     1       2.328  15.474  18.486  0.00  0.00    +0.000 C 
ATOM     19  C   UNL     1       3.123  14.672  19.471  0.00  0.00    +0.000 C 
ENDBRANCH  15  17
ENDBRANCH   7  11
BRANCH   1  21
ATOM     20  C   UNL     1       3.457   3.474  16.744  0.00  0.00    +0.000 C 
ATOM     21  C   UNL     1       4.142   4.783  17.171  0.00  0.00    +0.000 C 
BRANCH  21  22
ATOM     22  S   UNL     1       5.846   4.467  17.792  0.00  0.00    +0.000 S 
BRANCH  22  23
ATOM     23  C   UNL     1       6.632   6.002  17.707  0.00  0.00    +0.000 A 
ATOM     24  N   UNL     1       6.468   6.948  16.813  0.00  0.00    +0.000 NA
ATOM     25  N   UNL     1       7.403   7.931  17.062  0.00  0.00    +0.000 NA
ATOM     26  C   UNL     1       8.090   7.565  18.122  0.00  0.00    +0.000 A 
ATOM     27  N   UNL     1       7.608   6.378  18.586  0.00  0.00    +0.000 N 
ATOM     28  C   UNL     1       8.043   5.701  19.779  0.00  0.00    +0.000 C 
ENDBRANCH  22  23
ENDBRANCH  21  22
ENDBRANCH   1  21
TORSDOF 5
ENDMDL
MODEL 6
REMARK VINA RESULT:      -7.7      7.960     12.008
REMARK  Name = 
REMARK  7 active torsions:
REMARK  status: ('A' for Active; 'I' for Inactive)
REMARK    1  A    between atoms: C_1  and  C_2
REMARK    2  A    between atoms: C_2  and  S_3
REMARK    3  A    between atoms: C_2  and  C_10
REMARK    4  A    between atoms: S_3  and  C_4
REMARK    5  A    between atoms: N_8  and  C_9
REMARK    6  A    between atoms: C_16  and  C_18
REMARK    7  A    between atoms: C_22  and  C_23
REMARK                            x       y       z     vdW  Elec       q    Type
REMARK                         _______ _______ _______ _____ _____    ______ ____
ROOT
ATOM      1  C   UNL     1       0.142  11.242  20.842  0.00  0.00    +0.000 A 
ATOM      2  C   UNL     1       0.432  12.234  19.897  0.00  0.00    +0.000 A 
ATOM      3  C   UNL     1       1.138  11.894  18.760  0.00  0.00    +0.000 A 
ATOM      4  N   UNL     1       1.576  10.651  18.504  0.00  0.00    +0.000 NA
ATOM      5  C   UNL     1       1.315   9.683  19.395  0.00  0.00    +0.000 A 
ATOM      6  N   UNL     1       1.780   8.384  19.151  0.00  0.00    +0.000 N 
ATOM      7  C   UNL     1       2.452   8.000  18.005  0.00  0.00    +0.000 C 
ATOM      8  O   UNL     1       2.707   8.682  17.016  0.00  0.00    +0.000 OA
ATOM      9  C   UNL     1       0.601   9.936  20.568  0.00  0.00    +0.000 A 
ATOM     10  H   UNL     1       1.634   7.660  19.843  0.00  0.00    +0.000 HD
ENDROOT
BRANCH   7  11
ATOM     11  C   UNL     1       2.891   6.572  18.002  0.00  0.00    +0.000 A 
ATOM     12  C   UNL     1       4.207   6.263  17.683  0.00  0.00    +0.000 A 
ATOM     13  C   UNL     1       4.596   4.935  17.731  0.00  0.00    +0.000 A 
ATOM     14  C   UNL     1       3.657   3.971  18.094  0.00  0.00    +0.000 A 
ATOM     15  C   UNL     1       2.345   4.348  18.396  0.00  0.00    +0.000 A 
ATOM     16  N   UNL     1       1.953   5.647  18.343  0.00  0.00    +0.000 NA
BRANCH  15  17
ATOM     17  C   UNL     1       1.311   3.320  18.783  0.00  0.00    +0.000 C 
ATOM     18  C   UNL     1       1.712   1.985  19.366  0.00  0.00    +0.000 C 
ATOM     19  C   UNL     1       1.096   3.026  20.250  0.00  0.00    +0.000 C 
ENDBRANCH  15  17
ENDBRANCH   7  11
BRANCH   1  21
ATOM     20  C   UNL     1      -0.863  10.293  22.998  0.00  0.00    +0.000 C 
ATOM     21  C   UNL     1      -0.622  11.545  22.138  0.00  0.00    +0.000 C 
BRANCH  21  22
ATOM     22  S   UNL     1      -2.213  12.360  21.695  0.00  0.00    +0.000 S 
BRANCH  22  23
ATOM     23  C   UNL     1      -2.959  12.711  23.211  0.00  0.00    +0.000 A 
ATOM     24  N   UNL     1      -3.940  12.068  23.801  0.00  0.00    +0.000 NA
ATOM     25  N   UNL     1      -4.302  12.786  24.922  0.00  0.00    +0.000 NA
ATOM     26  C   UNL     1      -3.507  13.830  24.997  0.00  0.00    +0.000 A 
ATOM     27  N   UNL     1      -2.618  13.798  23.965  0.00  0.00    +0.000 N 
ATOM     28  C   UNL     1      -1.535  14.723  23.758  0.00  0.00    +0.000 C 
ENDBRANCH  22  23
ENDBRANCH  21  22
ENDBRANCH   1  21
TORSDOF 5
ENDMDL
MODEL 7
REMARK VINA RESULT:      -7.6      5.473      7.139
REMARK  Name = 
REMARK  7 active torsions:
REMARK  status: ('A' for Active; 'I' for Inactive)
REMARK    1  A    between atoms: C_1  and  C_2
REMARK    2  A    between atoms: C_2  and  S_3
REMARK    3  A    between atoms: C_2  and  C_10
REMARK    4  A    between atoms: S_3  and  C_4
REMARK    5  A    between atoms: N_8  and  C_9
REMARK    6  A    between atoms: C_16  and  C_18
REMARK    7  A    between atoms: C_22  and  C_23
REMARK                            x       y       z     vdW  Elec       q    Type
REMARK                         _______ _______ _______ _____ _____    ______ ____
ROOT
ATOM      1  C   UNL     1       4.251   5.052  17.763  0.00  0.00    +0.000 A 
ATOM      2  C   UNL     1       4.130   4.127  18.807  0.00  0.00    +0.000 A 
ATOM      3  C   UNL     1       3.375   4.458  19.915  0.00  0.00    +0.000 A 
ATOM      4  N   UNL     1       2.745   5.634  20.058  0.00  0.00    +0.000 NA
ATOM      5  C   UNL     1       2.848   6.540  19.073  0.00  0.00    +0.000 A 
ATOM      6  N   UNL     1       2.210   7.779  19.213  0.00  0.00    +0.000 N 
ATOM      7  C   UNL     1       1.413   8.127  20.288  0.00  0.00    +0.000 C 
ATOM      8  O   UNL     1       1.091   7.429  21.246  0.00  0.00    +0.000 OA
ATOM      9  C   UNL     1       3.584   6.287  17.915  0.00  0.00    +0.000 A 
ATOM     10  H   UNL     1       2.326   8.489  18.500  0.00  0.00    +0.000 HD
ENDROOT
BRANCH   7  11
ATOM     11  C   UNL     1       0.886   9.525  20.234  0.00  0.00    +0.000 A 
ATOM     12  C   UNL     1       0.921  10.222  19.034  0.00  0.00    +0.000 A 
ATOM     13  C   UNL     1       0.386  11.499  19.005  0.00  0.00    +0.000 A 
ATOM     14  C   UNL     1      -0.162  12.027  20.173  0.00  0.00    +0.000 A 
ATOM     15  C   UNL     1      -0.158  11.275  21.351  0.00  0.00    +0.000 A 
ATOM     16  N   UNL     1       0.372  10.025  21.391  0.00  0.00    +0.000 NA
BRANCH  15  17
ATOM     17  C   UNL     1      -0.737  11.830  22.629  0.00  0.00    +0.000 C 
ATOM     18  C   UNL     1      -1.396  13.190  22.665  0.00  0.00    +0.000 C 
ATOM     19  C   UNL     1      -2.240  11.954  22.750  0.00  0.00    +0.000 C 
ENDBRANCH  15  17
ENDBRANCH   7  11
BRANCH   1  21
ATOM     20  C   UNL     1       4.625   3.506  15.756  0.00  0.00    +0.000 C 
ATOM     21  C   UNL     1       5.086   4.765  16.508  0.00  0.00    +0.000 C 
BRANCH  21  22
ATOM     22  S   UNL     1       6.853   4.630  17.006  0.00  0.00    +0.000 S 
BRANCH  22  23
ATOM     23  C   UNL     1       7.306   6.237  17.446  0.00  0.00    +0.000 A 
ATOM     24  N   UNL     1       7.201   7.333  16.734  0.00  0.00    +0.000 NA
ATOM     25  N   UNL     1       7.816   8.352  17.432  0.00  0.00    +0.000 NA
ATOM     26  C   UNL     1       8.250   7.848  18.567  0.00  0.00    +0.000 A 
ATOM     27  N   UNL     1       7.910   6.530  18.636  0.00  0.00    +0.000 N 
ATOM     28  C   UNL     1       8.135   5.662  19.761  0.00  0.00    +0.000 C 
ENDBRANCH  22  23
ENDBRANCH  21  22
ENDBRANCH   1  21
TORSDOF 5
ENDMDL
MODEL 8
REMARK VINA RESULT:      -7.6      7.834     11.713
REMARK  Name = 
REMARK  7 active torsions:
REMARK  status: ('A' for Active; 'I' for Inactive)
REMARK    1  A    between atoms: C_1  and  C_2
REMARK    2  A    between atoms: C_2  and  S_3
REMARK    3  A    between atoms: C_2  and  C_10
REMARK    4  A    between atoms: S_3  and  C_4
REMARK    5  A    between atoms: N_8  and  C_9
REMARK    6  A    between atoms: C_16  and  C_18
REMARK    7  A    between atoms: C_22  and  C_23
REMARK                            x       y       z     vdW  Elec       q    Type
REMARK                         _______ _______ _______ _____ _____    ______ ____
ROOT
ATOM      1  C   UNL     1       0.142  11.128  20.862  0.00  0.00    +0.000 A 
ATOM      2  C   UNL     1       0.323  12.019  19.797  0.00  0.00    +0.000 A 
ATOM      3  C   UNL     1       1.006  11.596  18.674  0.00  0.00    +0.000 A 
ATOM      4  N   UNL     1       1.522  10.364  18.541  0.00  0.00    +0.000 NA
ATOM      5  C   UNL     1       1.366   9.491  19.548  0.00  0.00    +0.000 A 
ATOM      6  N   UNL     1       1.912   8.206  19.433  0.00  0.00    +0.000 N 
ATOM      7  C   UNL     1       2.564   7.736  18.308  0.00  0.00    +0.000 C 
ATOM      8  O   UNL     1       2.731   8.313  17.236  0.00  0.00    +0.000 OA
ATOM      9  C   UNL     1       0.682   9.832  20.716  0.00  0.00    +0.000 A 
ATOM     10  H   UNL     1       1.845   7.560  20.209  0.00  0.00    +0.000 HD
ENDROOT
BRANCH   7  11
ATOM     11  C   UNL     1       3.104   6.350  18.447  0.00  0.00    +0.000 A 
ATOM     12  C   UNL     1       2.856   5.634  19.610  0.00  0.00    +0.000 A 
ATOM     13  C   UNL     1       3.331   4.336  19.692  0.00  0.00    +0.000 A 
ATOM     14  C   UNL     1       4.034   3.806  18.610  0.00  0.00    +0.000 A 
ATOM     15  C   UNL     1       4.257   4.584  17.471  0.00  0.00    +0.000 A 
ATOM     16  N   UNL     1       3.801   5.860  17.386  0.00  0.00    +0.000 NA
BRANCH  15  17
ATOM     17  C   UNL     1       5.023   4.034  16.292  0.00  0.00    +0.000 C 
ATOM     18  C   UNL     1       5.530   4.941  15.195  0.00  0.00    +0.000 C 
ATOM     19  C   UNL     1       6.496   4.351  16.175  0.00  0.00    +0.000 C 
ENDBRANCH  15  17
ENDBRANCH   7  11
BRANCH   1  21
ATOM     20  C   UNL     1      -0.862  10.336  23.080  0.00  0.00    +0.000 C 
ATOM     21  C   UNL     1      -0.591  11.529  22.148  0.00  0.00    +0.000 C 
BRANCH  21  22
ATOM     22  S   UNL     1      -2.158  12.376  21.683  0.00  0.00    +0.000 S 
BRANCH  22  23
ATOM     23  C   UNL     1      -2.933  12.717  23.187  0.00  0.00    +0.000 A 
ATOM     24  N   UNL     1      -3.855  12.015  23.802  0.00  0.00    +0.000 NA
ATOM     25  N   UNL     1      -4.278  12.739  24.897  0.00  0.00    +0.000 NA
ATOM     26  C   UNL     1      -3.575  13.850  24.933  0.00  0.00    +0.000 A 
ATOM     27  N   UNL     1      -2.685  13.856  23.900  0.00  0.00    +0.000 N 
ATOM     28  C   UNL     1      -1.685  14.861  23.657  0.00  0.00    +0.000 C 
ENDBRANCH  22  23
ENDBRANCH  21  22
ENDBRANCH   1  21
TORSDOF 5
ENDMDL
MODEL 9
REMARK VINA RESULT:      -7.6      4.636      6.620
REMARK  Name = 
REMARK  7 active torsions:
REMARK  status: ('A' for Active; 'I' for Inactive)
REMARK    1  A    between atoms: C_1  and  C_2
REMARK    2  A    between atoms: C_2  and  S_3
REMARK    3  A    between atoms: C_2  and  C_10
REMARK    4  A    between atoms: S_3  and  C_4
REMARK    5  A    between atoms: N_8  and  C_9
REMARK    6  A    between atoms: C_16  and  C_18
REMARK    7  A    between atoms: C_22  and  C_23
REMARK                            x       y       z     vdW  Elec       q    Type
REMARK                         _______ _______ _______ _____ _____    ______ ____
ROOT
ATOM      1  C   UNL     1       4.805   5.012  16.585  0.00  0.00    +0.000 A 
ATOM      2  C   UNL     1       4.689   3.772  17.225  0.00  0.00    +0.000 A 
ATOM      3  C   UNL     1       3.928   3.675  18.373  0.00  0.00    +0.000 A 
ATOM      4  N   UNL     1       3.288   4.717  18.927  0.00  0.00    +0.000 NA
ATOM      5  C   UNL     1       3.386   5.917  18.337  0.00  0.00    +0.000 A 
ATOM      6  N   UNL     1       2.737   7.018  18.911  0.00  0.00    +0.000 N 
ATOM      7  C   UNL     1       1.934   6.950  20.035  0.00  0.00    +0.000 C 
ATOM      8  O   UNL     1       1.616   5.950  20.674  0.00  0.00    +0.000 OA
ATOM      9  C   UNL     1       4.127   6.104  17.169  0.00  0.00    +0.000 A 
ATOM     10  H   UNL     1       2.849   7.938  18.502  0.00  0.00    +0.000 HD
ENDROOT
BRANCH   7  11
ATOM     11  C   UNL     1       1.396   8.268  20.485  0.00  0.00    +0.000 A 
ATOM     12  C   UNL     1       0.998   8.429  21.806  0.00  0.00    +0.000 A 
ATOM     13  C   UNL     1       0.545   9.675  22.205  0.00  0.00    +0.000 A 
ATOM     14  C   UNL     1       0.507  10.709  21.270  0.00  0.00    +0.000 A 
ATOM     15  C   UNL     1       0.914  10.479  19.953  0.00  0.00    +0.000 A 
ATOM     16  N   UNL     1       1.352   9.258  19.552  0.00  0.00    +0.000 NA
BRANCH  15  17
ATOM     17  C   UNL     1       0.872  11.581  18.923  0.00  0.00    +0.000 C 
ATOM     18  C   UNL     1       1.365  12.973  19.244  0.00  0.00    +0.000 C 
ATOM     19  C   UNL     1       2.177  12.086  18.350  0.00  0.00    +0.000 C 
ENDBRANCH  15  17
ENDBRANCH   7  11
BRANCH   1  21
ATOM     20  C   UNL     1       5.171   4.326  14.145  0.00  0.00    +0.000 C 
ATOM     21  C   UNL     1       5.646   5.203  15.316  0.00  0.00    +0.000 C 
BRANCH  21  22
ATOM     22  S   UNL     1       7.407   4.861  15.730  0.00  0.00    +0.000 S 
BRANCH  22  23
ATOM     23  C   UNL     1       7.538   5.225  17.412  0.00  0.00    +0.000 A 
ATOM     24  N   UNL     1       7.612   4.389  18.420  0.00  0.00    +0.000 NA
ATOM     25  N   UNL     1       7.561   5.125  19.585  0.00  0.00    +0.000 NA
ATOM     26  C   UNL     1       7.488   6.394  19.249  0.00  0.00    +0.000 A 
ATOM     27  N   UNL     1       7.516   6.504  17.891  0.00  0.00    +0.000 N 
ATOM     28  C   UNL     1       7.543   7.736  17.148  0.00  0.00    +0.000 C 
ENDBRANCH  22  23
ENDBRANCH  21  22
ENDBRANCH   1  21
TORSDOF 5
ENDMDL
