MODEL 1
REMARK VINA RESULT:      -6.4      0.000      0.000
REMARK  Name = 
REMARK  7 active torsions:
REMARK  status: ('A' for Active; 'I' for Inactive)
REMARK    1  A    between atoms: C_1  and  O_2
REMARK    2  A    between atoms: O_2  and  C_3
REMARK    3  A    between atoms: C_7  and  O_8
REMARK    4  A    between atoms: O_8  and  C_9
REMARK    5  A    between atoms: C_10  and  C_11
REMARK    6  A    between atoms: N_17  and  C_18
REMARK    7  A    between atoms: C_23  and  O_24
REMARK                            x       y       z     vdW  Elec       q    Type
REMARK                         _______ _______ _______ _____ _____    ______ ____
ROOT
ATOM      1  C   UNL     1       2.818   5.941  18.124  0.00  0.00    +0.000 C 
ATOM      2  O   UNL     1       2.149   6.814  17.576  0.00  0.00    +0.000 OA
ATOM      3  N   UNL     1       4.227   5.884  17.933  0.00  0.00    +0.000 N 
ATOM      4  C   UNL     1       4.822   7.017  17.191  0.00  0.00    +0.000 C 
ATOM      5  C   UNL     1       5.891   6.506  16.236  0.00  0.00    +0.000 C 
ATOM      6  O   UNL     1       5.611   5.927  15.186  0.00  0.00    +0.000 OA
ATOM      7  N   UNL     1       7.119   6.318  16.872  0.00  0.00    +0.000 N 
ATOM      8  C   UNL     1       7.389   4.965  17.320  0.00  0.00    +0.000 C 
ATOM      9  C   UNL     1       6.152   4.183  17.825  0.00  0.00    +0.000 C 
ATOM     10  C   UNL     1       5.151   4.998  18.676  0.00  0.00    +0.000 C 
ENDROOT
BRANCH   1  16
ATOM     11  C   UNL     1       1.814   3.687  18.512  0.00  0.00    +0.000 A 
ATOM     12  C   UNL     1       1.140   2.737  19.296  0.00  0.00    +0.000 A 
ATOM     13  C   UNL     1       0.824   3.014  20.615  0.00  0.00    +0.000 A 
ATOM     14  C   UNL     1       1.167   4.249  21.145  0.00  0.00    +0.000 A 
ATOM     15  C   UNL     1       1.777   5.257  20.371  0.00  0.00    +0.000 A 
ATOM     16  C   UNL     1       2.072   4.994  19.013  0.00  0.00    +0.000 A 
BRANCH  11  18
ATOM     17  C   UNL     1       2.815   2.091  17.028  0.00  0.00    +0.000 C 
ATOM     18  O   UNL     1       2.269   3.387  17.245  0.00  0.00    +0.000 OA
ENDBRANCH  11  18
BRANCH  15  19
ATOM     19  O   UNL     1       1.960   6.343  21.175  0.00  0.00    +0.000 OA
ATOM     20  C   UNL     1       1.429   7.627  20.901  0.00  0.00    +0.000 C 
ENDBRANCH  15  19
ENDBRANCH   1  16
BRANCH   7  21
ATOM     21  C   UNL     1       8.012   7.453  17.209  0.00  0.00    +0.000 C 
ATOM     22  C   UNL     1       7.348   8.841  17.430  0.00  0.00    +0.000 C 
ATOM     23  C   UNL     1       8.330   9.049  18.599  0.00  0.00    +0.000 C 
ATOM     24  C   UNL     1       8.394   7.513  18.715  0.00  0.00    +0.000 C 
ENDBRANCH   7  21
BRANCH   9  25
ATOM     25  O   UNL     1       5.457   3.523  16.763  0.00  0.00    +0.000 OA
ATOM     26  H   UNL     1       4.893   4.191  16.321  0.00  0.00    +0.000 HD
ENDBRANCH   9  25
TORSDOF 5
ENDMDL
MODEL 2
REMARK VINA RESULT:      -6.4      2.416      3.584
REMARK  Name = 
REMARK  7 active torsions:
REMARK  status: ('A' for Active; 'I' for Inactive)
REMARK    1  A    between atoms: C_1  and  O_2
REMARK    2  A    between atoms: O_2  and  C_3
REMARK    3  A    between atoms: C_7  and  O_8
REMARK    4  A    between atoms: O_8  and  C_9
REMARK    5  A    between atoms: C_10  and  C_11
REMARK    6  A    between atoms: N_17  and  C_18
REMARK    7  A    between atoms: C_23  and  O_24
REMARK                            x       y       z     vdW  Elec       q    Type
REMARK                         _______ _______ _______ _____ _____    ______ ____
ROOT
ATOM      1  C   UNL     1       4.988   4.133  18.970  0.00  0.00    +0.000 C 
ATOM      2  O   UNL     1       5.882   3.675  19.678  0.00  0.00    +0.000 OA
ATOM      3  N   UNL     1       5.270   4.572  17.645  0.00  0.00    +0.000 N 
ATOM      4  C   UNL     1       6.633   4.285  17.149  0.00  0.00    +0.000 C 
ATOM      5  C   UNL     1       7.156   5.474  16.356  0.00  0.00    +0.000 C 
ATOM      6  O   UNL     1       7.541   6.509  16.902  0.00  0.00    +0.000 OA
ATOM      7  N   UNL     1       6.706   5.466  15.036  0.00  0.00    +0.000 N 
ATOM      8  C   UNL     1       5.530   6.273  14.771  0.00  0.00    +0.000 C 
ATOM      9  C   UNL     1       4.493   6.312  15.920  0.00  0.00    +0.000 C 
ATOM     10  C   UNL     1       4.252   4.969  16.647  0.00  0.00    +0.000 C 
ENDROOT
BRANCH   1  16
ATOM     11  C   UNL     1       3.065   2.920  20.004  0.00  0.00    +0.000 A 
ATOM     12  C   UNL     1       1.792   2.868  20.594  0.00  0.00    +0.000 A 
ATOM     13  C   UNL     1       1.102   4.035  20.876  0.00  0.00    +0.000 A 
ATOM     14  C   UNL     1       1.677   5.254  20.550  0.00  0.00    +0.000 A 
ATOM     15  C   UNL     1       2.919   5.347  19.890  0.00  0.00    +0.000 A 
ATOM     16  C   UNL     1       3.615   4.158  19.568  0.00  0.00    +0.000 A 
BRANCH  11  18
ATOM     17  C   UNL     1       3.704   1.063  18.627  0.00  0.00    +0.000 C 
ATOM     18  O   UNL     1       3.835   1.787  19.845  0.00  0.00    +0.000 OA
ENDBRANCH  11  18
BRANCH  15  19
ATOM     19  O   UNL     1       3.188   6.670  19.699  0.00  0.00    +0.000 OA
ATOM     20  C   UNL     1       2.248   7.602  19.194  0.00  0.00    +0.000 C 
ENDBRANCH  15  19
ENDBRANCH   1  16
BRANCH   7  21
ATOM     21  C   UNL     1       7.293   4.570  14.011  0.00  0.00    +0.000 C 
ATOM     22  C   UNL     1       6.307   3.770  13.114  0.00  0.00    +0.000 C 
ATOM     23  C   UNL     1       7.253   4.061  11.932  0.00  0.00    +0.000 C 
ATOM     24  C   UNL     1       7.712   5.310  12.709  0.00  0.00    +0.000 C 
ENDBRANCH   7  21
BRANCH   9  25
ATOM     25  O   UNL     1       4.783   7.334  16.879  0.00  0.00    +0.000 OA
ATOM     26  H   UNL     1       4.376   8.164  16.554  0.00  0.00    +0.000 HD
ENDBRANCH   9  25
TORSDOF 5
ENDMDL
MODEL 3
REMARK VINA RESULT:      -6.3      7.843      9.564
REMARK  Name = 
REMARK  7 active torsions:
REMARK  status: ('A' for Active; 'I' for Inactive)
REMARK    1  A    between atoms: C_1  and  O_2
REMARK    2  A    between atoms: O_2  and  C_3
REMARK    3  A    between atoms: C_7  and  O_8
REMARK    4  A    between atoms: O_8  and  C_9
REMARK    5  A    between atoms: C_10  and  C_11
REMARK    6  A    between atoms: N_17  and  C_18
REMARK    7  A    between atoms: C_23  and  O_24
REMARK                            x       y       z     vdW  Elec       q    Type
REMARK                         _______ _______ _______ _____ _____    ______ ____
ROOT
ATOM      1  C   UNL     1      -1.156  11.247  18.772  0.00  0.00    +0.000 C 
ATOM      2  O   UNL     1      -0.788  10.109  19.053  0.00  0.00    +0.000 OA
ATOM      3  N   UNL     1      -0.246  12.339  18.851  0.00  0.00    +0.000 N 
ATOM      4  C   UNL     1       1.164  11.984  19.120  0.00  0.00    +0.000 C 
ATOM      5  C   UNL     1       1.772  12.981  20.095  0.00  0.00    +0.000 C 
ATOM      6  O   UNL     1       1.508  12.967  21.298  0.00  0.00    +0.000 OA
ATOM      7  N   UNL     1       2.217  14.139  19.456  0.00  0.00    +0.000 N 
ATOM      8  C   UNL     1       1.288  15.253  19.462  0.00  0.00    +0.000 C 
ATOM      9  C   UNL     1      -0.206  14.860  19.354  0.00  0.00    +0.000 C 
ATOM     10  C   UNL     1      -0.522  13.711  18.369  0.00  0.00    +0.000 C 
ENDROOT
BRANCH   1  16
ATOM     11  C   UNL     1      -3.498  11.989  19.221  0.00  0.00    +0.000 A 
ATOM     12  C   UNL     1      -4.840  12.179  18.856  0.00  0.00    +0.000 A 
ATOM     13  C   UNL     1      -5.262  11.903  17.566  0.00  0.00    +0.000 A 
ATOM     14  C   UNL     1      -4.344  11.421  16.646  0.00  0.00    +0.000 A 
ATOM     15  C   UNL     1      -3.005  11.146  16.992  0.00  0.00    +0.000 A 
ATOM     16  C   UNL     1      -2.575  11.392  18.317  0.00  0.00    +0.000 A 
BRANCH  11  18
ATOM     17  C   UNL     1      -3.950  12.941  21.375  0.00  0.00    +0.000 C 
ATOM     18  O   UNL     1      -3.019  12.390  20.451  0.00  0.00    +0.000 OA
ENDBRANCH  11  18
BRANCH  15  19
ATOM     19  O   UNL     1      -2.379  10.668  15.878  0.00  0.00    +0.000 OA
ATOM     20  C   UNL     1      -3.061  10.210  14.724  0.00  0.00    +0.000 C 
ENDBRANCH  15  19
ENDBRANCH   1  16
BRANCH   7  21
ATOM     21  C   UNL     1       3.483  14.174  18.685  0.00  0.00    +0.000 C 
ATOM     22  C   UNL     1       3.629  15.280  17.603  0.00  0.00    +0.000 C 
ATOM     23  C   UNL     1       5.092  15.440  18.060  0.00  0.00    +0.000 C 
ATOM     24  C   UNL     1       4.641  14.898  19.430  0.00  0.00    +0.000 C 
ENDBRANCH   7  21
BRANCH   9  25
ATOM     25  O   UNL     1      -0.786  14.575  20.630  0.00  0.00    +0.000 OA
ATOM     26  H   UNL     1      -1.592  14.041  20.473  0.00  0.00    +0.000 HD
ENDBRANCH   9  25
TORSDOF 5
ENDMDL
MODEL 4
REMARK VINA RESULT:      -6.1      0.238      2.594
REMARK  Name = 
REMARK  7 active torsions:
REMARK  status: ('A' for Active; 'I' for Inactive)
REMARK    1  A    between atoms: C_1  and  O_2
REMARK    2  A    between atoms: O_2  and  C_3
REMARK    3  A    between atoms: C_7  and  O_8
REMARK    4  A    between atoms: O_8  and  C_9
REMARK    5  A    between atoms: C_10  and  C_11
REMARK    6  A    between atoms: N_17  and  C_18
REMARK    7  A    between atoms: C_23  and  O_24
REMARK                            x       y       z     vdW  Elec       q    Type
REMARK                         _______ _______ _______ _____ _____    ______ ____
ROOT
ATOM      1  C   UNL     1       2.986   5.901  18.214  0.00  0.00    +0.000 C 
ATOM      2  O   UNL     1       2.288   6.798  17.749  0.00  0.00    +0.000 OA
ATOM      3  N   UNL     1       4.389   5.880  17.975  0.00  0.00    +0.000 N 
ATOM      4  C   UNL     1       4.943   7.070  17.293  0.00  0.00    +0.000 C 
ATOM      5  C   UNL     1       5.988   6.643  16.273  0.00  0.00    +0.000 C 
ATOM      6  O   UNL     1       5.682   6.132  15.195  0.00  0.00    +0.000 OA
ATOM      7  N   UNL     1       7.238   6.432  16.855  0.00  0.00    +0.000 N 
ATOM      8  C   UNL     1       7.543   5.056  17.201  0.00  0.00    +0.000 C 
ATOM      9  C   UNL     1       6.333   4.222  17.690  0.00  0.00    +0.000 C 
ATOM     10  C   UNL     1       5.350   4.961  18.626  0.00  0.00    +0.000 C 
ENDROOT
BRANCH   1  16
ATOM     11  C   UNL     1       1.897   5.274  20.373  0.00  0.00    +0.000 A 
ATOM     12  C   UNL     1       1.215   4.382  21.215  0.00  0.00    +0.000 A 
ATOM     13  C   UNL     1       0.797   3.150  20.741  0.00  0.00    +0.000 A 
ATOM     14  C   UNL     1       1.077   2.803  19.428  0.00  0.00    +0.000 A 
ATOM     15  C   UNL     1       1.823   3.639  18.572  0.00  0.00    +0.000 A 
ATOM     16  C   UNL     1       2.284   4.884  19.060  0.00  0.00    +0.000 A 
BRANCH  11  18
ATOM     17  C   UNL     1       1.110   7.437  21.046  0.00  0.00    +0.000 C 
ATOM     18  O   UNL     1       2.197   6.560  20.772  0.00  0.00    +0.000 OA
ENDBRANCH  11  18
BRANCH  15  19
ATOM     19  O   UNL     1       1.938   3.003  17.371  0.00  0.00    +0.000 OA
ATOM     20  C   UNL     1       2.850   1.949  17.119  0.00  0.00    +0.000 C 
ENDBRANCH  15  19
ENDBRANCH   1  16
BRANCH   7  21
ATOM     21  C   UNL     1       8.125   7.556  17.240  0.00  0.00    +0.000 C 
ATOM     22  C   UNL     1       7.463   8.945  17.457  0.00  0.00    +0.000 C 
ATOM     23  C   UNL     1       8.404   9.130  18.664  0.00  0.00    +0.000 C 
ATOM     24  C   UNL     1       8.454   7.592  18.760  0.00  0.00    +0.000 C 
ENDBRANCH   7  21
BRANCH   9  25
ATOM     25  O   UNL     1       5.613   3.624  16.609  0.00  0.00    +0.000 OA
ATOM     26  H   UNL     1       4.775   3.273  16.973  0.00  0.00    +0.000 HD
ENDBRANCH   9  25
TORSDOF 5
ENDMDL
MODEL 5
REMARK VINA RESULT:      -5.9      2.277      4.122
REMARK  Name = 
REMARK  7 active torsions:
REMARK  status: ('A' for Active; 'I' for Inactive)
REMARK    1  A    between atoms: C_1  and  O_2
REMARK    2  A    between atoms: O_2  and  C_3
REMARK    3  A    between atoms: C_7  and  O_8
REMARK    4  A    between atoms: O_8  and  C_9
REMARK    5  A    between atoms: C_10  and  C_11
REMARK    6  A    between atoms: N_17  and  C_18
REMARK    7  A    between atoms: C_23  and  O_24
REMARK                            x       y       z     vdW  Elec       q    Type
REMARK                         _______ _______ _______ _____ _____    ______ ____
ROOT
ATOM      1  C   UNL     1       4.795   3.992  19.147  0.00  0.00    +0.000 C 
ATOM      2  O   UNL     1       5.684   3.597  19.897  0.00  0.00    +0.000 OA
ATOM      3  N   UNL     1       5.111   4.487  17.851  0.00  0.00    +0.000 N 
ATOM      4  C   UNL     1       6.520   4.333  17.429  0.00  0.00    +0.000 C 
ATOM      5  C   UNL     1       6.979   5.582  16.692  0.00  0.00    +0.000 C 
ATOM      6  O   UNL     1       7.240   6.632  17.280  0.00  0.00    +0.000 OA
ATOM      7  N   UNL     1       6.608   5.568  15.348  0.00  0.00    +0.000 N 
ATOM      8  C   UNL     1       5.381   6.276  15.031  0.00  0.00    +0.000 C 
ATOM      9  C   UNL     1       4.281   6.196  16.118  0.00  0.00    +0.000 C 
ATOM     10  C   UNL     1       4.120   4.819  16.802  0.00  0.00    +0.000 C 
ENDROOT
BRANCH   1  16
ATOM     11  C   UNL     1       2.715   5.092  19.987  0.00  0.00    +0.000 A 
ATOM     12  C   UNL     1       1.392   5.071  20.455  0.00  0.00    +0.000 A 
ATOM     13  C   UNL     1       0.681   3.882  20.494  0.00  0.00    +0.000 A 
ATOM     14  C   UNL     1       1.301   2.713  20.081  0.00  0.00    +0.000 A 
ATOM     15  C   UNL     1       2.650   2.679  19.674  0.00  0.00    +0.000 A 
ATOM     16  C   UNL     1       3.393   3.883  19.664  0.00  0.00    +0.000 A 
BRANCH  11  18
ATOM     17  C   UNL     1       2.628   7.459  19.608  0.00  0.00    +0.000 C 
ATOM     18  O   UNL     1       3.397   6.277  19.800  0.00  0.00    +0.000 OA
ENDBRANCH  11  18
BRANCH  15  19
ATOM     19  O   UNL     1       2.955   1.389  19.355  0.00  0.00    +0.000 OA
ATOM     20  C   UNL     1       3.759   1.017  18.250  0.00  0.00    +0.000 C 
ENDBRANCH  15  19
ENDBRANCH   1  16
BRANCH   7  21
ATOM     21  C   UNL     1       7.329   4.753  14.341  0.00  0.00    +0.000 C 
ATOM     22  C   UNL     1       6.469   3.910  13.358  0.00  0.00    +0.000 C 
ATOM     23  C   UNL     1       7.465   4.309  12.251  0.00  0.00    +0.000 C 
ATOM     24  C   UNL     1       7.774   5.564  13.091  0.00  0.00    +0.000 C 
ENDBRANCH   7  21
BRANCH   9  25
ATOM     25  O   UNL     1       4.425   7.215  17.112  0.00  0.00    +0.000 OA
ATOM     26  H   UNL     1       3.856   7.966  16.846  0.00  0.00    +0.000 HD
ENDBRANCH   9  25
TORSDOF 5
ENDMDL
MODEL 6
REMARK VINA RESULT:      -5.9      8.834     12.261
REMARK  Name = 
REMARK  7 active torsions:
REMARK  status: ('A' for Active; 'I' for Inactive)
REMARK    1  A    between atoms: C_1  and  O_2
REMARK    2  A    between atoms: O_2  and  C_3
REMARK    3  A    between atoms: C_7  and  O_8
REMARK    4  A    between atoms: O_8  and  C_9
REMARK    5  A    between atoms: C_10  and  C_11
REMARK    6  A    between atoms: N_17  and  C_18
REMARK    7  A    between atoms: C_23  and  O_24
REMARK                            x       y       z     vdW  Elec       q    Type
REMARK                         _______ _______ _______ _____ _____    ______ ____
ROOT
ATOM      1  C   UNL     1      -4.294  12.709  23.493  0.00  0.00    +0.000 C 
ATOM      2  O   UNL     1      -4.179  12.024  24.506  0.00  0.00    +0.000 OA
ATOM      3  N   UNL     1      -3.245  12.758  22.532  0.00  0.00    +0.000 N 
ATOM      4  C   UNL     1      -2.122  11.822  22.757  0.00  0.00    +0.000 C 
ATOM      5  C   UNL     1      -0.802  12.512  22.444  0.00  0.00    +0.000 C 
ATOM      6  O   UNL     1      -0.300  13.343  23.201  0.00  0.00    +0.000 OA
ATOM      7  N   UNL     1      -0.507  12.491  21.080  0.00  0.00    +0.000 N 
ATOM      8  C   UNL     1      -0.885  13.680  20.340  0.00  0.00    +0.000 C 
ATOM      9  C   UNL     1      -2.192  14.359  20.817  0.00  0.00    +0.000 C 
ATOM     10  C   UNL     1      -3.340  13.397  21.200  0.00  0.00    +0.000 C 
ENDROOT
BRANCH   1  16
ATOM     11  C   UNL     1      -5.652  14.787  23.764  0.00  0.00    +0.000 A 
ATOM     12  C   UNL     1      -6.829  15.539  23.620  0.00  0.00    +0.000 A 
ATOM     13  C   UNL     1      -7.915  15.017  22.936  0.00  0.00    +0.000 A 
ATOM     14  C   UNL     1      -7.829  13.735  22.412  0.00  0.00    +0.000 A 
ATOM     15  C   UNL     1      -6.693  12.921  22.599  0.00  0.00    +0.000 A 
ATOM     16  C   UNL     1      -5.593  13.434  23.326  0.00  0.00    +0.000 A 
BRANCH  11  18
ATOM     17  C   UNL     1      -4.603  16.633  24.880  0.00  0.00    +0.000 C 
ATOM     18  O   UNL     1      -4.509  15.332  24.310  0.00  0.00    +0.000 OA
ENDBRANCH  11  18
BRANCH  15  19
ATOM     19  O   UNL     1      -6.934  11.728  21.985  0.00  0.00    +0.000 OA
ATOM     20  C   UNL     1      -6.864  11.533  20.583  0.00  0.00    +0.000 C 
ENDBRANCH  15  19
ENDBRANCH   1  16
BRANCH   7  21
ATOM     21  C   UNL     1       0.010  11.275  20.407  0.00  0.00    +0.000 C 
ATOM     22  C   UNL     1      -0.951  10.535  19.435  0.00  0.00    +0.000 C 
ATOM     23  C   UNL     1       0.259  10.326  18.505  0.00  0.00    +0.000 C 
ATOM     24  C   UNL     1       0.873  11.584  19.151  0.00  0.00    +0.000 C 
ENDBRANCH   7  21
BRANCH   9  25
ATOM     25  O   UNL     1      -1.965  15.287  21.882  0.00  0.00    +0.000 OA
ATOM     26  H   UNL     1      -2.691  15.174  22.529  0.00  0.00    +0.000 HD
ENDBRANCH   9  25
TORSDOF 5
ENDMDL
MODEL 7
REMARK VINA RESULT:      -5.9      7.955      9.341
REMARK  Name = 
REMARK  7 active torsions:
REMARK  status: ('A' for Active; 'I' for Inactive)
REMARK    1  A    between atoms: C_1  and  O_2
REMARK    2  A    between atoms: O_2  and  C_3
REMARK    3  A    between atoms: C_7  and  O_8
REMARK    4  A    between atoms: O_8  and  C_9
REMARK    5  A    between atoms: C_10  and  C_11
REMARK    6  A    between atoms: N_17  and  C_18
REMARK    7  A    between atoms: C_23  and  O_24
REMARK                            x       y       z     vdW  Elec       q    Type
REMARK                         _______ _______ _______ _____ _____    ______ ____
ROOT
ATOM      1  C   UNL     1      -1.351  11.455  18.814  0.00  0.00    +0.000 C 
ATOM      2  O   UNL     1      -1.040  10.275  18.952  0.00  0.00    +0.000 OA
ATOM      3  N   UNL     1      -0.369  12.479  18.926  0.00  0.00    +0.000 N 
ATOM      4  C   UNL     1       1.031  12.017  19.045  0.00  0.00    +0.000 C 
ATOM      5  C   UNL     1       1.774  12.872  20.061  0.00  0.00    +0.000 C 
ATOM      6  O   UNL     1       1.600  12.750  21.274  0.00  0.00    +0.000 OA
ATOM      7  N   UNL     1       2.245  14.062  19.505  0.00  0.00    +0.000 N 
ATOM      8  C   UNL     1       1.395  15.221  19.695  0.00  0.00    +0.000 C 
ATOM      9  C   UNL     1      -0.125  14.928  19.669  0.00  0.00    +0.000 C 
ATOM     10  C   UNL     1      -0.589  13.908  18.605  0.00  0.00    +0.000 C 
ENDROOT
BRANCH   1  16
ATOM     11  C   UNL     1      -3.259  11.336  17.206  0.00  0.00    +0.000 A 
ATOM     12  C   UNL     1      -4.599  11.539  16.839  0.00  0.00    +0.000 A 
ATOM     13  C   UNL     1      -5.515  12.013  17.764  0.00  0.00    +0.000 A 
ATOM     14  C   UNL     1      -5.086  12.300  19.051  0.00  0.00    +0.000 A 
ATOM     15  C   UNL     1      -3.736  12.180  19.439  0.00  0.00    +0.000 A 
ATOM     16  C   UNL     1      -2.788  11.729  18.490  0.00  0.00    +0.000 A 
BRANCH  11  18
ATOM     17  C   UNL     1      -2.829  10.337  15.069  0.00  0.00    +0.000 C 
ATOM     18  O   UNL     1      -2.360  10.731  16.353  0.00  0.00    +0.000 OA
ENDBRANCH  11  18
BRANCH  15  19
ATOM     19  O   UNL     1      -3.646  12.554  20.747  0.00  0.00    +0.000 OA
ATOM     20  C   UNL     1      -4.765  12.726  21.598  0.00  0.00    +0.000 C 
ENDBRANCH  15  19
ENDBRANCH   1  16
BRANCH   7  21
ATOM     21  C   UNL     1       3.451  14.102  18.642  0.00  0.00    +0.000 C 
ATOM     22  C   UNL     1       3.515  15.215  17.559  0.00  0.00    +0.000 C 
ATOM     23  C   UNL     1       5.009  15.373  17.907  0.00  0.00    +0.000 C 
ATOM     24  C   UNL     1       4.661  14.822  19.303  0.00  0.00    +0.000 C 
ENDBRANCH   7  21
BRANCH   9  25
ATOM     25  O   UNL     1      -0.627  14.548  20.954  0.00  0.00    +0.000 OA
ATOM     26  H   UNL     1      -0.810  15.371  21.452  0.00  0.00    +0.000 HD
ENDBRANCH   9  25
TORSDOF 5
ENDMDL
MODEL 8
REMARK VINA RESULT:      -5.9      8.680     12.171
REMARK  Name = 
REMARK  7 active torsions:
REMARK  status: ('A' for Active; 'I' for Inactive)
REMARK    1  A    between atoms: C_1  and  O_2
REMARK    2  A    between atoms: O_2  and  C_3
REMARK    3  A    between atoms: C_7  and  O_8
REMARK    4  A    between atoms: O_8  and  C_9
REMARK    5  A    between atoms: C_10  and  C_11
REMARK    6  A    between atoms: N_17  and  C_18
REMARK    7  A    between atoms: C_23  and  O_24
REMARK                            x       y       z     vdW  Elec       q    Type
REMARK                         _______ _______ _______ _____ _____    ______ ____
ROOT
ATOM      1  C   UNL     1      -4.350  12.887  23.818  0.00  0.00    +0.000 C 
ATOM      2  O   UNL     1      -4.208  12.561  24.994  0.00  0.00    +0.000 OA
ATOM      3  N   UNL     1      -3.380  12.517  22.845  0.00  0.00    +0.000 N 
ATOM      4  C   UNL     1      -2.318  11.599  23.311  0.00  0.00    +0.000 C 
ATOM      5  C   UNL     1      -0.978  12.016  22.722  0.00  0.00    +0.000 C 
ATOM      6  O   UNL     1      -0.355  12.994  23.137  0.00  0.00    +0.000 OA
ATOM      7  N   UNL     1      -0.794  11.524  21.430  0.00  0.00    +0.000 N 
ATOM      8  C   UNL     1      -1.137  12.440  20.358  0.00  0.00    +0.000 C 
ATOM      9  C   UNL     1      -2.346  13.362  20.648  0.00  0.00    +0.000 C 
ATOM     10  C   UNL     1      -3.531  12.696  21.383  0.00  0.00    +0.000 C 
ENDROOT
BRANCH   1  16
ATOM     11  C   UNL     1      -5.581  15.055  23.670  0.00  0.00    +0.000 A 
ATOM     12  C   UNL     1      -6.707  15.834  23.358  0.00  0.00    +0.000 A 
ATOM     13  C   UNL     1      -7.810  15.260  22.749  0.00  0.00    +0.000 A 
ATOM     14  C   UNL     1      -7.794  13.902  22.468  0.00  0.00    +0.000 A 
ATOM     15  C   UNL     1      -6.715  13.071  22.832  0.00  0.00    +0.000 A 
ATOM     16  C   UNL     1      -5.599  13.644  23.485  0.00  0.00    +0.000 A 
BRANCH  11  18
ATOM     17  C   UNL     1      -3.840  16.678  23.380  0.00  0.00    +0.000 C 
ATOM     18  O   UNL     1      -4.416  15.623  24.141  0.00  0.00    +0.000 OA
ENDBRANCH  11  18
BRANCH  15  19
ATOM     19  O   UNL     1      -7.019  11.802  22.436  0.00  0.00    +0.000 OA
ATOM     20  C   UNL     1      -7.544  11.476  21.162  0.00  0.00    +0.000 C 
ENDBRANCH  15  19
ENDBRANCH   1  16
BRANCH   7  21
ATOM     21  C   UNL     1      -0.427  10.111  21.172  0.00  0.00    +0.000 C 
ATOM     22  C   UNL     1       0.755   9.848  20.197  0.00  0.00    +0.000 C 
ATOM     23  C   UNL     1       1.203   8.723  21.151  0.00  0.00    +0.000 C 
ATOM     24  C   UNL     1       0.482   9.496  22.273  0.00  0.00    +0.000 C 
ENDBRANCH   7  21
BRANCH   9  25
ATOM     25  O   UNL     1      -1.964  14.559  21.333  0.00  0.00    +0.000 OA
ATOM     26  H   UNL     1      -2.370  14.529  22.224  0.00  0.00    +0.000 HD
ENDBRANCH   9  25
TORSDOF 5
ENDMDL
MODEL 9
REMARK VINA RESULT:      -5.9      7.683     10.653
REMARK  Name = 
REMARK  7 active torsions:
REMARK  status: ('A' for Active; 'I' for Inactive)
REMARK    1  A    between atoms: C_1  and  O_2
REMARK    2  A    between atoms: O_2  and  C_3
REMARK    3  A    between atoms: C_7  and  O_8
REMARK    4  A    between atoms: O_8  and  C_9
REMARK    5  A    between atoms: C_10  and  C_11
REMARK    6  A    between atoms: N_17  and  C_18
REMARK    7  A    between atoms: C_23  and  O_24
REMARK                            x       y       z     vdW  Elec       q    Type
REMARK                         _______ _______ _______ _____ _____    ______ ____
ROOT
ATOM      1  C   UNL     1      -1.162  11.907  22.501  0.00  0.00    +0.000 C 
ATOM      2  O   UNL     1      -0.703  10.954  23.125  0.00  0.00    +0.000 OA
ATOM      3  N   UNL     1      -1.234  11.872  21.080  0.00  0.00    +0.000 N 
ATOM      4  C   UNL     1      -0.886  10.580  20.450  0.00  0.00    +0.000 C 
ATOM      5  C   UNL     1      -0.063  10.823  19.193  0.00  0.00    +0.000 C 
ATOM      6  O   UNL     1       1.122  11.153  19.238  0.00  0.00    +0.000 OA
ATOM      7  N   UNL     1      -0.863  11.112  18.087  0.00  0.00    +0.000 N 
ATOM      8  C   UNL     1      -1.045  12.522  17.799  0.00  0.00    +0.000 C 
ATOM      9  C   UNL     1      -1.121  13.439  19.044  0.00  0.00    +0.000 C 
ATOM     10  C   UNL     1      -1.925  12.875  20.238  0.00  0.00    +0.000 C 
ENDROOT
BRANCH   1  16
ATOM     11  C   UNL     1      -0.848  14.223  23.383  0.00  0.00    +0.000 A 
ATOM     12  C   UNL     1      -1.261  15.350  24.111  0.00  0.00    +0.000 A 
ATOM     13  C   UNL     1      -2.524  15.393  24.679  0.00  0.00    +0.000 A 
ATOM     14  C   UNL     1      -3.367  14.301  24.532  0.00  0.00    +0.000 A 
ATOM     15  C   UNL     1      -2.963  13.123  23.872  0.00  0.00    +0.000 A 
ATOM     16  C   UNL     1      -1.663  13.058  23.319  0.00  0.00    +0.000 A 
BRANCH  11  18
ATOM     17  C   UNL     1       0.915  15.463  22.331  0.00  0.00    +0.000 C 
ATOM     18  O   UNL     1       0.342  14.209  22.686  0.00  0.00    +0.000 OA
ENDBRANCH  11  18
BRANCH  15  19
ATOM     19  O   UNL     1      -4.004  12.244  23.920  0.00  0.00    +0.000 OA
ATOM     20  C   UNL     1      -5.060  12.320  24.862  0.00  0.00    +0.000 C 
ENDBRANCH  15  19
ENDBRANCH   1  16
BRANCH   7  21
ATOM     21  C   UNL     1      -1.604  10.056  17.356  0.00  0.00    +0.000 C 
ATOM     22  C   UNL     1      -3.047   9.735  17.837  0.00  0.00    +0.000 C 
ATOM     23  C   UNL     1      -3.442   9.614  16.352  0.00  0.00    +0.000 C 
ATOM     24  C   UNL     1      -2.267  10.563  16.043  0.00  0.00    +0.000 C 
ENDBRANCH   7  21
BRANCH   9  25
ATOM     25  O   UNL     1       0.172  13.860  19.489  0.00  0.00    +0.000 OA
ATOM     26  H   UNL     1       0.401  13.323  20.275  0.00  0.00    +0.000 HD
ENDBRANCH   9  25
TORSDOF 5
ENDMDL
