MODEL 1
REMARK VINA RESULT:      -5.9      0.000      0.000
REMARK  Name = 
REMARK  5 active torsions:
REMARK  status: ('A' for Active; 'I' for Inactive)
REMARK    1  A    between atoms: C_1  and  C_2
REMARK    2  A    between atoms: C_2  and  N_3
REMARK    3  A    between atoms: C_17  and  S_18
REMARK    4  A    between atoms: S_18  and  C_19
REMARK    5  A    between atoms: N_23  and  C_24
REMARK                            x       y       z     vdW  Elec       q    Type
REMARK                         _______ _______ _______ _____ _____    ______ ____
ROOT
ATOM      1  N   UNL     1       8.374  12.338  22.289  0.00  0.00    +0.000 N 
ATOM      2  C   UNL     1       9.041  11.528  21.278  0.00  0.00    +0.000 C 
ATOM      3  C   UNL     1      10.440  11.953  20.738  0.00  0.00    +0.000 C 
ATOM      4  C   UNL     1      10.570  13.247  19.838  0.00  0.00    +0.000 C 
ATOM      5  C   UNL     1      10.123  14.493  20.661  0.00  0.00    +0.000 C 
ATOM      6  C   UNL     1       9.599  14.362  22.061  0.00  0.00    +0.000 C 
ATOM      7  C   UNL     1       8.272  13.706  22.144  0.00  0.00    +0.000 C 
ATOM      8  O   UNL     1       7.232  14.346  22.257  0.00  0.00    +0.000 OA
ATOM      9  C   UNL     1      12.122  13.525  19.534  0.00  0.00    +0.000 C 
ATOM     10  N   UNL     1      12.333  14.345  18.299  0.00  0.00    +0.000 N 
ATOM     11  C   UNL     1      11.929  15.696  18.291  0.00  0.00    +0.000 A 
ATOM     12  C   UNL     1      11.639  16.374  17.120  0.00  0.00    +0.000 A 
ATOM     13  C   UNL     1      11.121  17.652  17.205  0.00  0.00    +0.000 A 
ATOM     14  N   UNL     1      10.860  18.276  18.360  0.00  0.00    +0.000 NA
ATOM     15  C   UNL     1      11.218  17.597  19.451  0.00  0.00    +0.000 A 
ATOM     16  N   UNL     1      11.804  16.376  19.443  0.00  0.00    +0.000 NA
ATOM     17  C   UNL     1      11.973  13.503  17.157  0.00  0.00    +0.000 C 
ATOM     18  C   UNL     1      10.487  13.102  17.250  0.00  0.00    +0.000 C 
ATOM     19  N   UNL     1       9.814  12.932  18.570  0.00  0.00    +0.000 NA
ATOM     20  C   UNL     1       8.456  13.467  18.475  0.00  0.00    +0.000 C 
ENDROOT
BRANCH   1  22
ATOM     21  C   UNL     1       7.689  11.806  24.646  0.00  0.00    +0.000 C 
ATOM     22  C   UNL     1       7.383  11.734  23.165  0.00  0.00    +0.000 C 
ENDBRANCH   1  22
BRANCH  15  23
ATOM     23  S   UNL     1      10.791  18.266  21.050  0.00  0.00    +0.000 S 
ATOM     24  C   UNL     1      11.991  17.423  22.120  0.00  0.00    +0.000 C 
ENDBRANCH  15  23
TORSDOF 2
ENDMDL
MODEL 2
REMARK VINA RESULT:      -5.8     10.465     12.536
REMARK  Name = 
REMARK  5 active torsions:
REMARK  status: ('A' for Active; 'I' for Inactive)
REMARK    1  A    between atoms: C_1  and  C_2
REMARK    2  A    between atoms: C_2  and  N_3
REMARK    3  A    between atoms: C_17  and  S_18
REMARK    4  A    between atoms: S_18  and  C_19
REMARK    5  A    between atoms: N_23  and  C_24
REMARK                            x       y       z     vdW  Elec       q    Type
REMARK                         _______ _______ _______ _____ _____    ______ ____
ROOT
ATOM      1  N   UNL     1       6.723   5.028  15.345  0.00  0.00    +0.000 N 
ATOM      2  C   UNL     1       6.273   3.717  15.796  0.00  0.00    +0.000 C 
ATOM      3  C   UNL     1       4.762   3.469  16.088  0.00  0.00    +0.000 C 
ATOM      4  C   UNL     1       4.082   4.169  17.333  0.00  0.00    +0.000 C 
ATOM      5  C   UNL     1       4.152   5.716  17.154  0.00  0.00    +0.000 C 
ATOM      6  C   UNL     1       4.844   6.340  15.978  0.00  0.00    +0.000 C 
ATOM      7  C   UNL     1       6.318   6.175  15.995  0.00  0.00    +0.000 C 
ATOM      8  O   UNL     1       7.070   7.063  16.383  0.00  0.00    +0.000 OA
ATOM      9  C   UNL     1       2.508   3.852  17.322  0.00  0.00    +0.000 C 
ATOM     10  N   UNL     1       1.882   3.979  18.675  0.00  0.00    +0.000 N 
ATOM     11  C   UNL     1       1.780   5.253  19.272  0.00  0.00    +0.000 A 
ATOM     12  C   UNL     1       1.676   5.422  20.641  0.00  0.00    +0.000 A 
ATOM     13  C   UNL     1       1.716   6.704  21.155  0.00  0.00    +0.000 A 
ATOM     14  N   UNL     1       1.870   7.804  20.408  0.00  0.00    +0.000 NA
ATOM     15  C   UNL     1       1.901   7.581  19.093  0.00  0.00    +0.000 A 
ATOM     16  N   UNL     1       1.787   6.362  18.513  0.00  0.00    +0.000 NA
ATOM     17  C   UNL     1       2.383   2.868  19.487  0.00  0.00    +0.000 C 
ATOM     18  C   UNL     1       3.915   2.971  19.627  0.00  0.00    +0.000 C 
ATOM     19  N   UNL     1       4.751   3.569  18.546  0.00  0.00    +0.000 NA
ATOM     20  C   UNL     1       5.812   4.365  19.161  0.00  0.00    +0.000 C 
ENDROOT
BRANCH   1  22
ATOM     21  C   UNL     1       7.795   5.196  13.081  0.00  0.00    +0.000 C 
ATOM     22  C   UNL     1       7.956   5.151  14.585  0.00  0.00    +0.000 C 
ENDBRANCH   1  22
BRANCH  15  23
ATOM     23  S   UNL     1       2.245   8.953  18.003  0.00  0.00    +0.000 S 
ATOM     24  C   UNL     1       0.962  10.136  18.507  0.00  0.00    +0.000 C 
ENDBRANCH  15  23
TORSDOF 2
ENDMDL
MODEL 3
REMARK VINA RESULT:      -5.6     11.728     14.294
REMARK  Name = 
REMARK  5 active torsions:
REMARK  status: ('A' for Active; 'I' for Inactive)
REMARK    1  A    between atoms: C_1  and  C_2
REMARK    2  A    between atoms: C_2  and  N_3
REMARK    3  A    between atoms: C_17  and  S_18
REMARK    4  A    between atoms: S_18  and  C_19
REMARK    5  A    between atoms: N_23  and  C_24
REMARK                            x       y       z     vdW  Elec       q    Type
REMARK                         _______ _______ _______ _____ _____    ______ ____
ROOT
ATOM      1  N   UNL     1      -6.459  13.836  22.188  0.00  0.00    +0.000 N 
ATOM      2  C   UNL     1      -5.403  14.633  22.797  0.00  0.00    +0.000 C 
ATOM      3  C   UNL     1      -4.153  15.044  21.959  0.00  0.00    +0.000 C 
ATOM      4  C   UNL     1      -3.112  13.938  21.518  0.00  0.00    +0.000 C 
ATOM      5  C   UNL     1      -3.823  12.901  20.597  0.00  0.00    +0.000 C 
ATOM      6  C   UNL     1      -5.290  12.992  20.298  0.00  0.00    +0.000 C 
ATOM      7  C   UNL     1      -6.158  12.700  21.465  0.00  0.00    +0.000 C 
ATOM      8  O   UNL     1      -6.682  11.604  21.631  0.00  0.00    +0.000 OA
ATOM      9  C   UNL     1      -2.007  14.605  20.563  0.00  0.00    +0.000 C 
ATOM     10  N   UNL     1      -0.723  13.836  20.537  0.00  0.00    +0.000 N 
ATOM     11  C   UNL     1      -0.696  12.559  19.937  0.00  0.00    +0.000 A 
ATOM     12  C   UNL     1       0.251  11.606  20.269  0.00  0.00    +0.000 A 
ATOM     13  C   UNL     1       0.128  10.337  19.738  0.00  0.00    +0.000 A 
ATOM     14  N   UNL     1      -0.870   9.959  18.929  0.00  0.00    +0.000 NA
ATOM     15  C   UNL     1      -1.715  10.937  18.597  0.00  0.00    +0.000 A 
ATOM     16  N   UNL     1      -1.611  12.221  19.014  0.00  0.00    +0.000 NA
ATOM     17  C   UNL     1      -0.094  14.003  21.848  0.00  0.00    +0.000 C 
ATOM     18  C   UNL     1      -1.009  13.423  22.946  0.00  0.00    +0.000 C 
ATOM     19  N   UNL     1      -2.493  13.435  22.800  0.00  0.00    +0.000 NA
ATOM     20  C   UNL     1      -3.026  12.179  23.328  0.00  0.00    +0.000 C 
ENDROOT
BRANCH   1  22
ATOM     21  C   UNL     1      -7.916  13.782  24.232  0.00  0.00    +0.000 C 
ATOM     22  C   UNL     1      -7.808  13.886  22.726  0.00  0.00    +0.000 C 
ENDBRANCH   1  22
BRANCH  15  23
ATOM     23  S   UNL     1      -3.164  10.523  17.640  0.00  0.00    +0.000 S 
ATOM     24  C   UNL     1      -2.588  10.876  15.954  0.00  0.00    +0.000 C 
ENDBRANCH  15  23
TORSDOF 2
ENDMDL
MODEL 4
REMARK VINA RESULT:      -5.6     13.319     16.200
REMARK  Name = 
REMARK  5 active torsions:
REMARK  status: ('A' for Active; 'I' for Inactive)
REMARK    1  A    between atoms: C_1  and  C_2
REMARK    2  A    between atoms: C_2  and  N_3
REMARK    3  A    between atoms: C_17  and  S_18
REMARK    4  A    between atoms: S_18  and  C_19
REMARK    5  A    between atoms: N_23  and  C_24
REMARK                            x       y       z     vdW  Elec       q    Type
REMARK                         _______ _______ _______ _____ _____    ______ ____
ROOT
ATOM      1  N   UNL     1      -4.465  11.237  16.829  0.00  0.00    +0.000 N 
ATOM      2  C   UNL     1      -5.707  11.989  16.951  0.00  0.00    +0.000 C 
ATOM      3  C   UNL     1      -5.788  13.207  17.921  0.00  0.00    +0.000 C 
ATOM      4  C   UNL     1      -5.739  12.965  19.483  0.00  0.00    +0.000 C 
ATOM      5  C   UNL     1      -4.374  12.313  19.860  0.00  0.00    +0.000 C 
ATOM      6  C   UNL     1      -3.364  11.945  18.813  0.00  0.00    +0.000 C 
ATOM      7  C   UNL     1      -3.781  10.813  17.950  0.00  0.00    +0.000 C 
ATOM      8  O   UNL     1      -3.389   9.668  18.140  0.00  0.00    +0.000 OA
ATOM      9  C   UNL     1      -5.705  14.384  20.236  0.00  0.00    +0.000 C 
ATOM     10  N   UNL     1      -6.199  14.303  21.646  0.00  0.00    +0.000 N 
ATOM     11  C   UNL     1      -5.438  13.602  22.604  0.00  0.00    +0.000 A 
ATOM     12  C   UNL     1      -6.001  13.073  23.752  0.00  0.00    +0.000 A 
ATOM     13  C   UNL     1      -5.217  12.284  24.572  0.00  0.00    +0.000 A 
ATOM     14  N   UNL     1      -3.939  11.980  24.316  0.00  0.00    +0.000 NA
ATOM     15  C   UNL     1      -3.436  12.569  23.229  0.00  0.00    +0.000 A 
ATOM     16  N   UNL     1      -4.120  13.417  22.424  0.00  0.00    +0.000 NA
ATOM     17  C   UNL     1      -7.641  14.056  21.584  0.00  0.00    +0.000 C 
ATOM     18  C   UNL     1      -7.912  12.713  20.876  0.00  0.00    +0.000 C 
ATOM     19  N   UNL     1      -6.999  12.203  19.812  0.00  0.00    +0.000 NA
ATOM     20  C   UNL     1      -6.859  10.756  19.969  0.00  0.00    +0.000 C 
ENDROOT
BRANCH   1  22
ATOM     21  C   UNL     1      -2.768  10.569  15.102  0.00  0.00    +0.000 C 
ATOM     22  C   UNL     1      -4.189  10.483  15.617  0.00  0.00    +0.000 C 
ENDBRANCH   1  22
BRANCH  15  23
ATOM     23  S   UNL     1      -1.787  12.129  22.707  0.00  0.00    +0.000 S 
ATOM     24  C   UNL     1      -1.330  13.578  21.712  0.00  0.00    +0.000 C 
ENDBRANCH  15  23
TORSDOF 2
ENDMDL
MODEL 5
REMARK VINA RESULT:      -5.5     13.436     16.087
REMARK  Name = 
REMARK  5 active torsions:
REMARK  status: ('A' for Active; 'I' for Inactive)
REMARK    1  A    between atoms: C_1  and  C_2
REMARK    2  A    between atoms: C_2  and  N_3
REMARK    3  A    between atoms: C_17  and  S_18
REMARK    4  A    between atoms: S_18  and  C_19
REMARK    5  A    between atoms: N_23  and  C_24
REMARK                            x       y       z     vdW  Elec       q    Type
REMARK                         _______ _______ _______ _____ _____    ______ ____
ROOT
ATOM      1  N   UNL     1      -3.533  10.946  16.790  0.00  0.00    +0.000 N 
ATOM      2  C   UNL     1      -4.919  11.388  16.699  0.00  0.00    +0.000 C 
ATOM      3  C   UNL     1      -5.399  12.621  17.522  0.00  0.00    +0.000 C 
ATOM      4  C   UNL     1      -5.499  12.517  19.098  0.00  0.00    +0.000 C 
ATOM      5  C   UNL     1      -4.082  12.239  19.685  0.00  0.00    +0.000 C 
ATOM      6  C   UNL     1      -2.888  12.044  18.797  0.00  0.00    +0.000 C 
ATOM      7  C   UNL     1      -2.922  10.784  18.016  0.00  0.00    +0.000 C 
ATOM      8  O   UNL     1      -2.307   9.782  18.365  0.00  0.00    +0.000 OA
ATOM      9  C   UNL     1      -5.886  13.956  19.698  0.00  0.00    +0.000 C 
ATOM     10  N   UNL     1      -6.527  13.867  21.048  0.00  0.00    +0.000 N 
ATOM     11  C   UNL     1      -5.757  13.441  22.150  0.00  0.00    +0.000 A 
ATOM     12  C   UNL     1      -6.329  12.881  23.279  0.00  0.00    +0.000 A 
ATOM     13  C   UNL     1      -5.498  12.367  24.256  0.00  0.00    +0.000 A 
ATOM     14  N   UNL     1      -4.162  12.357  24.172  0.00  0.00    +0.000 NA
ATOM     15  C   UNL     1      -3.670  12.965  23.091  0.00  0.00    +0.000 A 
ATOM     16  N   UNL     1      -4.419  13.562  22.133  0.00  0.00    +0.000 NA
ATOM     17  C   UNL     1      -7.854  13.279  20.856  0.00  0.00    +0.000 C 
ATOM     18  C   UNL     1      -7.719  11.861  20.266  0.00  0.00    +0.000 C 
ATOM     19  N   UNL     1      -6.585  11.504  19.366  0.00  0.00    +0.000 NA
ATOM     20  C   UNL     1      -6.141  10.148  19.686  0.00  0.00    +0.000 C 
ENDROOT
BRANCH   1  22
ATOM     21  C   UNL     1      -3.723  10.185  14.405  0.00  0.00    +0.000 C 
ATOM     22  C   UNL     1      -2.939  10.190  15.700  0.00  0.00    +0.000 C 
ENDBRANCH   1  22
BRANCH  15  23
ATOM     23  S   UNL     1      -1.911  12.892  22.798  0.00  0.00    +0.000 S 
ATOM     24  C   UNL     1      -1.564  11.146  23.155  0.00  0.00    +0.000 C 
ENDBRANCH  15  23
TORSDOF 2
ENDMDL
MODEL 6
REMARK VINA RESULT:      -5.4     11.055     13.420
REMARK  Name = 
REMARK  5 active torsions:
REMARK  status: ('A' for Active; 'I' for Inactive)
REMARK    1  A    between atoms: C_1  and  C_2
REMARK    2  A    between atoms: C_2  and  N_3
REMARK    3  A    between atoms: C_17  and  S_18
REMARK    4  A    between atoms: S_18  and  C_19
REMARK    5  A    between atoms: N_23  and  C_24
REMARK                            x       y       z     vdW  Elec       q    Type
REMARK                         _______ _______ _______ _____ _____    ______ ____
ROOT
ATOM      1  N   UNL     1      -2.459  14.445  23.827  0.00  0.00    +0.000 N 
ATOM      2  C   UNL     1      -1.055  14.323  23.456  0.00  0.00    +0.000 C 
ATOM      3  C   UNL     1      -0.636  14.396  21.956  0.00  0.00    +0.000 C 
ATOM      4  C   UNL     1      -1.034  13.219  20.977  0.00  0.00    +0.000 C 
ATOM      5  C   UNL     1      -2.587  13.118  20.898  0.00  0.00    +0.000 C 
ATOM      6  C   UNL     1      -3.474  14.004  21.724  0.00  0.00    +0.000 C 
ATOM      7  C   UNL     1      -3.428  13.710  23.177  0.00  0.00    +0.000 C 
ATOM      8  O   UNL     1      -4.284  13.032  23.734  0.00  0.00    +0.000 OA
ATOM      9  C   UNL     1      -0.599  13.608  19.480  0.00  0.00    +0.000 C 
ATOM     10  N   UNL     1      -0.419  12.412  18.599  0.00  0.00    +0.000 N 
ATOM     11  C   UNL     1      -1.547  11.645  18.239  0.00  0.00    +0.000 A 
ATOM     12  C   UNL     1      -1.447  10.318  17.859  0.00  0.00    +0.000 A 
ATOM     13  C   UNL     1      -2.609   9.600  17.652  0.00  0.00    +0.000 A 
ATOM     14  N   UNL     1      -3.838  10.104  17.816  0.00  0.00    +0.000 NA
ATOM     15  C   UNL     1      -3.869  11.402  18.121  0.00  0.00    +0.000 A 
ATOM     16  N   UNL     1      -2.775  12.189  18.261  0.00  0.00    +0.000 NA
ATOM     17  C   UNL     1       0.780  11.712  19.063  0.00  0.00    +0.000 C 
ATOM     18  C   UNL     1       0.582  11.243  20.519  0.00  0.00    +0.000 C 
ATOM     19  N   UNL     1      -0.273  12.012  21.468  0.00  0.00    +0.000 NA
ATOM     20  C   UNL     1      -1.022  11.066  22.295  0.00  0.00    +0.000 C 
ENDROOT
BRANCH   1  22
ATOM     21  C   UNL     1      -3.527  16.239  25.222  0.00  0.00    +0.000 C 
ATOM     22  C   UNL     1      -2.821  14.902  25.159  0.00  0.00    +0.000 C 
ENDBRANCH   1  22
BRANCH  15  23
ATOM     23  S   UNL     1      -5.444  12.151  18.502  0.00  0.00    +0.000 S 
ATOM     24  C   UNL     1      -6.529  10.696  18.543  0.00  0.00    +0.000 C 
ENDBRANCH  15  23
TORSDOF 2
ENDMDL
MODEL 7
REMARK VINA RESULT:      -5.3     11.396     14.475
REMARK  Name = 
REMARK  5 active torsions:
REMARK  status: ('A' for Active; 'I' for Inactive)
REMARK    1  A    between atoms: C_1  and  C_2
REMARK    2  A    between atoms: C_2  and  N_3
REMARK    3  A    between atoms: C_17  and  S_18
REMARK    4  A    between atoms: S_18  and  C_19
REMARK    5  A    between atoms: N_23  and  C_24
REMARK                            x       y       z     vdW  Elec       q    Type
REMARK                         _______ _______ _______ _____ _____    ______ ____
ROOT
ATOM      1  N   UNL     1       0.396  11.990  19.569  0.00  0.00    +0.000 N 
ATOM      2  C   UNL     1       0.643  12.390  20.949  0.00  0.00    +0.000 C 
ATOM      3  C   UNL     1      -0.384  12.022  22.063  0.00  0.00    +0.000 C 
ATOM      4  C   UNL     1      -1.804  12.720  22.077  0.00  0.00    +0.000 C 
ATOM      5  C   UNL     1      -2.568  12.358  20.768  0.00  0.00    +0.000 C 
ATOM      6  C   UNL     1      -1.933  11.527  19.692  0.00  0.00    +0.000 C 
ATOM      7  C   UNL     1      -0.830  12.215  18.977  0.00  0.00    +0.000 C 
ATOM      8  O   UNL     1      -0.993  12.755  17.889  0.00  0.00    +0.000 OA
ATOM      9  C   UNL     1      -2.701  12.066  23.238  0.00  0.00    +0.000 C 
ATOM     10  N   UNL     1      -3.801  12.971  23.699  0.00  0.00    +0.000 N 
ATOM     11  C   UNL     1      -4.868  13.261  22.823  0.00  0.00    +0.000 A 
ATOM     12  C   UNL     1      -5.639  14.403  22.951  0.00  0.00    +0.000 A 
ATOM     13  C   UNL     1      -6.576  14.682  21.974  0.00  0.00    +0.000 A 
ATOM     14  N   UNL     1      -6.774  13.922  20.890  0.00  0.00    +0.000 NA
ATOM     15  C   UNL     1      -6.045  12.805  20.855  0.00  0.00    +0.000 A 
ATOM     16  N   UNL     1      -5.167  12.426  21.814  0.00  0.00    +0.000 NA
ATOM     17  C   UNL     1      -3.173  14.077  24.423  0.00  0.00    +0.000 C 
ATOM     18  C   UNL     1      -2.238  14.859  23.478  0.00  0.00    +0.000 C 
ATOM     19  N   UNL     1      -1.531  14.178  22.355  0.00  0.00    +0.000 NA
ATOM     20  C   UNL     1      -1.529  15.069  21.195  0.00  0.00    +0.000 C 
ENDROOT
BRANCH   1  22
ATOM     21  C   UNL     1       1.776  10.429  18.168  0.00  0.00    +0.000 C 
ATOM     22  C   UNL     1       1.509  11.840  18.647  0.00  0.00    +0.000 C 
ENDBRANCH   1  22
BRANCH  15  23
ATOM     23  S   UNL     1      -6.120  11.784  19.393  0.00  0.00    +0.000 S 
ATOM     24  C   UNL     1      -7.205  10.440  19.953  0.00  0.00    +0.000 C 
ENDBRANCH  15  23
TORSDOF 2
ENDMDL
MODEL 8
REMARK VINA RESULT:      -5.2     10.845     13.222
REMARK  Name = 
REMARK  5 active torsions:
REMARK  status: ('A' for Active; 'I' for Inactive)
REMARK    1  A    between atoms: C_1  and  C_2
REMARK    2  A    between atoms: C_2  and  N_3
REMARK    3  A    between atoms: C_17  and  S_18
REMARK    4  A    between atoms: S_18  and  C_19
REMARK    5  A    between atoms: N_23  and  C_24
REMARK                            x       y       z     vdW  Elec       q    Type
REMARK                         _______ _______ _______ _____ _____    ______ ____
ROOT
ATOM      1  N   UNL     1      -4.547  14.446  22.636  0.00  0.00    +0.000 N 
ATOM      2  C   UNL     1      -3.259  15.103  22.816  0.00  0.00    +0.000 C 
ATOM      3  C   UNL     1      -2.322  15.332  21.591  0.00  0.00    +0.000 C 
ATOM      4  C   UNL     1      -1.631  14.091  20.895  0.00  0.00    +0.000 C 
ATOM      5  C   UNL     1      -2.729  13.146  20.320  0.00  0.00    +0.000 C 
ATOM      6  C   UNL     1      -4.189  13.429  20.517  0.00  0.00    +0.000 C 
ATOM      7  C   UNL     1      -4.646  13.271  21.920  0.00  0.00    +0.000 C 
ATOM      8  O   UNL     1      -5.213  12.257  22.312  0.00  0.00    +0.000 OA
ATOM      9  C   UNL     1      -0.836  14.592  19.592  0.00  0.00    +0.000 C 
ATOM     10  N   UNL     1       0.261  13.658  19.188  0.00  0.00    +0.000 N 
ATOM     11  C   UNL     1      -0.069  12.381  18.687  0.00  0.00    +0.000 A 
ATOM     12  C   UNL     1       0.811  11.315  18.741  0.00  0.00    +0.000 A 
ATOM     13  C   UNL     1       0.364  10.067  18.353  0.00  0.00    +0.000 A 
ATOM     14  N   UNL     1      -0.884   9.815  17.942  0.00  0.00    +0.000 NA
ATOM     15  C   UNL     1      -1.667  10.892  17.852  0.00  0.00    +0.000 A 
ATOM     16  N   UNL     1      -1.274  12.157  18.138  0.00  0.00    +0.000 NA
ATOM     17  C   UNL     1       1.308  13.757  20.207  0.00  0.00    +0.000 C 
ATOM     18  C   UNL     1       0.750  13.318  21.576  0.00  0.00    +0.000 C 
ATOM     19  N   UNL     1      -0.685  13.527  21.927  0.00  0.00    +0.000 NA
ATOM     20  C   UNL     1      -1.159  12.361  22.672  0.00  0.00    +0.000 C 
ENDROOT
BRANCH   1  22
ATOM     21  C   UNL     1      -5.734  16.099  24.105  0.00  0.00    +0.000 C 
ATOM     22  C   UNL     1      -5.622  14.683  23.585  0.00  0.00    +0.000 C 
ENDBRANCH   1  22
BRANCH  15  23
ATOM     23  S   UNL     1      -3.391  10.663  17.451  0.00  0.00    +0.000 S 
ATOM     24  C   UNL     1      -3.348  10.748  15.638  0.00  0.00    +0.000 C 
ENDBRANCH  15  23
TORSDOF 2
ENDMDL
MODEL 9
REMARK VINA RESULT:      -5.2     11.610     14.651
REMARK  Name = 
REMARK  5 active torsions:
REMARK  status: ('A' for Active; 'I' for Inactive)
REMARK    1  A    between atoms: C_1  and  C_2
REMARK    2  A    between atoms: C_2  and  N_3
REMARK    3  A    between atoms: C_17  and  S_18
REMARK    4  A    between atoms: S_18  and  C_19
REMARK    5  A    between atoms: N_23  and  C_24
REMARK                            x       y       z     vdW  Elec       q    Type
REMARK                         _______ _______ _______ _____ _____    ______ ____
ROOT
ATOM      1  N   UNL     1       0.491  12.670  19.877  0.00  0.00    +0.000 N 
ATOM      2  C   UNL     1       0.470  13.126  21.261  0.00  0.00    +0.000 C 
ATOM      3  C   UNL     1      -0.634  12.613  22.234  0.00  0.00    +0.000 C 
ATOM      4  C   UNL     1      -2.134  13.070  22.024  0.00  0.00    +0.000 C 
ATOM      5  C   UNL     1      -2.634  12.568  20.636  0.00  0.00    +0.000 C 
ATOM      6  C   UNL     1      -1.727  11.835  19.692  0.00  0.00    +0.000 C 
ATOM      7  C   UNL     1      -0.656  12.682  19.112  0.00  0.00    +0.000 C 
ATOM      8  O   UNL     1      -0.746  13.171  17.991  0.00  0.00    +0.000 OA
ATOM      9  C   UNL     1      -3.073  12.296  23.072  0.00  0.00    +0.000 C 
ATOM     10  N   UNL     1      -4.358  13.016  23.340  0.00  0.00    +0.000 N 
ATOM     11  C   UNL     1      -5.320  13.115  22.313  0.00  0.00    +0.000 A 
ATOM     12  C   UNL     1      -6.274  14.117  22.288  0.00  0.00    +0.000 A 
ATOM     13  C   UNL     1      -7.093  14.224  21.180  0.00  0.00    +0.000 A 
ATOM     14  N   UNL     1      -7.010  13.425  20.110  0.00  0.00    +0.000 NA
ATOM     15  C   UNL     1      -6.115  12.442  20.220  0.00  0.00    +0.000 A 
ATOM     16  N   UNL     1      -5.335  12.226  21.306  0.00  0.00    +0.000 NA
ATOM     17  C   UNL     1      -4.025  14.221  24.101  0.00  0.00    +0.000 C 
ATOM     18  C   UNL     1      -3.101  15.130  23.266  0.00  0.00    +0.000 C 
ATOM     19  N   UNL     1      -2.141  14.557  22.280  0.00  0.00    +0.000 NA
ATOM     20  C   UNL     1      -2.113  15.418  21.098  0.00  0.00    +0.000 C 
ENDROOT
BRANCH   1  22
ATOM     21  C   UNL     1       2.659  13.851  19.420  0.00  0.00    +0.000 C 
ATOM     22  C   UNL     1       1.735  12.690  19.125  0.00  0.00    +0.000 C 
ENDBRANCH   1  22
BRANCH  15  23
ATOM     23  S   UNL     1      -5.814  11.400  18.802  0.00  0.00    +0.000 S 
ATOM     24  C   UNL     1      -6.875   9.974  19.178  0.00  0.00    +0.000 C 
ENDBRANCH  15  23
TORSDOF 2
ENDMDL
