MODEL 1
REMARK VINA RESULT:      -6.7      0.000      0.000
REMARK  Name = 
REMARK  7 active torsions:
REMARK  status: ('A' for Active; 'I' for Inactive)
REMARK    1  A    between atoms: C_1  and  C_2
REMARK    2  A    between atoms: C_2  and  C_3
REMARK    3  A    between atoms: C_2  and  C_4
REMARK    4  A    between atoms: C_13  and  C_14
REMARK    5  A    between atoms: C_21  and  C_22
REMARK    6  A    between atoms: C_23  and  C_24
REMARK    7  A    between atoms: C_26  and  O_27
REMARK                            x       y       z     vdW  Elec       q    Type
REMARK                         _______ _______ _______ _____ _____    ______ ____
ROOT
ATOM      1  C   UNL     1      -5.101  12.427  20.395  0.00  0.00    +0.000 A 
ATOM      2  N   UNL     1      -5.116  11.977  19.133  0.00  0.00    +0.000 NA
ATOM      3  N   UNL     1      -3.803  11.802  18.794  0.00  0.00    +0.000 N 
ATOM      4  C   UNL     1      -3.480  11.141  17.563  0.00  0.00    +0.000 A 
ATOM      5  C   UNL     1      -4.352  11.296  16.484  0.00  0.00    +0.000 A 
ATOM      6  C   UNL     1      -4.018  10.708  15.265  0.00  0.00    +0.000 A 
ATOM      7  C   UNL     1      -2.857   9.950  15.166  0.00  0.00    +0.000 A 
ATOM      8  C   UNL     1      -2.058   9.830  16.289  0.00  0.00    +0.000 A 
ATOM      9  N   UNL     1      -2.331  10.418  17.477  0.00  0.00    +0.000 NA
ATOM     10  C   UNL     1      -2.936  12.314  19.769  0.00  0.00    +0.000 A 
ATOM     11  C   UNL     1      -3.782  12.758  20.785  0.00  0.00    +0.000 A 
ENDROOT
BRANCH  10  12
ATOM     12  C   UNL     1      -1.459  12.401  19.653  0.00  0.00    +0.000 A 
ATOM     13  C   UNL     1      -0.835  13.387  18.869  0.00  0.00    +0.000 A 
ATOM     14  C   UNL     1       0.555  13.411  18.703  0.00  0.00    +0.000 A 
ATOM     15  C   UNL     1       1.341  12.490  19.378  0.00  0.00    +0.000 A 
ATOM     16  F   UNL     1       2.671  12.512  19.220  0.00  0.00    +0.000 F 
ATOM     17  C   UNL     1       0.763  11.547  20.215  0.00  0.00    +0.000 A 
ATOM     18  C   UNL     1      -0.630  11.495  20.339  0.00  0.00    +0.000 A 
ENDBRANCH  10  12
BRANCH   1  20
ATOM     19  C   UNL     1      -7.123  13.855  20.913  0.00  0.00    +0.000 C 
ATOM     20  C   UNL     1      -6.414  12.514  21.139  0.00  0.00    +0.000 C 
ATOM     21  C   UNL     1      -7.366  11.355  20.852  0.00  0.00    +0.000 C 
ENDBRANCH   1  20
BRANCH  11  22
ATOM     22  C   UNL     1      -3.337  13.450  21.949  0.00  0.00    +0.000 C 
ATOM     23  C   UNL     1      -3.016  14.756  21.920  0.00  0.00    +0.000 C 
BRANCH  23  24
ATOM     24  C   UNL     1      -2.346  15.554  23.006  0.00  0.00    +0.000 C 
ATOM     25  C   UNL     1      -1.604  14.613  23.944  0.00  0.00    +0.000 C 
ATOM     26  C   UNL     1      -1.005  15.417  25.076  0.00  0.00    +0.000 C 
ATOM     27  C   UNL     1      -2.080  16.169  25.828  0.00  0.00    +0.000 C 
ATOM     28  C   UNL     1      -3.131  16.810  24.962  0.00  0.00    +0.000 C 
ATOM     29  O   UNL     1      -3.870  17.680  25.417  0.00  0.00    +0.000 OA
ATOM     30  O   UNL     1      -3.319  16.347  23.709  0.00  0.00    +0.000 OA
BRANCH  26  31
ATOM     31  O   UNL     1       0.013  16.288  24.588  0.00  0.00    +0.000 OA
ATOM     32  H   UNL     1       0.044  17.105  25.115  0.00  0.00    +0.000 HD
ENDBRANCH  26  31
ENDBRANCH  23  24
ENDBRANCH  11  22
TORSDOF 5
ENDMDL
MODEL 2
REMARK VINA RESULT:      -6.6      0.544      1.021
REMARK  Name = 
REMARK  7 active torsions:
REMARK  status: ('A' for Active; 'I' for Inactive)
REMARK    1  A    between atoms: C_1  and  C_2
REMARK    2  A    between atoms: C_2  and  C_3
REMARK    3  A    between atoms: C_2  and  C_4
REMARK    4  A    between atoms: C_13  and  C_14
REMARK    5  A    between atoms: C_21  and  C_22
REMARK    6  A    between atoms: C_23  and  C_24
REMARK    7  A    between atoms: C_26  and  O_27
REMARK                            x       y       z     vdW  Elec       q    Type
REMARK                         _______ _______ _______ _____ _____    ______ ____
ROOT
ATOM      1  C   UNL     1      -4.918  12.658  20.852  0.00  0.00    +0.000 A 
ATOM      2  N   UNL     1      -4.977  12.179  19.602  0.00  0.00    +0.000 NA
ATOM      3  N   UNL     1      -3.677  11.997  19.220  0.00  0.00    +0.000 N 
ATOM      4  C   UNL     1      -3.397  11.307  17.994  0.00  0.00    +0.000 A 
ATOM      5  C   UNL     1      -4.307  11.436  16.944  0.00  0.00    +0.000 A 
ATOM      6  C   UNL     1      -4.016  10.820  15.727  0.00  0.00    +0.000 A 
ATOM      7  C   UNL     1      -2.859  10.061  15.605  0.00  0.00    +0.000 A 
ATOM      8  C   UNL     1      -2.020   9.967  16.701  0.00  0.00    +0.000 A 
ATOM      9  N   UNL     1      -2.251  10.583  17.884  0.00  0.00    +0.000 NA
ATOM     10  C   UNL     1      -2.776  12.531  20.151  0.00  0.00    +0.000 A 
ATOM     11  C   UNL     1      -3.586  12.999  21.186  0.00  0.00    +0.000 A 
ENDROOT
BRANCH  10  12
ATOM     12  C   UNL     1      -1.305  12.617  19.981  0.00  0.00    +0.000 A 
ATOM     13  C   UNL     1      -0.430  11.738  20.641  0.00  0.00    +0.000 A 
ATOM     14  C   UNL     1       0.959  11.879  20.536  0.00  0.00    +0.000 A 
ATOM     15  C   UNL     1       1.487  12.859  19.710  0.00  0.00    +0.000 A 
ATOM     16  F   UNL     1       2.815  12.995  19.608  0.00  0.00    +0.000 F 
ATOM     17  C   UNL     1       0.652  13.700  18.989  0.00  0.00    +0.000 A 
ATOM     18  C   UNL     1      -0.735  13.588  19.137  0.00  0.00    +0.000 A 
ENDBRANCH  10  12
BRANCH   1  20
ATOM     19  C   UNL     1      -6.740  14.198  21.691  0.00  0.00    +0.000 C 
ATOM     20  C   UNL     1      -6.204  12.762  21.640  0.00  0.00    +0.000 C 
ATOM     21  C   UNL     1      -7.297  11.805  21.170  0.00  0.00    +0.000 C 
ENDBRANCH   1  20
BRANCH  11  22
ATOM     22  C   UNL     1      -3.101  13.718  22.317  0.00  0.00    +0.000 C 
ATOM     23  C   UNL     1      -2.743  15.012  22.236  0.00  0.00    +0.000 C 
BRANCH  23  24
ATOM     24  C   UNL     1      -2.031  15.828  23.282  0.00  0.00    +0.000 C 
ATOM     25  C   UNL     1      -1.474  14.904  24.354  0.00  0.00    +0.000 C 
ATOM     26  C   UNL     1      -0.834  15.740  25.441  0.00  0.00    +0.000 C 
ATOM     27  C   UNL     1      -1.837  16.699  26.041  0.00  0.00    +0.000 C 
ATOM     28  C   UNL     1      -2.744  17.374  25.048  0.00  0.00    +0.000 C 
ATOM     29  O   UNL     1      -3.382  18.375  25.366  0.00  0.00    +0.000 OA
ATOM     30  O   UNL     1      -2.925  16.809  23.836  0.00  0.00    +0.000 OA
BRANCH  26  31
ATOM     31  O   UNL     1       0.317  16.417  24.939  0.00  0.00    +0.000 OA
ATOM     32  H   UNL     1       0.398  16.285  23.978  0.00  0.00    +0.000 HD
ENDBRANCH  26  31
ENDBRANCH  23  24
ENDBRANCH  11  22
TORSDOF 5
ENDMDL
MODEL 3
REMARK VINA RESULT:      -6.4      1.398      2.017
REMARK  Name = 
REMARK  7 active torsions:
REMARK  status: ('A' for Active; 'I' for Inactive)
REMARK    1  A    between atoms: C_1  and  C_2
REMARK    2  A    between atoms: C_2  and  C_3
REMARK    3  A    between atoms: C_2  and  C_4
REMARK    4  A    between atoms: C_13  and  C_14
REMARK    5  A    between atoms: C_21  and  C_22
REMARK    6  A    between atoms: C_23  and  C_24
REMARK    7  A    between atoms: C_26  and  O_27
REMARK                            x       y       z     vdW  Elec       q    Type
REMARK                         _______ _______ _______ _____ _____    ______ ____
ROOT
ATOM      1  C   UNL     1      -4.187  13.219  21.259  0.00  0.00    +0.000 A 
ATOM      2  N   UNL     1      -4.404  12.540  20.124  0.00  0.00    +0.000 NA
ATOM      3  N   UNL     1      -3.167  12.335  19.580  0.00  0.00    +0.000 N 
ATOM      4  C   UNL     1      -3.035  11.462  18.450  0.00  0.00    +0.000 A 
ATOM      5  C   UNL     1      -4.095  11.391  17.546  0.00  0.00    +0.000 A 
ATOM      6  C   UNL     1      -3.955  10.592  16.412  0.00  0.00    +0.000 A 
ATOM      7  C   UNL     1      -2.789   9.857  16.234  0.00  0.00    +0.000 A 
ATOM      8  C   UNL     1      -1.794   9.968  17.188  0.00  0.00    +0.000 A 
ATOM      9  N   UNL     1      -1.881  10.762  18.281  0.00  0.00    +0.000 NA
ATOM     10  C   UNL     1      -2.168  13.040  20.265  0.00  0.00    +0.000 A 
ATOM     11  C   UNL     1      -2.840  13.648  21.326  0.00  0.00    +0.000 A 
ENDROOT
BRANCH  10  12
ATOM     12  C   UNL     1      -0.745  13.139  19.859  0.00  0.00    +0.000 A 
ATOM     13  C   UNL     1      -0.320  14.027  18.856  0.00  0.00    +0.000 A 
ATOM     14  C   UNL     1       1.011  14.055  18.424  0.00  0.00    +0.000 A 
ATOM     15  C   UNL     1       1.948  13.242  19.043  0.00  0.00    +0.000 A 
ATOM     16  F   UNL     1       3.222  13.267  18.631  0.00  0.00    +0.000 F 
ATOM     17  C   UNL     1       1.577  12.403  20.083  0.00  0.00    +0.000 A 
ATOM     18  C   UNL     1       0.236  12.342  20.477  0.00  0.00    +0.000 A 
ENDBRANCH  10  12
BRANCH   1  20
ATOM     19  C   UNL     1      -6.636  12.766  21.694  0.00  0.00    +0.000 C 
ATOM     20  C   UNL     1      -5.346  13.414  22.209  0.00  0.00    +0.000 C 
ATOM     21  C   UNL     1      -5.057  12.958  23.638  0.00  0.00    +0.000 C 
ENDBRANCH   1  20
BRANCH  11  22
ATOM     22  C   UNL     1      -2.232  14.556  22.241  0.00  0.00    +0.000 C 
ATOM     23  C   UNL     1      -1.440  14.133  23.242  0.00  0.00    +0.000 C 
BRANCH  23  24
ATOM     24  C   UNL     1      -0.907  14.947  24.389  0.00  0.00    +0.000 C 
ATOM     25  C   UNL     1      -2.060  15.634  25.105  0.00  0.00    +0.000 C 
ATOM     26  C   UNL     1      -1.506  16.515  26.202  0.00  0.00    +0.000 C 
ATOM     27  C   UNL     1      -0.553  17.542  25.636  0.00  0.00    +0.000 C 
ATOM     28  C   UNL     1       0.386  17.024  24.580  0.00  0.00    +0.000 C 
ATOM     29  O   UNL     1       1.386  17.665  24.265  0.00  0.00    +0.000 OA
ATOM     30  O   UNL     1       0.063  15.897  23.913  0.00  0.00    +0.000 OA
BRANCH  26  31
ATOM     31  O   UNL     1      -0.895  15.722  27.219  0.00  0.00    +0.000 OA
ATOM     32  H   UNL     1      -0.304  16.268  27.766  0.00  0.00    +0.000 HD
ENDBRANCH  26  31
ENDBRANCH  23  24
ENDBRANCH  11  22
TORSDOF 5
ENDMDL
MODEL 4
REMARK VINA RESULT:      -6.4      0.990      1.875
REMARK  Name = 
REMARK  7 active torsions:
REMARK  status: ('A' for Active; 'I' for Inactive)
REMARK    1  A    between atoms: C_1  and  C_2
REMARK    2  A    between atoms: C_2  and  C_3
REMARK    3  A    between atoms: C_2  and  C_4
REMARK    4  A    between atoms: C_13  and  C_14
REMARK    5  A    between atoms: C_21  and  C_22
REMARK    6  A    between atoms: C_23  and  C_24
REMARK    7  A    between atoms: C_26  and  O_27
REMARK                            x       y       z     vdW  Elec       q    Type
REMARK                         _______ _______ _______ _____ _____    ______ ____
ROOT
ATOM      1  C   UNL     1      -5.562  12.639  20.509  0.00  0.00    +0.000 A 
ATOM      2  N   UNL     1      -5.394  12.174  19.264  0.00  0.00    +0.000 NA
ATOM      3  N   UNL     1      -4.050  11.969  19.129  0.00  0.00    +0.000 N 
ATOM      4  C   UNL     1      -3.558  11.287  17.968  0.00  0.00    +0.000 A 
ATOM      5  C   UNL     1      -4.253  11.445  16.768  0.00  0.00    +0.000 A 
ATOM      6  C   UNL     1      -3.750  10.835  15.619  0.00  0.00    +0.000 A 
ATOM      7  C   UNL     1      -2.604  10.054  15.705  0.00  0.00    +0.000 A 
ATOM      8  C   UNL     1      -1.988   9.932  16.937  0.00  0.00    +0.000 A 
ATOM      9  N   UNL     1      -2.425  10.540  18.064  0.00  0.00    +0.000 NA
ATOM     10  C   UNL     1      -3.330  12.476  20.220  0.00  0.00    +0.000 A 
ATOM     11  C   UNL     1      -4.310  12.949  21.091  0.00  0.00    +0.000 A 
ENDROOT
BRANCH  10  12
ATOM     12  C   UNL     1      -1.851  12.533  20.329  0.00  0.00    +0.000 A 
ATOM     13  C   UNL     1      -1.128  11.612  21.105  0.00  0.00    +0.000 A 
ATOM     14  C   UNL     1       0.258  11.724  21.265  0.00  0.00    +0.000 A 
ATOM     15  C   UNL     1       0.946  12.720  20.590  0.00  0.00    +0.000 A 
ATOM     16  F   UNL     1       2.272  12.828  20.742  0.00  0.00    +0.000 F 
ATOM     17  C   UNL     1       0.273  13.604  19.759  0.00  0.00    +0.000 A 
ATOM     18  C   UNL     1      -1.118  13.519  19.642  0.00  0.00    +0.000 A 
ENDBRANCH  10  12
BRANCH   1  20
ATOM     19  C   UNL     1      -7.820  13.742  20.227  0.00  0.00    +0.000 C 
ATOM     20  C   UNL     1      -6.970  12.762  21.044  0.00  0.00    +0.000 C 
ATOM     21  C   UNL     1      -7.695  11.425  21.190  0.00  0.00    +0.000 C 
ENDBRANCH   1  20
BRANCH  11  22
ATOM     22  C   UNL     1      -4.033  13.647  22.303  0.00  0.00    +0.000 C 
ATOM     23  C   UNL     1      -3.840  14.978  22.328  0.00  0.00    +0.000 C 
BRANCH  23  24
ATOM     24  C   UNL     1      -3.343  15.805  23.483  0.00  0.00    +0.000 C 
ATOM     25  C   UNL     1      -3.457  17.282  23.137  0.00  0.00    +0.000 C 
ATOM     26  C   UNL     1      -2.878  18.100  24.270  0.00  0.00    +0.000 C 
ATOM     27  C   UNL     1      -1.434  17.728  24.517  0.00  0.00    +0.000 C 
ATOM     28  C   UNL     1      -1.140  16.253  24.466  0.00  0.00    +0.000 C 
ATOM     29  O   UNL     1      -0.095  15.808  24.937  0.00  0.00    +0.000 OA
ATOM     30  O   UNL     1      -1.990  15.438  23.808  0.00  0.00    +0.000 OA
BRANCH  26  31
ATOM     31  O   UNL     1      -3.674  17.961  25.445  0.00  0.00    +0.000 OA
ATOM     32  H   UNL     1      -3.807  18.826  25.870  0.00  0.00    +0.000 HD
ENDBRANCH  26  31
ENDBRANCH  23  24
ENDBRANCH  11  22
TORSDOF 5
ENDMDL
MODEL 5
REMARK VINA RESULT:      -6.3      0.631      1.214
REMARK  Name = 
REMARK  7 active torsions:
REMARK  status: ('A' for Active; 'I' for Inactive)
REMARK    1  A    between atoms: C_1  and  C_2
REMARK    2  A    between atoms: C_2  and  C_3
REMARK    3  A    between atoms: C_2  and  C_4
REMARK    4  A    between atoms: C_13  and  C_14
REMARK    5  A    between atoms: C_21  and  C_22
REMARK    6  A    between atoms: C_23  and  C_24
REMARK    7  A    between atoms: C_26  and  O_27
REMARK                            x       y       z     vdW  Elec       q    Type
REMARK                         _______ _______ _______ _____ _____    ______ ____
ROOT
ATOM      1  C   UNL     1      -5.526  12.679  20.023  0.00  0.00    +0.000 A 
ATOM      2  N   UNL     1      -5.383  12.167  18.793  0.00  0.00    +0.000 NA
ATOM      3  N   UNL     1      -4.050  11.887  18.669  0.00  0.00    +0.000 N 
ATOM      4  C   UNL     1      -3.594  11.144  17.531  0.00  0.00    +0.000 A 
ATOM      5  C   UNL     1      -4.279  11.300  16.325  0.00  0.00    +0.000 A 
ATOM      6  C   UNL     1      -3.808  10.629  15.196  0.00  0.00    +0.000 A 
ATOM      7  C   UNL     1      -2.705   9.792  15.310  0.00  0.00    +0.000 A 
ATOM      8  C   UNL     1      -2.097   9.676  16.547  0.00  0.00    +0.000 A 
ATOM      9  N   UNL     1      -2.502  10.342  17.653  0.00  0.00    +0.000 NA
ATOM     10  C   UNL     1      -3.305  12.389  19.745  0.00  0.00    +0.000 A 
ATOM     11  C   UNL     1      -4.260  12.941  20.598  0.00  0.00    +0.000 A 
ENDROOT
BRANCH  10  12
ATOM     12  C   UNL     1      -1.826  12.372  19.855  0.00  0.00    +0.000 A 
ATOM     13  C   UNL     1      -1.157  11.486  20.717  0.00  0.00    +0.000 A 
ATOM     14  C   UNL     1       0.233  11.534  20.873  0.00  0.00    +0.000 A 
ATOM     15  C   UNL     1       0.977  12.423  20.112  0.00  0.00    +0.000 A 
ATOM     16  F   UNL     1       2.307  12.469  20.261  0.00  0.00    +0.000 F 
ATOM     17  C   UNL     1       0.356  13.264  19.201  0.00  0.00    +0.000 A 
ATOM     18  C   UNL     1      -1.038  13.247  19.085  0.00  0.00    +0.000 A 
ENDBRANCH  10  12
BRANCH   1  20
ATOM     19  C   UNL     1      -7.144  12.220  21.912  0.00  0.00    +0.000 C 
ATOM     20  C   UNL     1      -6.927  12.892  20.551  0.00  0.00    +0.000 C 
ATOM     21  C   UNL     1      -7.349  14.359  20.609  0.00  0.00    +0.000 C 
ENDBRANCH   1  20
BRANCH  11  22
ATOM     22  C   UNL     1      -3.948  13.661  21.788  0.00  0.00    +0.000 C 
ATOM     23  C   UNL     1      -3.457  14.912  21.753  0.00  0.00    +0.000 C 
BRANCH  23  24
ATOM     24  C   UNL     1      -2.896  15.704  22.904  0.00  0.00    +0.000 C 
ATOM     25  C   UNL     1      -1.971  14.820  23.726  0.00  0.00    +0.000 C 
ATOM     26  C   UNL     1      -1.480  15.601  24.925  0.00  0.00    +0.000 C 
ATOM     27  C   UNL     1      -2.641  16.076  25.769  0.00  0.00    +0.000 C 
ATOM     28  C   UNL     1      -3.816  16.605  24.992  0.00  0.00    +0.000 C 
ATOM     29  O   UNL     1      -4.677  17.284  25.548  0.00  0.00    +0.000 OA
ATOM     30  O   UNL     1      -3.965  16.242  23.701  0.00  0.00    +0.000 OA
BRANCH  26  31
ATOM     31  O   UNL     1      -0.644  16.680  24.511  0.00  0.00    +0.000 OA
ATOM     32  H   UNL     1      -0.992  17.088  23.699  0.00  0.00    +0.000 HD
ENDBRANCH  26  31
ENDBRANCH  23  24
ENDBRANCH  11  22
TORSDOF 5
ENDMDL
MODEL 6
REMARK VINA RESULT:      -6.3      3.258      5.444
REMARK  Name = 
REMARK  7 active torsions:
REMARK  status: ('A' for Active; 'I' for Inactive)
REMARK    1  A    between atoms: C_1  and  C_2
REMARK    2  A    between atoms: C_2  and  C_3
REMARK    3  A    between atoms: C_2  and  C_4
REMARK    4  A    between atoms: C_13  and  C_14
REMARK    5  A    between atoms: C_21  and  C_22
REMARK    6  A    between atoms: C_23  and  C_24
REMARK    7  A    between atoms: C_26  and  O_27
REMARK                            x       y       z     vdW  Elec       q    Type
REMARK                         _______ _______ _______ _____ _____    ______ ____
ROOT
ATOM      1  C   UNL     1      -0.925  12.321  21.495  0.00  0.00    +0.000 A 
ATOM      2  N   UNL     1      -0.067  11.303  21.343  0.00  0.00    +0.000 NA
ATOM      3  N   UNL     1      -0.321  10.797  20.099  0.00  0.00    +0.000 N 
ATOM      4  C   UNL     1       0.566   9.812  19.550  0.00  0.00    +0.000 A 
ATOM      5  C   UNL     1       1.195   8.930  20.429  0.00  0.00    +0.000 A 
ATOM      6  C   UNL     1       2.013   7.930  19.902  0.00  0.00    +0.000 A 
ATOM      7  C   UNL     1       2.215   7.866  18.528  0.00  0.00    +0.000 A 
ATOM      8  C   UNL     1       1.570   8.792  17.729  0.00  0.00    +0.000 A 
ATOM      9  N   UNL     1       0.740   9.751  18.202  0.00  0.00    +0.000 NA
ATOM     10  C   UNL     1      -1.464  11.366  19.523  0.00  0.00    +0.000 A 
ATOM     11  C   UNL     1      -1.879  12.322  20.450  0.00  0.00    +0.000 A 
ENDROOT
BRANCH  10  12
ATOM     12  C   UNL     1      -2.087  10.949  18.243  0.00  0.00    +0.000 A 
ATOM     13  C   UNL     1      -1.945  11.706  17.067  0.00  0.00    +0.000 A 
ATOM     14  C   UNL     1      -2.604  11.346  15.886  0.00  0.00    +0.000 A 
ATOM     15  C   UNL     1      -3.355  10.181  15.849  0.00  0.00    +0.000 A 
ATOM     16  F   UNL     1      -3.984   9.835  14.719  0.00  0.00    +0.000 F 
ATOM     17  C   UNL     1      -3.459   9.372  16.971  0.00  0.00    +0.000 A 
ATOM     18  C   UNL     1      -2.841   9.763  18.164  0.00  0.00    +0.000 A 
ENDBRANCH  10  12
BRANCH   1  20
ATOM     19  C   UNL     1      -0.529  14.692  22.280  0.00  0.00    +0.000 C 
ATOM     20  C   UNL     1      -0.751  13.231  22.690  0.00  0.00    +0.000 C 
ATOM     21  C   UNL     1      -1.881  13.132  23.712  0.00  0.00    +0.000 C 
ENDBRANCH   1  20
BRANCH  11  22
ATOM     22  C   UNL     1      -3.074  13.088  20.327  0.00  0.00    +0.000 C 
ATOM     23  C   UNL     1      -4.143  12.868  21.114  0.00  0.00    +0.000 C 
BRANCH  23  24
ATOM     24  C   UNL     1      -5.522  13.450  20.961  0.00  0.00    +0.000 C 
ATOM     25  C   UNL     1      -5.422  14.843  20.358  0.00  0.00    +0.000 C 
ATOM     26  C   UNL     1      -6.805  15.451  20.287  0.00  0.00    +0.000 C 
ATOM     27  C   UNL     1      -7.433  15.517  21.661  0.00  0.00    +0.000 C 
ATOM     28  C   UNL     1      -7.222  14.297  22.516  0.00  0.00    +0.000 C 
ATOM     29  O   UNL     1      -7.917  14.104  23.511  0.00  0.00    +0.000 OA
ATOM     30  O   UNL     1      -6.194  13.469  22.233  0.00  0.00    +0.000 OA
BRANCH  26  31
ATOM     31  O   UNL     1      -7.620  14.734  19.361  0.00  0.00    +0.000 OA
ATOM     32  H   UNL     1      -8.562  14.910  19.529  0.00  0.00    +0.000 HD
ENDBRANCH  26  31
ENDBRANCH  23  24
ENDBRANCH  11  22
TORSDOF 5
ENDMDL
MODEL 7
REMARK VINA RESULT:      -6.3      1.064      1.803
REMARK  Name = 
REMARK  7 active torsions:
REMARK  status: ('A' for Active; 'I' for Inactive)
REMARK    1  A    between atoms: C_1  and  C_2
REMARK    2  A    between atoms: C_2  and  C_3
REMARK    3  A    between atoms: C_2  and  C_4
REMARK    4  A    between atoms: C_13  and  C_14
REMARK    5  A    between atoms: C_21  and  C_22
REMARK    6  A    between atoms: C_23  and  C_24
REMARK    7  A    between atoms: C_26  and  O_27
REMARK                            x       y       z     vdW  Elec       q    Type
REMARK                         _______ _______ _______ _____ _____    ______ ____
ROOT
ATOM      1  C   UNL     1      -5.822  12.553  20.313  0.00  0.00    +0.000 A 
ATOM      2  N   UNL     1      -5.559  12.093  19.083  0.00  0.00    +0.000 NA
ATOM      3  N   UNL     1      -4.204  11.924  19.040  0.00  0.00    +0.000 N 
ATOM      4  C   UNL     1      -3.617  11.254  17.915  0.00  0.00    +0.000 A 
ATOM      5  C   UNL     1      -4.234  11.394  16.671  0.00  0.00    +0.000 A 
ATOM      6  C   UNL     1      -3.640  10.798  15.559  0.00  0.00    +0.000 A 
ATOM      7  C   UNL     1      -2.482  10.047  15.723  0.00  0.00    +0.000 A 
ATOM      8  C   UNL     1      -1.946   9.941  16.994  0.00  0.00    +0.000 A 
ATOM      9  N   UNL     1      -2.474  10.537  18.088  0.00  0.00    +0.000 NA
ATOM     10  C   UNL     1      -3.572  12.448  20.175  0.00  0.00    +0.000 A 
ATOM     11  C   UNL     1      -4.621  12.896  20.978  0.00  0.00    +0.000 A 
ENDROOT
BRANCH  10  12
ATOM     12  C   UNL     1      -2.106  12.545  20.383  0.00  0.00    +0.000 A 
ATOM     13  C   UNL     1      -1.319  13.478  19.688  0.00  0.00    +0.000 A 
ATOM     14  C   UNL     1       0.074  13.506  19.831  0.00  0.00    +0.000 A 
ATOM     15  C   UNL     1       0.686  12.646  20.729  0.00  0.00    +0.000 A 
ATOM     16  F   UNL     1       2.018  12.672  20.868  0.00  0.00    +0.000 F 
ATOM     17  C   UNL     1      -0.067  11.759  21.483  0.00  0.00    +0.000 A 
ATOM     18  C   UNL     1      -1.453  11.700  21.299  0.00  0.00    +0.000 A 
ENDBRANCH  10  12
BRANCH   1  20
ATOM     19  C   UNL     1      -7.608  11.604  21.831  0.00  0.00    +0.000 C 
ATOM     20  C   UNL     1      -7.266  12.639  20.753  0.00  0.00    +0.000 C 
ATOM     21  C   UNL     1      -7.694  14.034  21.202  0.00  0.00    +0.000 C 
ENDBRANCH   1  20
BRANCH  11  22
ATOM     22  C   UNL     1      -4.443  13.601  22.204  0.00  0.00    +0.000 C 
ATOM     23  C   UNL     1      -4.013  14.874  22.236  0.00  0.00    +0.000 C 
BRANCH  23  24
ATOM     24  C   UNL     1      -3.589  15.663  23.446  0.00  0.00    +0.000 C 
ATOM     25  C   UNL     1      -3.482  17.136  23.080  0.00  0.00    +0.000 C 
ATOM     26  C   UNL     1      -2.975  17.906  24.279  0.00  0.00    +0.000 C 
ATOM     27  C   UNL     1      -1.633  17.377  24.730  0.00  0.00    +0.000 C 
ATOM     28  C   UNL     1      -1.508  15.877  24.727  0.00  0.00    +0.000 C 
ATOM     29  O   UNL     1      -0.598  15.326  25.342  0.00  0.00    +0.000 OA
ATOM     30  O   UNL     1      -2.347  15.151  23.960  0.00  0.00    +0.000 OA
BRANCH  26  31
ATOM     31  O   UNL     1      -3.939  17.884  25.331  0.00  0.00    +0.000 OA
ATOM     32  H   UNL     1      -4.036  16.983  25.685  0.00  0.00    +0.000 HD
ENDBRANCH  26  31
ENDBRANCH  23  24
ENDBRANCH  11  22
TORSDOF 5
ENDMDL
MODEL 8
REMARK VINA RESULT:      -6.3      1.295      2.120
REMARK  Name = 
REMARK  7 active torsions:
REMARK  status: ('A' for Active; 'I' for Inactive)
REMARK    1  A    between atoms: C_1  and  C_2
REMARK    2  A    between atoms: C_2  and  C_3
REMARK    3  A    between atoms: C_2  and  C_4
REMARK    4  A    between atoms: C_13  and  C_14
REMARK    5  A    between atoms: C_21  and  C_22
REMARK    6  A    between atoms: C_23  and  C_24
REMARK    7  A    between atoms: C_26  and  O_27
REMARK                            x       y       z     vdW  Elec       q    Type
REMARK                         _______ _______ _______ _____ _____    ______ ____
ROOT
ATOM      1  C   UNL     1      -5.878  12.397  20.180  0.00  0.00    +0.000 A 
ATOM      2  N   UNL     1      -5.621  11.973  18.936  0.00  0.00    +0.000 NA
ATOM      3  N   UNL     1      -4.267  11.795  18.884  0.00  0.00    +0.000 N 
ATOM      4  C   UNL     1      -3.688  11.156  17.738  0.00  0.00    +0.000 A 
ATOM      5  C   UNL     1      -4.306  11.338  16.500  0.00  0.00    +0.000 A 
ATOM      6  C   UNL     1      -3.718  10.772  15.369  0.00  0.00    +0.000 A 
ATOM      7  C   UNL     1      -2.566  10.008  15.508  0.00  0.00    +0.000 A 
ATOM      8  C   UNL     1      -2.029   9.859  16.774  0.00  0.00    +0.000 A 
ATOM      9  N   UNL     1      -2.550  10.425  17.887  0.00  0.00    +0.000 NA
ATOM     10  C   UNL     1      -3.629  12.280  20.034  0.00  0.00    +0.000 A 
ATOM     11  C   UNL     1      -4.673  12.711  20.852  0.00  0.00    +0.000 A 
ENDROOT
BRANCH  10  12
ATOM     12  C   UNL     1      -2.162  12.358  20.241  0.00  0.00    +0.000 A 
ATOM     13  C   UNL     1      -1.485  11.467  21.091  0.00  0.00    +0.000 A 
ATOM     14  C   UNL     1      -0.114  11.601  21.342  0.00  0.00    +0.000 A 
ATOM     15  C   UNL     1       0.608  12.586  20.687  0.00  0.00    +0.000 A 
ATOM     16  F   UNL     1       1.920  12.715  20.926  0.00  0.00    +0.000 F 
ATOM     17  C   UNL     1      -0.015  13.439  19.788  0.00  0.00    +0.000 A 
ATOM     18  C   UNL     1      -1.395  13.333  19.579  0.00  0.00    +0.000 A 
ENDBRANCH  10  12
BRANCH   1  20
ATOM     19  C   UNL     1      -7.533  11.893  22.025  0.00  0.00    +0.000 C 
ATOM     20  C   UNL     1      -7.321  12.480  20.625  0.00  0.00    +0.000 C 
ATOM     21  C   UNL     1      -7.913  13.886  20.543  0.00  0.00    +0.000 C 
ENDBRANCH   1  20
BRANCH  11  22
ATOM     22  C   UNL     1      -4.488  13.376  22.099  0.00  0.00    +0.000 C 
ATOM     23  C   UNL     1      -5.051  14.569  22.358  0.00  0.00    +0.000 C 
BRANCH  23  24
ATOM     24  C   UNL     1      -4.779  15.470  23.533  0.00  0.00    +0.000 C 
ATOM     25  C   UNL     1      -4.428  16.863  23.034  0.00  0.00    +0.000 C 
ATOM     26  C   UNL     1      -4.076  17.736  24.218  0.00  0.00    +0.000 C 
ATOM     27  C   UNL     1      -2.919  17.148  24.994  0.00  0.00    +0.000 C 
ATOM     28  C   UNL     1      -2.975  15.657  25.185  0.00  0.00    +0.000 C 
ATOM     29  O   UNL     1      -2.274  15.110  26.034  0.00  0.00    +0.000 OA
ATOM     30  O   UNL     1      -3.730  14.917  24.347  0.00  0.00    +0.000 OA
BRANCH  26  31
ATOM     31  O   UNL     1      -5.221  17.946  25.044  0.00  0.00    +0.000 OA
ATOM     32  H   UNL     1      -6.008  18.114  24.498  0.00  0.00    +0.000 HD
ENDBRANCH  26  31
ENDBRANCH  23  24
ENDBRANCH  11  22
TORSDOF 5
ENDMDL
MODEL 9
REMARK VINA RESULT:      -6.3      3.363      6.098
REMARK  Name = 
REMARK  7 active torsions:
REMARK  status: ('A' for Active; 'I' for Inactive)
REMARK    1  A    between atoms: C_1  and  C_2
REMARK    2  A    between atoms: C_2  and  C_3
REMARK    3  A    between atoms: C_2  and  C_4
REMARK    4  A    between atoms: C_13  and  C_14
REMARK    5  A    between atoms: C_21  and  C_22
REMARK    6  A    between atoms: C_23  and  C_24
REMARK    7  A    between atoms: C_26  and  O_27
REMARK                            x       y       z     vdW  Elec       q    Type
REMARK                         _______ _______ _______ _____ _____    ______ ____
ROOT
ATOM      1  C   UNL     1      -1.068  14.820  23.226  0.00  0.00    +0.000 A 
ATOM      2  N   UNL     1       0.200  15.175  22.977  0.00  0.00    +0.000 NA
ATOM      3  N   UNL     1       0.588  14.416  21.909  0.00  0.00    +0.000 N 
ATOM      4  C   UNL     1       1.839  14.697  21.268  0.00  0.00    +0.000 A 
ATOM      5  C   UNL     1       2.884  15.189  22.051  0.00  0.00    +0.000 A 
ATOM      6  C   UNL     1       4.124  15.409  21.451  0.00  0.00    +0.000 A 
ATOM      7  C   UNL     1       4.275  15.177  20.089  0.00  0.00    +0.000 A 
ATOM      8  C   UNL     1       3.183  14.709  19.381  0.00  0.00    +0.000 A 
ATOM      9  N   UNL     1       1.977  14.448  19.938  0.00  0.00    +0.000 NA
ATOM     10  C   UNL     1      -0.364  13.440  21.585  0.00  0.00    +0.000 A 
ATOM     11  C   UNL     1      -1.416  13.676  22.470  0.00  0.00    +0.000 A 
ENDROOT
BRANCH  10  12
ATOM     12  C   UNL     1      -0.198  12.374  20.567  0.00  0.00    +0.000 A 
ATOM     13  C   UNL     1      -0.805  12.455  19.302  0.00  0.00    +0.000 A 
ATOM     14  C   UNL     1      -0.708  11.407  18.379  0.00  0.00    +0.000 A 
ATOM     15  C   UNL     1       0.061  10.294  18.686  0.00  0.00    +0.000 A 
ATOM     16  F   UNL     1       0.155   9.291  17.804  0.00  0.00    +0.000 F 
ATOM     17  C   UNL     1       0.731  10.212  19.897  0.00  0.00    +0.000 A 
ATOM     18  C   UNL     1       0.590  11.239  20.837  0.00  0.00    +0.000 A 
ENDBRANCH  10  12
BRANCH   1  20
ATOM     19  C   UNL     1      -3.001  16.415  23.557  0.00  0.00    +0.000 C 
ATOM     20  C   UNL     1      -1.859  15.638  24.221  0.00  0.00    +0.000 C 
ATOM     21  C   UNL     1      -2.384  14.832  25.407  0.00  0.00    +0.000 C 
ENDBRANCH   1  20
BRANCH  11  22
ATOM     22  C   UNL     1      -2.574  12.851  22.572  0.00  0.00    +0.000 C 
ATOM     23  C   UNL     1      -3.681  13.090  21.847  0.00  0.00    +0.000 C 
BRANCH  23  24
ATOM     24  C   UNL     1      -5.029  12.438  22.000  0.00  0.00    +0.000 C 
ATOM     25  C   UNL     1      -5.848  12.662  20.738  0.00  0.00    +0.000 C 
ATOM     26  C   UNL     1      -7.229  12.076  20.936  0.00  0.00    +0.000 C 
ATOM     27  C   UNL     1      -7.915  12.706  22.126  0.00  0.00    +0.000 C 
ATOM     28  C   UNL     1      -7.036  12.911  23.331  0.00  0.00    +0.000 C 
ATOM     29  O   UNL     1      -7.530  13.128  24.435  0.00  0.00    +0.000 OA
ATOM     30  O   UNL     1      -5.697  12.952  23.166  0.00  0.00    +0.000 OA
BRANCH  26  31
ATOM     31  O   UNL     1      -7.158  10.656  21.050  0.00  0.00    +0.000 OA
ATOM     32  H   UNL     1      -8.051  10.271  21.070  0.00  0.00    +0.000 HD
ENDBRANCH  26  31
ENDBRANCH  23  24
ENDBRANCH  11  22
TORSDOF 5
ENDMDL
