MODEL 1
REMARK VINA RESULT:      -8.3      0.000      0.000
REMARK  Name = 
REMARK  10 active torsions:
REMARK  status: ('A' for Active; 'I' for Inactive)
REMARK    1  A    between atoms: C_1  and  C_2
REMARK    2  A    between atoms: C_5  and  C_6
REMARK    3  A    between atoms: C_6  and  N_7
REMARK    4  A    between atoms: C_14  and  C_15
REMARK    5  A    between atoms: N_17  and  C_18
REMARK    6  A    between atoms: C_18  and  C_19
REMARK    7  A    between atoms: C_22  and  O_23
REMARK    8  A    between atoms: O_23  and  C_24
REMARK    9  A    between atoms: C_24  and  C_25
REMARK   10  A    between atoms: C_24  and  C_26
REMARK                            x       y       z     vdW  Elec       q    Type
REMARK                         _______ _______ _______ _____ _____    ______ ____
ROOT
ATOM      1  N   UNL     1       2.335   4.901  19.784  0.00  0.00    +0.000 N 
ATOM      2  C   UNL     1       1.233   3.903  19.545  0.00  0.00    +0.000 C 
ATOM      3  C   UNL     1       1.193   2.998  18.347  0.00  0.00    +0.000 C 
ATOM      4  S   UNL     1       2.772   2.228  18.128  0.00  0.00    +0.000 S 
ATOM      5  C   UNL     1       3.702   3.759  18.056  0.00  0.00    +0.000 A 
ATOM      6  C   UNL     1       4.732   3.649  17.091  0.00  0.00    +0.000 A 
ATOM      7  C   UNL     1       5.670   4.644  16.900  0.00  0.00    +0.000 A 
ATOM      8  C   UNL     1       5.635   5.815  17.661  0.00  0.00    +0.000 A 
ATOM      9  C   UNL     1       4.536   5.955  18.665  0.00  0.00    +0.000 A 
ATOM     10  C   UNL     1       3.475   4.913  18.883  0.00  0.00    +0.000 A 
ENDROOT
BRANCH   8  11
ATOM     11  C   UNL     1       6.770   6.756  17.132  0.00  0.00    +0.000 C 
ATOM     12  O   UNL     1       7.532   6.296  16.261  0.00  0.00    +0.000 OA
ATOM     13  N   UNL     1       7.100   7.962  17.751  0.00  0.00    +0.000 N 
ATOM     14  H   UNL     1       6.473   8.321  18.462  0.00  0.00    +0.000 HD
BRANCH  13  15
ATOM     15  C   UNL     1       8.440   8.625  17.562  0.00  0.00    +0.000 C 
BRANCH  15  16
ATOM     16  C   UNL     1       8.672   9.984  18.235  0.00  0.00    +0.000 A 
ATOM     17  C   UNL     1       8.304  11.199  17.653  0.00  0.00    +0.000 A 
ATOM     18  C   UNL     1       8.683  12.430  18.224  0.00  0.00    +0.000 A 
ATOM     19  C   UNL     1       9.396  12.502  19.421  0.00  0.00    +0.000 A 
ATOM     20  C   UNL     1       9.662  11.306  20.076  0.00  0.00    +0.000 A 
ATOM     21  C   UNL     1       9.289  10.065  19.505  0.00  0.00    +0.000 A 
BRANCH  19  22
ATOM     22  O   UNL     1       9.782  13.761  19.781  0.00  0.00    +0.000 OA
BRANCH  22  23
ATOM     23  C   UNL     1      11.154  14.066  20.061  0.00  0.00    +0.000 C 
ATOM     24  C   UNL     1      11.994  14.012  18.782  0.00  0.00    +0.000 C 
ATOM     25  C   UNL     1      11.175  15.495  20.606  0.00  0.00    +0.000 C 
ENDBRANCH  22  23
ENDBRANCH  19  22
ENDBRANCH  15  16
ENDBRANCH  13  15
ENDBRANCH   8  11
BRANCH   1  26
ATOM     26  C   UNL     1       1.770   5.846  20.880  0.00  0.00    +0.000 C 
BRANCH  26  31
ATOM     27  C   UNL     1       0.607  11.611  19.187  0.00  0.00    +0.000 C 
ATOM     28  C   UNL     1       0.929  10.198  19.639  0.00  0.00    +0.000 A 
ATOM     29  C   UNL     1       1.555   9.274  18.791  0.00  0.00    +0.000 A 
ATOM     30  C   UNL     1       1.826   7.920  19.193  0.00  0.00    +0.000 A 
ATOM     31  C   UNL     1       1.492   7.410  20.461  0.00  0.00    +0.000 A 
ATOM     32  C   UNL     1       0.872   8.371  21.315  0.00  0.00    +0.000 A 
ATOM     33  C   UNL     1       0.601   9.730  20.915  0.00  0.00    +0.000 A 
ENDBRANCH  26  31
ENDBRANCH   1  26
TORSDOF 7
ENDMDL
MODEL 2
REMARK VINA RESULT:      -8.1      0.666      1.210
REMARK  Name = 
REMARK  10 active torsions:
REMARK  status: ('A' for Active; 'I' for Inactive)
REMARK    1  A    between atoms: C_1  and  C_2
REMARK    2  A    between atoms: C_5  and  C_6
REMARK    3  A    between atoms: C_6  and  N_7
REMARK    4  A    between atoms: C_14  and  C_15
REMARK    5  A    between atoms: N_17  and  C_18
REMARK    6  A    between atoms: C_18  and  C_19
REMARK    7  A    between atoms: C_22  and  O_23
REMARK    8  A    between atoms: O_23  and  C_24
REMARK    9  A    between atoms: C_24  and  C_25
REMARK   10  A    between atoms: C_24  and  C_26
REMARK                            x       y       z     vdW  Elec       q    Type
REMARK                         _______ _______ _______ _____ _____    ______ ____
ROOT
ATOM      1  N   UNL     1       2.406   4.975  19.750  0.00  0.00    +0.000 N 
ATOM      2  C   UNL     1       1.287   4.001  19.491  0.00  0.00    +0.000 C 
ATOM      3  C   UNL     1       1.221   3.135  18.266  0.00  0.00    +0.000 C 
ATOM      4  S   UNL     1       2.786   2.350  18.004  0.00  0.00    +0.000 S 
ATOM      5  C   UNL     1       3.738   3.870  17.971  0.00  0.00    +0.000 A 
ATOM      6  C   UNL     1       4.755   3.775  16.991  0.00  0.00    +0.000 A 
ATOM      7  C   UNL     1       5.706   4.763  16.821  0.00  0.00    +0.000 A 
ATOM      8  C   UNL     1       5.696   5.909  17.620  0.00  0.00    +0.000 A 
ATOM      9  C   UNL     1       4.610   6.033  18.640  0.00  0.00    +0.000 A 
ATOM     10  C   UNL     1       3.536   5.000  18.837  0.00  0.00    +0.000 A 
ENDROOT
BRANCH   8  11
ATOM     11  C   UNL     1       6.839   6.851  17.108  0.00  0.00    +0.000 C 
ATOM     12  O   UNL     1       7.615   6.390  16.251  0.00  0.00    +0.000 OA
ATOM     13  N   UNL     1       7.156   8.058  17.730  0.00  0.00    +0.000 N 
ATOM     14  H   UNL     1       6.517   8.418  18.430  0.00  0.00    +0.000 HD
BRANCH  13  15
ATOM     15  C   UNL     1       8.499   8.722  17.563  0.00  0.00    +0.000 C 
BRANCH  15  16
ATOM     16  C   UNL     1       8.741  10.050  18.291  0.00  0.00    +0.000 A 
ATOM     17  C   UNL     1       8.515  11.297  17.705  0.00  0.00    +0.000 A 
ATOM     18  C   UNL     1       8.906  12.490  18.345  0.00  0.00    +0.000 A 
ATOM     19  C   UNL     1       9.488  12.493  19.613  0.00  0.00    +0.000 A 
ATOM     20  C   UNL     1       9.606  11.270  20.262  0.00  0.00    +0.000 A 
ATOM     21  C   UNL     1       9.220  10.067  19.622  0.00  0.00    +0.000 A 
BRANCH  19  22
ATOM     22  O   UNL     1       9.910  13.717  20.045  0.00  0.00    +0.000 OA
BRANCH  22  23
ATOM     23  C   UNL     1       9.479  14.922  19.399  0.00  0.00    +0.000 C 
ATOM     24  C   UNL     1       8.606  15.760  20.338  0.00  0.00    +0.000 C 
ATOM     25  C   UNL     1      10.747  15.711  19.068  0.00  0.00    +0.000 C 
ENDBRANCH  22  23
ENDBRANCH  19  22
ENDBRANCH  15  16
ENDBRANCH  13  15
ENDBRANCH   8  11
BRANCH   1  26
ATOM     26  C   UNL     1       1.866   5.893  20.882  0.00  0.00    +0.000 C 
BRANCH  26  31
ATOM     27  C   UNL     1       0.500  11.702  19.523  0.00  0.00    +0.000 C 
ATOM     28  C   UNL     1       0.806  10.246  19.826  0.00  0.00    +0.000 A 
ATOM     29  C   UNL     1       0.471   9.659  21.053  0.00  0.00    +0.000 A 
ATOM     30  C   UNL     1       0.794   8.293  21.370  0.00  0.00    +0.000 A 
ATOM     31  C   UNL     1       1.466   7.435  20.480  0.00  0.00    +0.000 A 
ATOM     32  C   UNL     1       1.783   8.046  19.230  0.00  0.00    +0.000 A 
ATOM     33  C   UNL     1       1.458   9.414  18.910  0.00  0.00    +0.000 A 
ENDBRANCH  26  31
ENDBRANCH   1  26
TORSDOF 7
ENDMDL
MODEL 3
REMARK VINA RESULT:      -8.1      4.199      8.997
REMARK  Name = 
REMARK  10 active torsions:
REMARK  status: ('A' for Active; 'I' for Inactive)
REMARK    1  A    between atoms: C_1  and  C_2
REMARK    2  A    between atoms: C_5  and  C_6
REMARK    3  A    between atoms: C_6  and  N_7
REMARK    4  A    between atoms: C_14  and  C_15
REMARK    5  A    between atoms: N_17  and  C_18
REMARK    6  A    between atoms: C_18  and  C_19
REMARK    7  A    between atoms: C_22  and  O_23
REMARK    8  A    between atoms: O_23  and  C_24
REMARK    9  A    between atoms: C_24  and  C_25
REMARK   10  A    between atoms: C_24  and  C_26
REMARK                            x       y       z     vdW  Elec       q    Type
REMARK                         _______ _______ _______ _____ _____    ______ ____
ROOT
ATOM      1  N   UNL     1       4.337   4.066  18.661  0.00  0.00    +0.000 N 
ATOM      2  C   UNL     1       4.618   2.728  19.292  0.00  0.00    +0.000 C 
ATOM      3  C   UNL     1       3.958   2.264  20.559  0.00  0.00    +0.000 C 
ATOM      4  S   UNL     1       2.212   2.536  20.457  0.00  0.00    +0.000 S 
ATOM      5  C   UNL     1       2.330   4.290  20.104  0.00  0.00    +0.000 A 
ATOM      6  C   UNL     1       1.298   4.984  20.779  0.00  0.00    +0.000 A 
ATOM      7  C   UNL     1       1.085   6.337  20.604  0.00  0.00    +0.000 A 
ATOM      8  C   UNL     1       1.895   7.082  19.743  0.00  0.00    +0.000 A 
ATOM      9  C   UNL     1       3.006   6.366  19.045  0.00  0.00    +0.000 A 
ATOM     10  C   UNL     1       3.296   4.903  19.232  0.00  0.00    +0.000 A 
ENDROOT
BRANCH   8  11
ATOM     11  C   UNL     1       1.444   8.579  19.848  0.00  0.00    +0.000 C 
ATOM     12  O   UNL     1       1.786   9.343  18.927  0.00  0.00    +0.000 OA
ATOM     13  N   UNL     1       0.901   9.122  21.013  0.00  0.00    +0.000 N 
ATOM     14  H   UNL     1       0.632   8.488  21.756  0.00  0.00    +0.000 HD
BRANCH  13  15
ATOM     15  C   UNL     1       0.903  10.604  21.288  0.00  0.00    +0.000 C 
BRANCH  15  16
ATOM     16  C   UNL     1      -0.428  11.270  21.659  0.00  0.00    +0.000 A 
ATOM     17  C   UNL     1      -0.980  11.216  22.940  0.00  0.00    +0.000 A 
ATOM     18  C   UNL     1      -2.279  11.696  23.200  0.00  0.00    +0.000 A 
ATOM     19  C   UNL     1      -3.058  12.293  22.209  0.00  0.00    +0.000 A 
ATOM     20  C   UNL     1      -2.477  12.466  20.960  0.00  0.00    +0.000 A 
ATOM     21  C   UNL     1      -1.174  11.981  20.690  0.00  0.00    +0.000 A 
BRANCH  19  22
ATOM     22  O   UNL     1      -4.332  12.601  22.593  0.00  0.00    +0.000 OA
BRANCH  22  23
ATOM     23  C   UNL     1      -4.608  13.125  23.899  0.00  0.00    +0.000 C 
ATOM     24  C   UNL     1      -4.574  14.655  23.889  0.00  0.00    +0.000 C 
ATOM     25  C   UNL     1      -6.022  12.663  24.258  0.00  0.00    +0.000 C 
ENDBRANCH  22  23
ENDBRANCH  19  22
ENDBRANCH  15  16
ENDBRANCH  13  15
ENDBRANCH   8  11
BRANCH   1  26
ATOM     26  C   UNL     1       5.493   4.264  17.642  0.00  0.00    +0.000 C 
BRANCH  26  31
ATOM     27  C   UNL     1       8.661   9.473  18.184  0.00  0.00    +0.000 C 
ATOM     28  C   UNL     1       7.915   8.160  18.028  0.00  0.00    +0.000 A 
ATOM     29  C   UNL     1       6.834   8.022  17.148  0.00  0.00    +0.000 A 
ATOM     30  C   UNL     1       6.091   6.796  17.024  0.00  0.00    +0.000 A 
ATOM     31  C   UNL     1       6.386   5.638  17.767  0.00  0.00    +0.000 A 
ATOM     32  C   UNL     1       7.500   5.793  18.644  0.00  0.00    +0.000 A 
ATOM     33  C   UNL     1       8.247   7.021  18.769  0.00  0.00    +0.000 A 
ENDBRANCH  26  31
ENDBRANCH   1  26
TORSDOF 7
ENDMDL
MODEL 4
REMARK VINA RESULT:      -8.1      3.221      6.398
REMARK  Name = 
REMARK  10 active torsions:
REMARK  status: ('A' for Active; 'I' for Inactive)
REMARK    1  A    between atoms: C_1  and  C_2
REMARK    2  A    between atoms: C_5  and  C_6
REMARK    3  A    between atoms: C_6  and  N_7
REMARK    4  A    between atoms: C_14  and  C_15
REMARK    5  A    between atoms: N_17  and  C_18
REMARK    6  A    between atoms: C_18  and  C_19
REMARK    7  A    between atoms: C_22  and  O_23
REMARK    8  A    between atoms: O_23  and  C_24
REMARK    9  A    between atoms: C_24  and  C_25
REMARK   10  A    between atoms: C_24  and  C_26
REMARK                            x       y       z     vdW  Elec       q    Type
REMARK                         _______ _______ _______ _____ _____    ______ ____
ROOT
ATOM      1  N   UNL     1       4.030   3.845  17.802  0.00  0.00    +0.000 N 
ATOM      2  C   UNL     1       4.189   2.357  17.974  0.00  0.00    +0.000 C 
ATOM      3  C   UNL     1       3.520   1.584  19.073  0.00  0.00    +0.000 C 
ATOM      4  S   UNL     1       1.809   2.028  19.160  0.00  0.00    +0.000 S 
ATOM      5  C   UNL     1       2.096   3.787  19.356  0.00  0.00    +0.000 A 
ATOM      6  C   UNL     1       1.159   4.326  20.270  0.00  0.00    +0.000 A 
ATOM      7  C   UNL     1       1.081   5.679  20.530  0.00  0.00    +0.000 A 
ATOM      8  C   UNL     1       1.940   6.580  19.894  0.00  0.00    +0.000 A 
ATOM      9  C   UNL     1       2.952   6.020  18.948  0.00  0.00    +0.000 A 
ATOM     10  C   UNL     1       3.095   4.552  18.660  0.00  0.00    +0.000 A 
ENDROOT
BRANCH   8  11
ATOM     11  C   UNL     1       1.647   8.004  20.479  0.00  0.00    +0.000 C 
ATOM     12  O   UNL     1       1.564   8.105  21.718  0.00  0.00    +0.000 OA
ATOM     13  N   UNL     1       1.249   9.078  19.683  0.00  0.00    +0.000 N 
ATOM     14  H   UNL     1       1.317   8.978  18.677  0.00  0.00    +0.000 HD
BRANCH  13  15
ATOM     15  C   UNL     1       0.527  10.275  20.248  0.00  0.00    +0.000 C 
BRANCH  15  16
ATOM     16  C   UNL     1       1.089  11.668  19.934  0.00  0.00    +0.000 A 
ATOM     17  C   UNL     1       1.730  11.983  18.734  0.00  0.00    +0.000 A 
ATOM     18  C   UNL     1       2.377  13.220  18.550  0.00  0.00    +0.000 A 
ATOM     19  C   UNL     1       2.368  14.212  19.532  0.00  0.00    +0.000 A 
ATOM     20  C   UNL     1       1.631  13.963  20.682  0.00  0.00    +0.000 A 
ATOM     21  C   UNL     1       0.982  12.718  20.875  0.00  0.00    +0.000 A 
BRANCH  19  22
ATOM     22  O   UNL     1       3.133  15.306  19.245  0.00  0.00    +0.000 OA
BRANCH  22  23
ATOM     23  C   UNL     1       3.688  15.502  17.938  0.00  0.00    +0.000 C 
ATOM     24  C   UNL     1       3.069  16.729  17.263  0.00  0.00    +0.000 C 
ATOM     25  C   UNL     1       5.185  15.750  18.138  0.00  0.00    +0.000 C 
ENDBRANCH  22  23
ENDBRANCH  19  22
ENDBRANCH  15  16
ENDBRANCH  13  15
ENDBRANCH   8  11
BRANCH   1  26
ATOM     26  C   UNL     1       5.172   4.246  16.828  0.00  0.00    +0.000 C 
BRANCH  26  31
ATOM     27  C   UNL     1       8.700   8.917  18.615  0.00  0.00    +0.000 C 
ATOM     28  C   UNL     1       7.864   7.738  18.150  0.00  0.00    +0.000 A 
ATOM     29  C   UNL     1       6.868   7.874  17.175  0.00  0.00    +0.000 A 
ATOM     30  C   UNL     1       6.041   6.774  16.758  0.00  0.00    +0.000 A 
ATOM     31  C   UNL     1       6.161   5.476  17.287  0.00  0.00    +0.000 A 
ATOM     32  C   UNL     1       7.192   5.353  18.265  0.00  0.00    +0.000 A 
ATOM     33  C   UNL     1       8.025   6.455  18.684  0.00  0.00    +0.000 A 
ENDBRANCH  26  31
ENDBRANCH   1  26
TORSDOF 7
ENDMDL
MODEL 5
REMARK VINA RESULT:      -8.0      5.434      9.618
REMARK  Name = 
REMARK  10 active torsions:
REMARK  status: ('A' for Active; 'I' for Inactive)
REMARK    1  A    between atoms: C_1  and  C_2
REMARK    2  A    between atoms: C_5  and  C_6
REMARK    3  A    between atoms: C_6  and  N_7
REMARK    4  A    between atoms: C_14  and  C_15
REMARK    5  A    between atoms: N_17  and  C_18
REMARK    6  A    between atoms: C_18  and  C_19
REMARK    7  A    between atoms: C_22  and  O_23
REMARK    8  A    between atoms: O_23  and  C_24
REMARK    9  A    between atoms: C_24  and  C_25
REMARK   10  A    between atoms: C_24  and  C_26
REMARK                            x       y       z     vdW  Elec       q    Type
REMARK                         _______ _______ _______ _____ _____    ______ ____
ROOT
ATOM      1  N   UNL     1       4.436   4.247  19.183  0.00  0.00    +0.000 N 
ATOM      2  C   UNL     1       4.453   2.799  19.598  0.00  0.00    +0.000 C 
ATOM      3  C   UNL     1       3.441   2.203  20.534  0.00  0.00    +0.000 C 
ATOM      4  S   UNL     1       1.811   2.675  20.032  0.00  0.00    +0.000 S 
ATOM      5  C   UNL     1       2.125   4.441  20.065  0.00  0.00    +0.000 A 
ATOM      6  C   UNL     1       0.987   5.119  20.565  0.00  0.00    +0.000 A 
ATOM      7  C   UNL     1       0.911   6.497  20.602  0.00  0.00    +0.000 A 
ATOM      8  C   UNL     1       1.970   7.284  20.142  0.00  0.00    +0.000 A 
ATOM      9  C   UNL     1       3.187   6.579  19.637  0.00  0.00    +0.000 A 
ATOM     10  C   UNL     1       3.328   5.083  19.609  0.00  0.00    +0.000 A 
ENDROOT
BRANCH   8  11
ATOM     11  C   UNL     1       1.596   8.782  20.409  0.00  0.00    +0.000 C 
ATOM     12  O   UNL     1       1.377   9.113  21.589  0.00  0.00    +0.000 OA
ATOM     13  N   UNL     1       1.272   9.672  19.385  0.00  0.00    +0.000 N 
ATOM     14  H   UNL     1       1.451   9.386  18.429  0.00  0.00    +0.000 HD
BRANCH  13  15
ATOM     15  C   UNL     1       0.476  10.929  19.631  0.00  0.00    +0.000 C 
BRANCH  15  16
ATOM     16  C   UNL     1      -0.975  10.971  19.136  0.00  0.00    +0.000 A 
ATOM     17  C   UNL     1      -1.448  10.186  18.083  0.00  0.00    +0.000 A 
ATOM     18  C   UNL     1      -2.739  10.372  17.550  0.00  0.00    +0.000 A 
ATOM     19  C   UNL     1      -3.627  11.310  18.077  0.00  0.00    +0.000 A 
ATOM     20  C   UNL     1      -3.218  12.012  19.203  0.00  0.00    +0.000 A 
ATOM     21  C   UNL     1      -1.919  11.833  19.740  0.00  0.00    +0.000 A 
BRANCH  19  22
ATOM     22  O   UNL     1      -4.793  11.446  17.380  0.00  0.00    +0.000 OA
BRANCH  22  23
ATOM     23  C   UNL     1      -5.957  12.025  17.985  0.00  0.00    +0.000 C 
ATOM     24  C   UNL     1      -6.746  12.850  16.965  0.00  0.00    +0.000 C 
ATOM     25  C   UNL     1      -6.825  10.856  18.454  0.00  0.00    +0.000 C 
ENDBRANCH  22  23
ENDBRANCH  19  22
ENDBRANCH  15  16
ENDBRANCH  13  15
ENDBRANCH   8  11
BRANCH   1  26
ATOM     26  C   UNL     1       5.839   4.486  18.560  0.00  0.00    +0.000 C 
BRANCH  26  31
ATOM     27  C   UNL     1       6.448   4.038  12.486  0.00  0.00    +0.000 C 
ATOM     28  C   UNL     1       6.263   4.185  13.986  0.00  0.00    +0.000 A 
ATOM     29  C   UNL     1       7.272   4.701  14.809  0.00  0.00    +0.000 A 
ATOM     30  C   UNL     1       7.126   4.804  16.237  0.00  0.00    +0.000 A 
ATOM     31  C   UNL     1       5.965   4.402  16.923  0.00  0.00    +0.000 A 
ATOM     32  C   UNL     1       4.943   3.896  16.065  0.00  0.00    +0.000 A 
ATOM     33  C   UNL     1       5.087   3.793  14.634  0.00  0.00    +0.000 A 
ENDBRANCH  26  31
ENDBRANCH   1  26
TORSDOF 7
ENDMDL
MODEL 6
REMARK VINA RESULT:      -7.9      0.775      1.032
REMARK  Name = 
REMARK  10 active torsions:
REMARK  status: ('A' for Active; 'I' for Inactive)
REMARK    1  A    between atoms: C_1  and  C_2
REMARK    2  A    between atoms: C_5  and  C_6
REMARK    3  A    between atoms: C_6  and  N_7
REMARK    4  A    between atoms: C_14  and  C_15
REMARK    5  A    between atoms: N_17  and  C_18
REMARK    6  A    between atoms: C_18  and  C_19
REMARK    7  A    between atoms: C_22  and  O_23
REMARK    8  A    between atoms: O_23  and  C_24
REMARK    9  A    between atoms: C_24  and  C_25
REMARK   10  A    between atoms: C_24  and  C_26
REMARK                            x       y       z     vdW  Elec       q    Type
REMARK                         _______ _______ _______ _____ _____    ______ ____
ROOT
ATOM      1  N   UNL     1       2.435   4.996  19.713  0.00  0.00    +0.000 N 
ATOM      2  C   UNL     1       1.342   3.990  19.463  0.00  0.00    +0.000 C 
ATOM      3  C   UNL     1       1.308   3.102  18.253  0.00  0.00    +0.000 C 
ATOM      4  S   UNL     1       2.894   2.351  18.017  0.00  0.00    +0.000 S 
ATOM      5  C   UNL     1       3.808   3.893  17.965  0.00  0.00    +0.000 A 
ATOM      6  C   UNL     1       4.836   3.808  16.995  0.00  0.00    +0.000 A 
ATOM      7  C   UNL     1       5.763   4.815  16.815  0.00  0.00    +0.000 A 
ATOM      8  C   UNL     1       5.718   5.975  17.594  0.00  0.00    +0.000 A 
ATOM      9  C   UNL     1       4.621   6.089  18.602  0.00  0.00    +0.000 A 
ATOM     10  C   UNL     1       3.571   5.033  18.809  0.00  0.00    +0.000 A 
ENDROOT
BRANCH   8  11
ATOM     11  C   UNL     1       6.841   6.935  17.074  0.00  0.00    +0.000 C 
ATOM     12  O   UNL     1       7.602   6.497  16.191  0.00  0.00    +0.000 OA
ATOM     13  N   UNL     1       7.163   8.134  17.712  0.00  0.00    +0.000 N 
ATOM     14  H   UNL     1       6.536   8.475  18.431  0.00  0.00    +0.000 HD
BRANCH  13  15
ATOM     15  C   UNL     1       8.496   8.813  17.527  0.00  0.00    +0.000 C 
BRANCH  15  16
ATOM     16  C   UNL     1       8.751  10.118  18.291  0.00  0.00    +0.000 A 
ATOM     17  C   UNL     1       8.487  11.381  17.758  0.00  0.00    +0.000 A 
ATOM     18  C   UNL     1       8.888  12.557  18.423  0.00  0.00    +0.000 A 
ATOM     19  C   UNL     1       9.520  12.523  19.666  0.00  0.00    +0.000 A 
ATOM     20  C   UNL     1       9.679  11.281  20.267  0.00  0.00    +0.000 A 
ATOM     21  C   UNL     1       9.283  10.095  19.601  0.00  0.00    +0.000 A 
BRANCH  19  22
ATOM     22  O   UNL     1       9.945  13.738  20.123  0.00  0.00    +0.000 OA
BRANCH  22  23
ATOM     23  C   UNL     1       9.120  14.540  20.978  0.00  0.00    +0.000 C 
ATOM     24  C   UNL     1       7.987  13.705  21.579  0.00  0.00    +0.000 C 
ATOM     25  C   UNL     1      10.025  15.033  22.110  0.00  0.00    +0.000 C 
ENDBRANCH  22  23
ENDBRANCH  19  22
ENDBRANCH  15  16
ENDBRANCH  13  15
ENDBRANCH   8  11
BRANCH   1  26
ATOM     26  C   UNL     1       1.863   5.919  20.825  0.00  0.00    +0.000 C 
BRANCH  26  31
ATOM     27  C   UNL     1       0.515  11.663  19.198  0.00  0.00    +0.000 C 
ATOM     28  C   UNL     1       0.886  10.255  19.630  0.00  0.00    +0.000 A 
ATOM     29  C   UNL     1       1.453   9.333  18.742  0.00  0.00    +0.000 A 
ATOM     30  C   UNL     1       1.768   7.984  19.128  0.00  0.00    +0.000 A 
ATOM     31  C   UNL     1       1.538   7.478  20.421  0.00  0.00    +0.000 A 
ATOM     32  C   UNL     1       0.976   8.438  21.315  0.00  0.00    +0.000 A 
ATOM     33  C   UNL     1       0.661   9.792  20.931  0.00  0.00    +0.000 A 
ENDBRANCH  26  31
ENDBRANCH   1  26
TORSDOF 7
ENDMDL
MODEL 7
REMARK VINA RESULT:      -7.9      1.085      1.831
REMARK  Name = 
REMARK  10 active torsions:
REMARK  status: ('A' for Active; 'I' for Inactive)
REMARK    1  A    between atoms: C_1  and  C_2
REMARK    2  A    between atoms: C_5  and  C_6
REMARK    3  A    between atoms: C_6  and  N_7
REMARK    4  A    between atoms: C_14  and  C_15
REMARK    5  A    between atoms: N_17  and  C_18
REMARK    6  A    between atoms: C_18  and  C_19
REMARK    7  A    between atoms: C_22  and  O_23
REMARK    8  A    between atoms: O_23  and  C_24
REMARK    9  A    between atoms: C_24  and  C_25
REMARK   10  A    between atoms: C_24  and  C_26
REMARK                            x       y       z     vdW  Elec       q    Type
REMARK                         _______ _______ _______ _____ _____    ______ ____
ROOT
ATOM      1  N   UNL     1       2.476   5.133  19.668  0.00  0.00    +0.000 N 
ATOM      2  C   UNL     1       1.369   4.139  19.429  0.00  0.00    +0.000 C 
ATOM      3  C   UNL     1       1.321   3.240  18.228  0.00  0.00    +0.000 C 
ATOM      4  S   UNL     1       2.896   2.466  17.997  0.00  0.00    +0.000 S 
ATOM      5  C   UNL     1       3.832   3.994  17.929  0.00  0.00    +0.000 A 
ATOM      6  C   UNL     1       4.857   3.884  16.959  0.00  0.00    +0.000 A 
ATOM      7  C   UNL     1       5.798   4.877  16.769  0.00  0.00    +0.000 A 
ATOM      8  C   UNL     1       5.770   6.044  17.536  0.00  0.00    +0.000 A 
ATOM      9  C   UNL     1       4.676   6.184  18.545  0.00  0.00    +0.000 A 
ATOM     10  C   UNL     1       3.612   5.145  18.763  0.00  0.00    +0.000 A 
ENDROOT
BRANCH   8  11
ATOM     11  C   UNL     1       6.906   6.984  17.006  0.00  0.00    +0.000 C 
ATOM     12  O   UNL     1       7.704   6.504  16.179  0.00  0.00    +0.000 OA
ATOM     13  N   UNL     1       7.195   8.219  17.587  0.00  0.00    +0.000 N 
ATOM     14  H   UNL     1       6.539   8.595  18.262  0.00  0.00    +0.000 HD
BRANCH  13  15
ATOM     15  C   UNL     1       8.530   8.898  17.415  0.00  0.00    +0.000 C 
BRANCH  15  16
ATOM     16  C   UNL     1       8.871  10.063  18.352  0.00  0.00    +0.000 A 
ATOM     17  C   UNL     1       9.207   9.891  19.697  0.00  0.00    +0.000 A 
ATOM     18  C   UNL     1       9.351  10.991  20.564  0.00  0.00    +0.000 A 
ATOM     19  C   UNL     1       9.217  12.306  20.118  0.00  0.00    +0.000 A 
ATOM     20  C   UNL     1       9.005  12.500  18.759  0.00  0.00    +0.000 A 
ATOM     21  C   UNL     1       8.854  11.397  17.883  0.00  0.00    +0.000 A 
BRANCH  19  22
ATOM     22  O   UNL     1       9.274  13.252  21.102  0.00  0.00    +0.000 OA
BRANCH  22  23
ATOM     23  C   UNL     1       8.105  13.979  21.502  0.00  0.00    +0.000 C 
ATOM     24  C   UNL     1       7.273  13.167  22.497  0.00  0.00    +0.000 C 
ATOM     25  C   UNL     1       8.604  15.249  22.194  0.00  0.00    +0.000 C 
ENDBRANCH  22  23
ENDBRANCH  19  22
ENDBRANCH  15  16
ENDBRANCH  13  15
ENDBRANCH   8  11
BRANCH   1  26
ATOM     26  C   UNL     1       1.919   6.074  20.771  0.00  0.00    +0.000 C 
BRANCH  26  31
ATOM     27  C   UNL     1       0.538  11.839  19.247  0.00  0.00    +0.000 C 
ATOM     28  C   UNL     1       0.846  10.393  19.594  0.00  0.00    +0.000 A 
ATOM     29  C   UNL     1       0.553   9.855  20.853  0.00  0.00    +0.000 A 
ATOM     30  C   UNL     1       0.879   8.499  21.208  0.00  0.00    +0.000 A 
ATOM     31  C   UNL     1       1.513   7.604  20.327  0.00  0.00    +0.000 A 
ATOM     32  C   UNL     1       1.787   8.165  19.045  0.00  0.00    +0.000 A 
ATOM     33  C   UNL     1       1.459   9.523  18.686  0.00  0.00    +0.000 A 
ENDBRANCH  26  31
ENDBRANCH   1  26
TORSDOF 7
ENDMDL
MODEL 8
REMARK VINA RESULT:      -7.8      4.119      9.026
REMARK  Name = 
REMARK  10 active torsions:
REMARK  status: ('A' for Active; 'I' for Inactive)
REMARK    1  A    between atoms: C_1  and  C_2
REMARK    2  A    between atoms: C_5  and  C_6
REMARK    3  A    between atoms: C_6  and  N_7
REMARK    4  A    between atoms: C_14  and  C_15
REMARK    5  A    between atoms: N_17  and  C_18
REMARK    6  A    between atoms: C_18  and  C_19
REMARK    7  A    between atoms: C_22  and  O_23
REMARK    8  A    between atoms: O_23  and  C_24
REMARK    9  A    between atoms: C_24  and  C_25
REMARK   10  A    between atoms: C_24  and  C_26
REMARK                            x       y       z     vdW  Elec       q    Type
REMARK                         _______ _______ _______ _____ _____    ______ ____
ROOT
ATOM      1  N   UNL     1       4.588   4.175  18.691  0.00  0.00    +0.000 N 
ATOM      2  C   UNL     1       4.885   2.830  19.300  0.00  0.00    +0.000 C 
ATOM      3  C   UNL     1       4.182   2.309  20.520  0.00  0.00    +0.000 C 
ATOM      4  S   UNL     1       2.434   2.525  20.341  0.00  0.00    +0.000 S 
ATOM      5  C   UNL     1       2.508   4.292  20.041  0.00  0.00    +0.000 A 
ATOM      6  C   UNL     1       1.421   4.932  20.683  0.00  0.00    +0.000 A 
ATOM      7  C   UNL     1       1.170   6.281  20.533  0.00  0.00    +0.000 A 
ATOM      8  C   UNL     1       1.994   7.077  19.732  0.00  0.00    +0.000 A 
ATOM      9  C   UNL     1       3.161   6.417  19.071  0.00  0.00    +0.000 A 
ATOM     10  C   UNL     1       3.492   4.960  19.232  0.00  0.00    +0.000 A 
ENDROOT
BRANCH   8  11
ATOM     11  C   UNL     1       1.487   8.554  19.854  0.00  0.00    +0.000 C 
ATOM     12  O   UNL     1       1.793   9.340  18.938  0.00  0.00    +0.000 OA
ATOM     13  N   UNL     1       0.931   9.065  21.028  0.00  0.00    +0.000 N 
ATOM     14  H   UNL     1       0.691   8.414  21.766  0.00  0.00    +0.000 HD
BRANCH  13  15
ATOM     15  C   UNL     1       0.879  10.544  21.317  0.00  0.00    +0.000 C 
BRANCH  15  16
ATOM     16  C   UNL     1      -0.492  11.178  21.582  0.00  0.00    +0.000 A 
ATOM     17  C   UNL     1      -1.268  11.770  20.584  0.00  0.00    +0.000 A 
ATOM     18  C   UNL     1      -2.441  12.486  20.894  0.00  0.00    +0.000 A 
ATOM     19  C   UNL     1      -2.916  12.597  22.201  0.00  0.00    +0.000 A 
ATOM     20  C   UNL     1      -2.224  11.910  23.190  0.00  0.00    +0.000 A 
ATOM     21  C   UNL     1      -1.041  11.193  22.886  0.00  0.00    +0.000 A 
BRANCH  19  22
ATOM     22  O   UNL     1      -3.999  13.415  22.347  0.00  0.00    +0.000 OA
BRANCH  22  23
ATOM     23  C   UNL     1      -5.329  12.939  22.104  0.00  0.00    +0.000 C 
ATOM     24  C   UNL     1      -6.143  12.911  23.400  0.00  0.00    +0.000 C 
ATOM     25  C   UNL     1      -5.972  13.935  21.137  0.00  0.00    +0.000 C 
ENDBRANCH  22  23
ENDBRANCH  19  22
ENDBRANCH  15  16
ENDBRANCH  13  15
ENDBRANCH   8  11
BRANCH   1  26
ATOM     26  C   UNL     1       5.784   4.439  17.735  0.00  0.00    +0.000 C 
BRANCH  26  31
ATOM     27  C   UNL     1       8.874   9.700  18.221  0.00  0.00    +0.000 C 
ATOM     28  C   UNL     1       8.069   8.416  18.121  0.00  0.00    +0.000 A 
ATOM     29  C   UNL     1       8.386   7.282  18.879  0.00  0.00    +0.000 A 
ATOM     30  C   UNL     1       7.658   6.047  18.762  0.00  0.00    +0.000 A 
ATOM     31  C   UNL     1       6.570   5.874  17.886  0.00  0.00    +0.000 A 
ATOM     32  C   UNL     1       6.252   7.046  17.136  0.00  0.00    +0.000 A 
ATOM     33  C   UNL     1       6.980   8.286  17.253  0.00  0.00    +0.000 A 
ENDBRANCH  26  31
ENDBRANCH   1  26
TORSDOF 7
ENDMDL
MODEL 9
REMARK VINA RESULT:      -7.8      4.110      8.788
REMARK  Name = 
REMARK  10 active torsions:
REMARK  status: ('A' for Active; 'I' for Inactive)
REMARK    1  A    between atoms: C_1  and  C_2
REMARK    2  A    between atoms: C_5  and  C_6
REMARK    3  A    between atoms: C_6  and  N_7
REMARK    4  A    between atoms: C_14  and  C_15
REMARK    5  A    between atoms: N_17  and  C_18
REMARK    6  A    between atoms: C_18  and  C_19
REMARK    7  A    between atoms: C_22  and  O_23
REMARK    8  A    between atoms: O_23  and  C_24
REMARK    9  A    between atoms: C_24  and  C_25
REMARK   10  A    between atoms: C_24  and  C_26
REMARK                            x       y       z     vdW  Elec       q    Type
REMARK                         _______ _______ _______ _____ _____    ______ ____
ROOT
ATOM      1  N   UNL     1       4.352   4.100  18.553  0.00  0.00    +0.000 N 
ATOM      2  C   UNL     1       4.660   2.754  19.156  0.00  0.00    +0.000 C 
ATOM      3  C   UNL     1       4.025   2.259  20.423  0.00  0.00    +0.000 C 
ATOM      4  S   UNL     1       2.275   2.509  20.352  0.00  0.00    +0.000 S 
ATOM      5  C   UNL     1       2.364   4.271  20.030  0.00  0.00    +0.000 A 
ATOM      6  C   UNL     1       1.333   4.939  20.733  0.00  0.00    +0.000 A 
ATOM      7  C   UNL     1       1.100   6.292  20.585  0.00  0.00    +0.000 A 
ATOM      8  C   UNL     1       1.887   7.063  19.726  0.00  0.00    +0.000 A 
ATOM      9  C   UNL     1       2.996   6.374  18.999  0.00  0.00    +0.000 A 
ATOM     10  C   UNL     1       3.308   4.912  19.154  0.00  0.00    +0.000 A 
ENDROOT
BRANCH   8  11
ATOM     11  C   UNL     1       1.417   8.551  19.865  0.00  0.00    +0.000 C 
ATOM     12  O   UNL     1       1.810   9.356  19.000  0.00  0.00    +0.000 OA
ATOM     13  N   UNL     1       0.798   9.042  21.015  0.00  0.00    +0.000 N 
ATOM     14  H   UNL     1       0.488   8.375  21.712  0.00  0.00    +0.000 HD
BRANCH  13  15
ATOM     15  C   UNL     1       0.771  10.511  21.351  0.00  0.00    +0.000 C 
BRANCH  15  16
ATOM     16  C   UNL     1      -0.589  11.158  21.641  0.00  0.00    +0.000 A 
ATOM     17  C   UNL     1      -1.351  11.807  20.668  0.00  0.00    +0.000 A 
ATOM     18  C   UNL     1      -2.512  12.531  21.006  0.00  0.00    +0.000 A 
ATOM     19  C   UNL     1      -2.987  12.595  22.316  0.00  0.00    +0.000 A 
ATOM     20  C   UNL     1      -2.310  11.854  23.276  0.00  0.00    +0.000 A 
ATOM     21  C   UNL     1      -1.140  11.128  22.943  0.00  0.00    +0.000 A 
BRANCH  19  22
ATOM     22  O   UNL     1      -4.055  13.427  22.496  0.00  0.00    +0.000 OA
BRANCH  22  23
ATOM     23  C   UNL     1      -3.885  14.848  22.576  0.00  0.00    +0.000 C 
ATOM     24  C   UNL     1      -4.852  15.565  21.631  0.00  0.00    +0.000 C 
ATOM     25  C   UNL     1      -4.218  15.240  24.017  0.00  0.00    +0.000 C 
ENDBRANCH  22  23
ENDBRANCH  19  22
ENDBRANCH  15  16
ENDBRANCH  13  15
ENDBRANCH   8  11
BRANCH   1  26
ATOM     26  C   UNL     1       5.489   4.332  17.521  0.00  0.00    +0.000 C 
BRANCH  26  31
ATOM     27  C   UNL     1       8.748   9.461  18.250  0.00  0.00    +0.000 C 
ATOM     28  C   UNL     1       7.979   8.167  18.047  0.00  0.00    +0.000 A 
ATOM     29  C   UNL     1       6.889   8.084  17.171  0.00  0.00    +0.000 A 
ATOM     30  C   UNL     1       6.125   6.877  17.002  0.00  0.00    +0.000 A 
ATOM     31  C   UNL     1       6.406   5.684  17.695  0.00  0.00    +0.000 A 
ATOM     32  C   UNL     1       7.529   5.785  18.569  0.00  0.00    +0.000 A 
ATOM     33  C   UNL     1       8.298   6.994  18.738  0.00  0.00    +0.000 A 
ENDBRANCH  26  31
ENDBRANCH   1  26
TORSDOF 7
ENDMDL
