MODEL 1
REMARK VINA RESULT:      -7.6      0.000      0.000
REMARK  Name = 
REMARK  10 active torsions:
REMARK  status: ('A' for Active; 'I' for Inactive)
REMARK    1  A    between atoms: C_1  and  C_2
REMARK    2  A    between atoms: C_2  and  C_3
REMARK    3  A    between atoms: C_2  and  C_4
REMARK    4  A    between atoms: C_2  and  C_18
REMARK    5  A    between atoms: C_7  and  O_8
REMARK    6  A    between atoms: O_8  and  C_9
REMARK    7  A    between atoms: C_12  and  N_13
REMARK    8  A    between atoms: C_21  and  O_22
REMARK    9  A    between atoms: O_22  and  C_23
REMARK   10  A    between atoms: C_26  and  N_27
REMARK                            x       y       z     vdW  Elec       q    Type
REMARK                         _______ _______ _______ _____ _____    ______ ____
ROOT
ATOM      1  C   UNL     1      -1.067  11.275  18.372  0.00  0.00    +0.000 C 
ATOM      2  C   UNL     1      -0.150  11.373  19.617  0.00  0.00    +0.000 C 
ATOM      3  C   UNL     1      -1.089  11.539  20.845  0.00  0.00    +0.000 C 
ENDROOT
BRANCH   2   4
ATOM      4  C   UNL     1       0.654  10.044  19.680  0.00  0.00    +0.000 A 
ATOM      5  C   UNL     1       1.336   9.551  18.551  0.00  0.00    +0.000 A 
ATOM      6  C   UNL     1       2.075   8.363  18.613  0.00  0.00    +0.000 A 
ATOM      7  C   UNL     1       2.125   7.632  19.798  0.00  0.00    +0.000 A 
ATOM      8  C   UNL     1       1.376   8.056  20.890  0.00  0.00    +0.000 A 
ATOM      9  C   UNL     1       0.669   9.261  20.843  0.00  0.00    +0.000 A 
BRANCH   7  10
ATOM     10  O   UNL     1       2.892   6.488  19.793  0.00  0.00    +0.000 OA
BRANCH  10  11
ATOM     11  C   UNL     1       2.314   5.291  19.417  0.00  0.00    +0.000 A 
ATOM     12  C   UNL     1       1.688   4.561  20.426  0.00  0.00    +0.000 A 
ATOM     13  C   UNL     1       1.084   3.334  20.132  0.00  0.00    +0.000 A 
ATOM     14  C   UNL     1       1.063   2.844  18.824  0.00  0.00    +0.000 A 
ATOM     15  C   UNL     1       1.729   3.558  17.830  0.00  0.00    +0.000 A 
ATOM     16  C   UNL     1       2.302   4.801  18.110  0.00  0.00    +0.000 A 
BRANCH  14  17
ATOM     17  N   UNL     1       0.580   1.558  18.551  0.00  0.00    +0.000 N 
ATOM     18  H   UNL     1      -0.426   1.526  18.407  0.00  0.00    +0.000 HD
ATOM     19  H   UNL     1       1.084   1.088  17.808  0.00  0.00    +0.000 HD
ENDBRANCH  14  17
ENDBRANCH  10  11
ENDBRANCH   7  10
ENDBRANCH   2   4
BRANCH   2  20
ATOM     20  C   UNL     1       0.767  12.619  19.585  0.00  0.00    +0.000 A 
ATOM     21  C   UNL     1       1.811  12.820  20.507  0.00  0.00    +0.000 A 
ATOM     22  C   UNL     1       2.643  13.940  20.430  0.00  0.00    +0.000 A 
ATOM     23  C   UNL     1       2.448  14.891  19.432  0.00  0.00    +0.000 A 
ATOM     24  C   UNL     1       1.376  14.749  18.552  0.00  0.00    +0.000 A 
ATOM     25  C   UNL     1       0.567  13.612  18.606  0.00  0.00    +0.000 A 
BRANCH  23  26
ATOM     26  O   UNL     1       3.324  15.953  19.432  0.00  0.00    +0.000 OA
BRANCH  26  27
ATOM     27  C   UNL     1       4.645  15.746  19.105  0.00  0.00    +0.000 A 
ATOM     28  C   UNL     1       5.584  16.319  19.964  0.00  0.00    +0.000 A 
ATOM     29  C   UNL     1       6.950  16.189  19.694  0.00  0.00    +0.000 A 
ATOM     30  C   UNL     1       7.395  15.453  18.594  0.00  0.00    +0.000 A 
ATOM     31  C   UNL     1       6.445  14.902  17.728  0.00  0.00    +0.000 A 
ATOM     32  C   UNL     1       5.082  14.997  18.012  0.00  0.00    +0.000 A 
BRANCH  30  33
ATOM     33  N   UNL     1       8.746  15.453  18.236  0.00  0.00    +0.000 N 
ATOM     34  H   UNL     1       8.944  15.973  17.393  0.00  0.00    +0.000 HD
ATOM     35  H   UNL     1       9.366  15.701  19.000  0.00  0.00    +0.000 HD
ENDBRANCH  30  33
ENDBRANCH  26  27
ENDBRANCH  23  26
ENDBRANCH   2  20
TORSDOF 8
ENDMDL
MODEL 2
REMARK VINA RESULT:      -7.6      2.451      3.144
REMARK  Name = 
REMARK  10 active torsions:
REMARK  status: ('A' for Active; 'I' for Inactive)
REMARK    1  A    between atoms: C_1  and  C_2
REMARK    2  A    between atoms: C_2  and  C_3
REMARK    3  A    between atoms: C_2  and  C_4
REMARK    4  A    between atoms: C_2  and  C_18
REMARK    5  A    between atoms: C_7  and  O_8
REMARK    6  A    between atoms: O_8  and  C_9
REMARK    7  A    between atoms: C_12  and  N_13
REMARK    8  A    between atoms: C_21  and  O_22
REMARK    9  A    between atoms: O_22  and  C_23
REMARK   10  A    between atoms: C_26  and  N_27
REMARK                            x       y       z     vdW  Elec       q    Type
REMARK                         _______ _______ _______ _____ _____    ______ ____
ROOT
ATOM      1  C   UNL     1      -0.723  10.499  18.371  0.00  0.00    +0.000 C 
ATOM      2  C   UNL     1       0.375  10.489  19.464  0.00  0.00    +0.000 C 
ATOM      3  C   UNL     1      -0.365  10.464  20.832  0.00  0.00    +0.000 C 
ENDROOT
BRANCH   2   4
ATOM      4  C   UNL     1       1.214   9.202  19.237  0.00  0.00    +0.000 A 
ATOM      5  C   UNL     1       1.481   8.310  20.293  0.00  0.00    +0.000 A 
ATOM      6  C   UNL     1       2.222   7.140  20.084  0.00  0.00    +0.000 A 
ATOM      7  C   UNL     1       2.733   6.853  18.820  0.00  0.00    +0.000 A 
ATOM      8  C   UNL     1       2.562   7.774  17.792  0.00  0.00    +0.000 A 
ATOM      9  C   UNL     1       1.790   8.923  17.988  0.00  0.00    +0.000 A 
BRANCH   7  10
ATOM     10  O   UNL     1       3.431   5.674  18.682  0.00  0.00    +0.000 OA
BRANCH  10  11
ATOM     11  C   UNL     1       4.482   5.612  17.788  0.00  0.00    +0.000 A 
ATOM     12  C   UNL     1       4.332   4.735  16.715  0.00  0.00    +0.000 A 
ATOM     13  C   UNL     1       5.353   4.607  15.766  0.00  0.00    +0.000 A 
ATOM     14  C   UNL     1       6.512   5.380  15.857  0.00  0.00    +0.000 A 
ATOM     15  C   UNL     1       6.672   6.223  16.956  0.00  0.00    +0.000 A 
ATOM     16  C   UNL     1       5.642   6.382  17.885  0.00  0.00    +0.000 A 
BRANCH  14  17
ATOM     17  N   UNL     1       7.589   5.158  14.989  0.00  0.00    +0.000 N 
ATOM     18  H   UNL     1       8.484   5.453  15.371  0.00  0.00    +0.000 HD
ATOM     19  H   UNL     1       7.625   4.212  14.626  0.00  0.00    +0.000 HD
ENDBRANCH  14  17
ENDBRANCH  10  11
ENDBRANCH   7  10
ENDBRANCH   2   4
BRANCH   2  20
ATOM     20  C   UNL     1       1.241  11.772  19.449  0.00  0.00    +0.000 A 
ATOM     21  C   UNL     1       1.645  12.431  20.625  0.00  0.00    +0.000 A 
ATOM     22  C   UNL     1       2.455  13.567  20.579  0.00  0.00    +0.000 A 
ATOM     23  C   UNL     1       2.877  14.079  19.356  0.00  0.00    +0.000 A 
ATOM     24  C   UNL     1       2.430  13.486  18.175  0.00  0.00    +0.000 A 
ATOM     25  C   UNL     1       1.650  12.328  18.221  0.00  0.00    +0.000 A 
BRANCH  23  26
ATOM     26  O   UNL     1       3.680  15.195  19.413  0.00  0.00    +0.000 OA
BRANCH  26  27
ATOM     27  C   UNL     1       5.043  15.061  19.279  0.00  0.00    +0.000 A 
ATOM     28  C   UNL     1       5.520  14.924  17.975  0.00  0.00    +0.000 A 
ATOM     29  C   UNL     1       6.888  14.750  17.744  0.00  0.00    +0.000 A 
ATOM     30  C   UNL     1       7.798  14.755  18.804  0.00  0.00    +0.000 A 
ATOM     31  C   UNL     1       7.308  14.871  20.107  0.00  0.00    +0.000 A 
ATOM     32  C   UNL     1       5.948  15.081  20.341  0.00  0.00    +0.000 A 
BRANCH  30  33
ATOM     33  N   UNL     1       9.140  14.427  18.591  0.00  0.00    +0.000 N 
ATOM     34  H   UNL     1       9.728  14.575  19.398  0.00  0.00    +0.000 HD
ATOM     35  H   UNL     1       9.271  13.508  18.178  0.00  0.00    +0.000 HD
ENDBRANCH  30  33
ENDBRANCH  26  27
ENDBRANCH  23  26
ENDBRANCH   2  20
TORSDOF 8
ENDMDL
MODEL 3
REMARK VINA RESULT:      -7.6      2.251      8.900
REMARK  Name = 
REMARK  10 active torsions:
REMARK  status: ('A' for Active; 'I' for Inactive)
REMARK    1  A    between atoms: C_1  and  C_2
REMARK    2  A    between atoms: C_2  and  C_3
REMARK    3  A    between atoms: C_2  and  C_4
REMARK    4  A    between atoms: C_2  and  C_18
REMARK    5  A    between atoms: C_7  and  O_8
REMARK    6  A    between atoms: O_8  and  C_9
REMARK    7  A    between atoms: C_12  and  N_13
REMARK    8  A    between atoms: C_21  and  O_22
REMARK    9  A    between atoms: O_22  and  C_23
REMARK   10  A    between atoms: C_26  and  N_27
REMARK                            x       y       z     vdW  Elec       q    Type
REMARK                         _______ _______ _______ _____ _____    ______ ____
ROOT
ATOM      1  C   UNL     1      -0.531  10.649  20.775  0.00  0.00    +0.000 C 
ATOM      2  C   UNL     1       0.355  10.490  19.515  0.00  0.00    +0.000 C 
ATOM      3  C   UNL     1      -0.613  10.428  18.299  0.00  0.00    +0.000 C 
ENDROOT
BRANCH   2   4
ATOM      4  C   UNL     1       1.275  11.741  19.459  0.00  0.00    +0.000 A 
ATOM      5  C   UNL     1       1.898  12.134  18.260  0.00  0.00    +0.000 A 
ATOM      6  C   UNL     1       2.712  13.273  18.205  0.00  0.00    +0.000 A 
ATOM      7  C   UNL     1       2.938  14.026  19.355  0.00  0.00    +0.000 A 
ATOM      8  C   UNL     1       2.409  13.593  20.566  0.00  0.00    +0.000 A 
ATOM      9  C   UNL     1       1.565  12.479  20.616  0.00  0.00    +0.000 A 
BRANCH   7  10
ATOM     10  O   UNL     1       3.728  15.146  19.223  0.00  0.00    +0.000 OA
BRANCH  10  11
ATOM     11  C   UNL     1       5.095  14.997  19.095  0.00  0.00    +0.000 A 
ATOM     12  C   UNL     1       5.832  14.998  20.277  0.00  0.00    +0.000 A 
ATOM     13  C   UNL     1       7.224  14.858  20.236  0.00  0.00    +0.000 A 
ATOM     14  C   UNL     1       7.887  14.676  19.021  0.00  0.00    +0.000 A 
ATOM     15  C   UNL     1       7.148  14.719  17.840  0.00  0.00    +0.000 A 
ATOM     16  C   UNL     1       5.756  14.821  17.877  0.00  0.00    +0.000 A 
BRANCH  14  17
ATOM     17  N   UNL     1       9.287  14.671  18.965  0.00  0.00    +0.000 N 
ATOM     18  H   UNL     1       9.660  14.098  18.213  0.00  0.00    +0.000 HD
ATOM     19  H   UNL     1       9.694  15.600  18.971  0.00  0.00    +0.000 HD
ENDBRANCH  14  17
ENDBRANCH  10  11
ENDBRANCH   7  10
ENDBRANCH   2   4
BRANCH   2  20
ATOM     20  C   UNL     1       1.156   9.165  19.514  0.00  0.00    +0.000 A 
ATOM     21  C   UNL     1       1.260   8.338  20.648  0.00  0.00    +0.000 A 
ATOM     22  C   UNL     1       1.962   7.131  20.604  0.00  0.00    +0.000 A 
ATOM     23  C   UNL     1       2.585   6.724  19.428  0.00  0.00    +0.000 A 
ATOM     24  C   UNL     1       2.556   7.561  18.313  0.00  0.00    +0.000 A 
ATOM     25  C   UNL     1       1.823   8.750  18.345  0.00  0.00    +0.000 A 
BRANCH  23  26
ATOM     26  O   UNL     1       3.243   5.516  19.480  0.00  0.00    +0.000 OA
BRANCH  26  27
ATOM     27  C   UNL     1       4.234   5.240  18.567  0.00  0.00    +0.000 A 
ATOM     28  C   UNL     1       5.542   5.468  18.995  0.00  0.00    +0.000 A 
ATOM     29  C   UNL     1       6.613   5.247  18.124  0.00  0.00    +0.000 A 
ATOM     30  C   UNL     1       6.396   4.754  16.835  0.00  0.00    +0.000 A 
ATOM     31  C   UNL     1       5.081   4.550  16.409  0.00  0.00    +0.000 A 
ATOM     32  C   UNL     1       4.010   4.735  17.285  0.00  0.00    +0.000 A 
BRANCH  30  33
ATOM     33  N   UNL     1       7.446   4.680  15.915  0.00  0.00    +0.000 N 
ATOM     34  H   UNL     1       7.735   5.579  15.554  0.00  0.00    +0.000 HD
ATOM     35  H   UNL     1       8.229   4.121  16.239  0.00  0.00    +0.000 HD
ENDBRANCH  30  33
ENDBRANCH  26  27
ENDBRANCH  23  26
ENDBRANCH   2  20
TORSDOF 8
ENDMDL
MODEL 4
REMARK VINA RESULT:      -7.6      2.465      3.093
REMARK  Name = 
REMARK  10 active torsions:
REMARK  status: ('A' for Active; 'I' for Inactive)
REMARK    1  A    between atoms: C_1  and  C_2
REMARK    2  A    between atoms: C_2  and  C_3
REMARK    3  A    between atoms: C_2  and  C_4
REMARK    4  A    between atoms: C_2  and  C_18
REMARK    5  A    between atoms: C_7  and  O_8
REMARK    6  A    between atoms: O_8  and  C_9
REMARK    7  A    between atoms: C_12  and  N_13
REMARK    8  A    between atoms: C_21  and  O_22
REMARK    9  A    between atoms: O_22  and  C_23
REMARK   10  A    between atoms: C_26  and  N_27
REMARK                            x       y       z     vdW  Elec       q    Type
REMARK                         _______ _______ _______ _____ _____    ______ ____
ROOT
ATOM      1  C   UNL     1      -0.663  10.457  18.374  0.00  0.00    +0.000 C 
ATOM      2  C   UNL     1       0.440  10.426  19.461  0.00  0.00    +0.000 C 
ATOM      3  C   UNL     1      -0.293  10.425  20.832  0.00  0.00    +0.000 C 
ENDROOT
BRANCH   2   4
ATOM      4  C   UNL     1       1.248   9.118  19.236  0.00  0.00    +0.000 A 
ATOM      5  C   UNL     1       1.564   8.264  20.309  0.00  0.00    +0.000 A 
ATOM      6  C   UNL     1       2.277   7.075  20.103  0.00  0.00    +0.000 A 
ATOM      7  C   UNL     1       2.707   6.731  18.824  0.00  0.00    +0.000 A 
ATOM      8  C   UNL     1       2.487   7.614  17.772  0.00  0.00    +0.000 A 
ATOM      9  C   UNL     1       1.744   8.781  17.968  0.00  0.00    +0.000 A 
BRANCH   7  10
ATOM     10  O   UNL     1       3.379   5.536  18.692  0.00  0.00    +0.000 OA
BRANCH  10  11
ATOM     11  C   UNL     1       4.384   5.428  17.750  0.00  0.00    +0.000 A 
ATOM     12  C   UNL     1       5.499   6.242  17.938  0.00  0.00    +0.000 A 
ATOM     13  C   UNL     1       6.560   6.199  17.026  0.00  0.00    +0.000 A 
ATOM     14  C   UNL     1       6.536   5.316  15.944  0.00  0.00    +0.000 A 
ATOM     15  C   UNL     1       5.399   4.537  15.740  0.00  0.00    +0.000 A 
ATOM     16  C   UNL     1       4.354   4.549  16.666  0.00  0.00    +0.000 A 
BRANCH  14  17
ATOM     17  N   UNL     1       7.531   5.366  14.959  0.00  0.00    +0.000 N 
ATOM     18  H   UNL     1       7.395   6.115  14.284  0.00  0.00    +0.000 HD
ATOM     19  H   UNL     1       8.472   5.362  15.336  0.00  0.00    +0.000 HD
ENDBRANCH  14  17
ENDBRANCH  10  11
ENDBRANCH   7  10
ENDBRANCH   2   4
BRANCH   2  20
ATOM     20  C   UNL     1       1.336  11.688  19.435  0.00  0.00    +0.000 A 
ATOM     21  C   UNL     1       2.034  12.103  18.285  0.00  0.00    +0.000 A 
ATOM     22  C   UNL     1       2.808  13.266  18.285  0.00  0.00    +0.000 A 
ATOM     23  C   UNL     1       2.909  14.041  19.437  0.00  0.00    +0.000 A 
ATOM     24  C   UNL     1       2.284  13.612  20.607  0.00  0.00    +0.000 A 
ATOM     25  C   UNL     1       1.481  12.469  20.598  0.00  0.00    +0.000 A 
BRANCH  23  26
ATOM     26  O   UNL     1       3.685  15.173  19.336  0.00  0.00    +0.000 OA
BRANCH  26  27
ATOM     27  C   UNL     1       5.047  15.054  19.185  0.00  0.00    +0.000 A 
ATOM     28  C   UNL     1       5.790  14.989  20.364  0.00  0.00    +0.000 A 
ATOM     29  C   UNL     1       7.185  14.900  20.310  0.00  0.00    +0.000 A 
ATOM     30  C   UNL     1       7.849  14.830  19.083  0.00  0.00    +0.000 A 
ATOM     31  C   UNL     1       7.097  14.918  17.908  0.00  0.00    +0.000 A 
ATOM     32  C   UNL     1       5.703  14.971  17.956  0.00  0.00    +0.000 A 
BRANCH  30  33
ATOM     33  N   UNL     1       9.244  14.898  19.024  0.00  0.00    +0.000 N 
ATOM     34  H   UNL     1       9.703  14.591  19.870  0.00  0.00    +0.000 HD
ATOM     35  H   UNL     1       9.635  14.467  18.192  0.00  0.00    +0.000 HD
ENDBRANCH  30  33
ENDBRANCH  26  27
ENDBRANCH  23  26
ENDBRANCH   2  20
TORSDOF 8
ENDMDL
MODEL 5
REMARK VINA RESULT:      -7.6      2.514      3.163
REMARK  Name = 
REMARK  10 active torsions:
REMARK  status: ('A' for Active; 'I' for Inactive)
REMARK    1  A    between atoms: C_1  and  C_2
REMARK    2  A    between atoms: C_2  and  C_3
REMARK    3  A    between atoms: C_2  and  C_4
REMARK    4  A    between atoms: C_2  and  C_18
REMARK    5  A    between atoms: C_7  and  O_8
REMARK    6  A    between atoms: O_8  and  C_9
REMARK    7  A    between atoms: C_12  and  N_13
REMARK    8  A    between atoms: C_21  and  O_22
REMARK    9  A    between atoms: O_22  and  C_23
REMARK   10  A    between atoms: C_26  and  N_27
REMARK                            x       y       z     vdW  Elec       q    Type
REMARK                         _______ _______ _______ _____ _____    ______ ____
ROOT
ATOM      1  C   UNL     1      -0.537  10.244  18.134  0.00  0.00    +0.000 C 
ATOM      2  C   UNL     1       0.476  10.282  19.305  0.00  0.00    +0.000 C 
ATOM      3  C   UNL     1      -0.364  10.329  20.613  0.00  0.00    +0.000 C 
ENDROOT
BRANCH   2   4
ATOM      4  C   UNL     1       1.318   8.980  19.205  0.00  0.00    +0.000 A 
ATOM      5  C   UNL     1       1.871   8.563  17.979  0.00  0.00    +0.000 A 
ATOM      6  C   UNL     1       2.646   7.399  17.893  0.00  0.00    +0.000 A 
ATOM      7  C   UNL     1       2.861   6.617  19.026  0.00  0.00    +0.000 A 
ATOM      8  C   UNL     1       2.238   6.965  20.220  0.00  0.00    +0.000 A 
ATOM      9  C   UNL     1       1.497   8.146  20.317  0.00  0.00    +0.000 A 
BRANCH   7  10
ATOM     10  O   UNL     1       3.653   5.501  18.872  0.00  0.00    +0.000 OA
BRANCH  10  11
ATOM     11  C   UNL     1       4.638   5.500  17.904  0.00  0.00    +0.000 A 
ATOM     12  C   UNL     1       4.447   4.636  16.828  0.00  0.00    +0.000 A 
ATOM     13  C   UNL     1       5.401   4.568  15.805  0.00  0.00    +0.000 A 
ATOM     14  C   UNL     1       6.530   5.390  15.827  0.00  0.00    +0.000 A 
ATOM     15  C   UNL     1       6.733   6.220  16.928  0.00  0.00    +0.000 A 
ATOM     16  C   UNL     1       5.768   6.319  17.932  0.00  0.00    +0.000 A 
BRANCH  14  17
ATOM     17  N   UNL     1       7.549   5.230  14.879  0.00  0.00    +0.000 N 
ATOM     18  H   UNL     1       8.194   6.015  14.842  0.00  0.00    +0.000 HD
ATOM     19  H   UNL     1       8.034   4.343  14.956  0.00  0.00    +0.000 HD
ENDBRANCH  14  17
ENDBRANCH  10  11
ENDBRANCH   7  10
ENDBRANCH   2   4
BRANCH   2  20
ATOM     20  C   UNL     1       1.352  11.558  19.292  0.00  0.00    +0.000 A 
ATOM     21  C   UNL     1       1.992  12.030  18.131  0.00  0.00    +0.000 A 
ATOM     22  C   UNL     1       2.748  13.204  18.145  0.00  0.00    +0.000 A 
ATOM     23  C   UNL     1       2.890  13.934  19.322  0.00  0.00    +0.000 A 
ATOM     24  C   UNL     1       2.325  13.447  20.500  0.00  0.00    +0.000 A 
ATOM     25  C   UNL     1       1.538  12.293  20.479  0.00  0.00    +0.000 A 
BRANCH  23  26
ATOM     26  O   UNL     1       3.645  15.081  19.234  0.00  0.00    +0.000 OA
BRANCH  26  27
ATOM     27  C   UNL     1       5.018  14.992  19.195  0.00  0.00    +0.000 A 
ATOM     28  C   UNL     1       5.590  14.906  17.926  0.00  0.00    +0.000 A 
ATOM     29  C   UNL     1       6.976  14.780  17.789  0.00  0.00    +0.000 A 
ATOM     30  C   UNL     1       7.808  14.783  18.911  0.00  0.00    +0.000 A 
ATOM     31  C   UNL     1       7.223  14.848  20.179  0.00  0.00    +0.000 A 
ATOM     32  C   UNL     1       5.844  15.010  20.320  0.00  0.00    +0.000 A 
BRANCH  30  33
ATOM     33  N   UNL     1       9.171  14.502  18.787  0.00  0.00    +0.000 N 
ATOM     34  H   UNL     1       9.443  13.617  19.190  0.00  0.00    +0.000 HD
ATOM     35  H   UNL     1       9.525  14.623  17.843  0.00  0.00    +0.000 HD
ENDBRANCH  30  33
ENDBRANCH  26  27
ENDBRANCH  23  26
ENDBRANCH   2  20
TORSDOF 8
ENDMDL
MODEL 6
REMARK VINA RESULT:      -7.5      0.446      9.831
REMARK  Name = 
REMARK  10 active torsions:
REMARK  status: ('A' for Active; 'I' for Inactive)
REMARK    1  A    between atoms: C_1  and  C_2
REMARK    2  A    between atoms: C_2  and  C_3
REMARK    3  A    between atoms: C_2  and  C_4
REMARK    4  A    between atoms: C_2  and  C_18
REMARK    5  A    between atoms: C_7  and  O_8
REMARK    6  A    between atoms: O_8  and  C_9
REMARK    7  A    between atoms: C_12  and  N_13
REMARK    8  A    between atoms: C_21  and  O_22
REMARK    9  A    between atoms: O_22  and  C_23
REMARK   10  A    between atoms: C_26  and  N_27
REMARK                            x       y       z     vdW  Elec       q    Type
REMARK                         _______ _______ _______ _____ _____    ______ ____
ROOT
ATOM      1  C   UNL     1      -0.867  11.398  21.418  0.00  0.00    +0.000 C 
ATOM      2  C   UNL     1      -0.207  11.237  20.025  0.00  0.00    +0.000 C 
ATOM      3  C   UNL     1      -1.369  11.123  18.998  0.00  0.00    +0.000 C 
ENDROOT
BRANCH   2   4
ATOM      4  C   UNL     1       0.648  12.513  19.791  0.00  0.00    +0.000 A 
ATOM      5  C   UNL     1       0.401  13.366  18.699  0.00  0.00    +0.000 A 
ATOM      6  C   UNL     1       1.161  14.525  18.498  0.00  0.00    +0.000 A 
ATOM      7  C   UNL     1       2.199  14.840  19.371  0.00  0.00    +0.000 A 
ATOM      8  C   UNL     1       2.518  13.955  20.396  0.00  0.00    +0.000 A 
ATOM      9  C   UNL     1       1.737  12.818  20.621  0.00  0.00    +0.000 A 
BRANCH   7  10
ATOM     10  O   UNL     1       2.887  16.008  19.127  0.00  0.00    +0.000 OA
BRANCH  10  11
ATOM     11  C   UNL     1       4.237  15.949  18.839  0.00  0.00    +0.000 A 
ATOM     12  C   UNL     1       5.024  16.980  19.345  0.00  0.00    +0.000 A 
ATOM     13  C   UNL     1       6.401  16.999  19.094  0.00  0.00    +0.000 A 
ATOM     14  C   UNL     1       7.009  15.971  18.371  0.00  0.00    +0.000 A 
ATOM     15  C   UNL     1       6.208  14.966  17.832  0.00  0.00    +0.000 A 
ATOM     16  C   UNL     1       4.840  14.921  18.110  0.00  0.00    +0.000 A 
BRANCH  14  17
ATOM     17  N   UNL     1       8.358  16.056  18.004  0.00  0.00    +0.000 N 
ATOM     18  H   UNL     1       8.954  16.433  18.736  0.00  0.00    +0.000 HD
ATOM     19  H   UNL     1       8.727  15.192  17.622  0.00  0.00    +0.000 HD
ENDBRANCH  14  17
ENDBRANCH  10  11
ENDBRANCH   7  10
ENDBRANCH   2   4
BRANCH   2  20
ATOM     20  C   UNL     1       0.623   9.936  19.906  0.00  0.00    +0.000 A 
ATOM     21  C   UNL     1       1.230   9.528  18.704  0.00  0.00    +0.000 A 
ATOM     22  C   UNL     1       2.002   8.366  18.638  0.00  0.00    +0.000 A 
ATOM     23  C   UNL     1       2.180   7.577  19.772  0.00  0.00    +0.000 A 
ATOM     24  C   UNL     1       1.529   7.923  20.955  0.00  0.00    +0.000 A 
ATOM     25  C   UNL     1       0.788   9.105  21.031  0.00  0.00    +0.000 A 
BRANCH  23  26
ATOM     26  O   UNL     1       2.964   6.458  19.610  0.00  0.00    +0.000 OA
BRANCH  26  27
ATOM     27  C   UNL     1       2.370   5.231  19.423  0.00  0.00    +0.000 A 
ATOM     28  C   UNL     1       2.564   4.640  18.174  0.00  0.00    +0.000 A 
ATOM     29  C   UNL     1       1.972   3.408  17.882  0.00  0.00    +0.000 A 
ATOM     30  C   UNL     1       1.218   2.731  18.844  0.00  0.00    +0.000 A 
ATOM     31  C   UNL     1       1.012   3.342  20.084  0.00  0.00    +0.000 A 
ATOM     32  C   UNL     1       1.630   4.554  20.394  0.00  0.00    +0.000 A 
BRANCH  30  33
ATOM     33  N   UNL     1       0.499   1.581  18.506  0.00  0.00    +0.000 N 
ATOM     34  H   UNL     1       1.078   0.763  18.378  0.00  0.00    +0.000 HD
ATOM     35  H   UNL     1      -0.293   1.406  19.116  0.00  0.00    +0.000 HD
ENDBRANCH  30  33
ENDBRANCH  26  27
ENDBRANCH  23  26
ENDBRANCH   2  20
TORSDOF 8
ENDMDL
MODEL 7
REMARK VINA RESULT:      -7.5      2.459      8.891
REMARK  Name = 
REMARK  10 active torsions:
REMARK  status: ('A' for Active; 'I' for Inactive)
REMARK    1  A    between atoms: C_1  and  C_2
REMARK    2  A    between atoms: C_2  and  C_3
REMARK    3  A    between atoms: C_2  and  C_4
REMARK    4  A    between atoms: C_2  and  C_18
REMARK    5  A    between atoms: C_7  and  O_8
REMARK    6  A    between atoms: O_8  and  C_9
REMARK    7  A    between atoms: C_12  and  N_13
REMARK    8  A    between atoms: C_21  and  O_22
REMARK    9  A    between atoms: O_22  and  C_23
REMARK   10  A    between atoms: C_26  and  N_27
REMARK                            x       y       z     vdW  Elec       q    Type
REMARK                         _______ _______ _______ _____ _____    ______ ____
ROOT
ATOM      1  C   UNL     1      -0.292  10.482  20.925  0.00  0.00    +0.000 C 
ATOM      2  C   UNL     1       0.416  10.410  19.549  0.00  0.00    +0.000 C 
ATOM      3  C   UNL     1      -0.707  10.423  18.473  0.00  0.00    +0.000 C 
ENDROOT
BRANCH   2   4
ATOM      4  C   UNL     1       1.324  11.668  19.452  0.00  0.00    +0.000 A 
ATOM      5  C   UNL     1       1.974  12.006  18.251  0.00  0.00    +0.000 A 
ATOM      6  C   UNL     1       2.778  13.150  18.158  0.00  0.00    +0.000 A 
ATOM      7  C   UNL     1       2.966  13.964  19.274  0.00  0.00    +0.000 A 
ATOM      8  C   UNL     1       2.409  13.587  20.491  0.00  0.00    +0.000 A 
ATOM      9  C   UNL     1       1.576  12.468  20.576  0.00  0.00    +0.000 A 
BRANCH   7  10
ATOM     10  O   UNL     1       3.747  15.085  19.104  0.00  0.00    +0.000 OA
BRANCH  10  11
ATOM     11  C   UNL     1       5.122  14.960  19.131  0.00  0.00    +0.000 A 
ATOM     12  C   UNL     1       5.758  14.844  17.896  0.00  0.00    +0.000 A 
ATOM     13  C   UNL     1       7.149  14.707  17.835  0.00  0.00    +0.000 A 
ATOM     14  C   UNL     1       7.921  14.724  18.999  0.00  0.00    +0.000 A 
ATOM     15  C   UNL     1       7.273  14.796  20.231  0.00  0.00    +0.000 A 
ATOM     16  C   UNL     1       5.889  14.971  20.297  0.00  0.00    +0.000 A 
BRANCH  14  17
ATOM     17  N   UNL     1       9.294  14.452  18.950  0.00  0.00    +0.000 N 
ATOM     18  H   UNL     1       9.752  14.828  18.124  0.00  0.00    +0.000 HD
ATOM     19  H   UNL     1       9.784  14.701  19.802  0.00  0.00    +0.000 HD
ENDBRANCH  14  17
ENDBRANCH  10  11
ENDBRANCH   7  10
ENDBRANCH   2   4
BRANCH   2  20
ATOM     20  C   UNL     1       1.206   9.093  19.353  0.00  0.00    +0.000 A 
ATOM     21  C   UNL     1       1.711   8.688  18.104  0.00  0.00    +0.000 A 
ATOM     22  C   UNL     1       2.449   7.510  17.967  0.00  0.00    +0.000 A 
ATOM     23  C   UNL     1       2.695   6.703  19.075  0.00  0.00    +0.000 A 
ATOM     24  C   UNL     1       2.143   7.048  20.308  0.00  0.00    +0.000 A 
ATOM     25  C   UNL     1       1.436   8.245  20.453  0.00  0.00    +0.000 A 
BRANCH  23  26
ATOM     26  O   UNL     1       3.440   5.570  18.842  0.00  0.00    +0.000 OA
BRANCH  26  27
ATOM     27  C   UNL     1       4.442   5.594  17.900  0.00  0.00    +0.000 A 
ATOM     28  C   UNL     1       4.309   4.697  16.840  0.00  0.00    +0.000 A 
ATOM     29  C   UNL     1       5.296   4.627  15.852  0.00  0.00    +0.000 A 
ATOM     30  C   UNL     1       6.401   5.480  15.885  0.00  0.00    +0.000 A 
ATOM     31  C   UNL     1       6.536   6.360  16.962  0.00  0.00    +0.000 A 
ATOM     32  C   UNL     1       5.537   6.459  17.932  0.00  0.00    +0.000 A 
BRANCH  30  33
ATOM     33  N   UNL     1       7.461   5.308  14.990  0.00  0.00    +0.000 N 
ATOM     34  H   UNL     1       8.328   5.720  15.301  0.00  0.00    +0.000 HD
ATOM     35  H   UNL     1       7.576   4.347  14.680  0.00  0.00    +0.000 HD
ENDBRANCH  30  33
ENDBRANCH  26  27
ENDBRANCH  23  26
ENDBRANCH   2  20
TORSDOF 8
ENDMDL
MODEL 8
REMARK VINA RESULT:      -7.5      0.575      1.346
REMARK  Name = 
REMARK  10 active torsions:
REMARK  status: ('A' for Active; 'I' for Inactive)
REMARK    1  A    between atoms: C_1  and  C_2
REMARK    2  A    between atoms: C_2  and  C_3
REMARK    3  A    between atoms: C_2  and  C_4
REMARK    4  A    between atoms: C_2  and  C_18
REMARK    5  A    between atoms: C_7  and  O_8
REMARK    6  A    between atoms: O_8  and  C_9
REMARK    7  A    between atoms: C_12  and  N_13
REMARK    8  A    between atoms: C_21  and  O_22
REMARK    9  A    between atoms: O_22  and  C_23
REMARK   10  A    between atoms: C_26  and  N_27
REMARK                            x       y       z     vdW  Elec       q    Type
REMARK                         _______ _______ _______ _____ _____    ______ ____
ROOT
ATOM      1  C   UNL     1      -1.638  11.164  19.311  0.00  0.00    +0.000 C 
ATOM      2  C   UNL     1      -0.433  11.340  20.268  0.00  0.00    +0.000 C 
ATOM      3  C   UNL     1      -1.024  11.478  21.700  0.00  0.00    +0.000 C 
ENDROOT
BRANCH   2   4
ATOM      4  C   UNL     1       0.438  10.061  20.124  0.00  0.00    +0.000 A 
ATOM      5  C   UNL     1       1.076   9.747  18.909  0.00  0.00    +0.000 A 
ATOM      6  C   UNL     1       1.876   8.604  18.784  0.00  0.00    +0.000 A 
ATOM      7  C   UNL     1       2.031   7.739  19.865  0.00  0.00    +0.000 A 
ATOM      8  C   UNL     1       1.327   7.984  21.039  0.00  0.00    +0.000 A 
ATOM      9  C   UNL     1       0.560   9.144  21.178  0.00  0.00    +0.000 A 
BRANCH   7  10
ATOM     10  O   UNL     1       2.852   6.649  19.678  0.00  0.00    +0.000 OA
BRANCH  10  11
ATOM     11  C   UNL     1       2.286   5.406  19.470  0.00  0.00    +0.000 A 
ATOM     12  C   UNL     1       2.413   4.874  18.189  0.00  0.00    +0.000 A 
ATOM     13  C   UNL     1       1.862   3.622  17.892  0.00  0.00    +0.000 A 
ATOM     14  C   UNL     1       1.217   2.874  18.879  0.00  0.00    +0.000 A 
ATOM     15  C   UNL     1       1.057   3.432  20.146  0.00  0.00    +0.000 A 
ATOM     16  C   UNL     1       1.636   4.663  20.458  0.00  0.00    +0.000 A 
BRANCH  14  17
ATOM     17  N   UNL     1       0.549   1.686  18.553  0.00  0.00    +0.000 N 
ATOM     18  H   UNL     1       0.393   1.570  17.555  0.00  0.00    +0.000 HD
ATOM     19  H   UNL     1       0.968   0.861  18.969  0.00  0.00    +0.000 HD
ENDBRANCH  14  17
ENDBRANCH  10  11
ENDBRANCH   7  10
ENDBRANCH   2   4
BRANCH   2  20
ATOM     20  C   UNL     1       0.366  12.636  19.988  0.00  0.00    +0.000 A 
ATOM     21  C   UNL     1       1.466  13.036  20.770  0.00  0.00    +0.000 A 
ATOM     22  C   UNL     1       2.187  14.193  20.469  0.00  0.00    +0.000 A 
ATOM     23  C   UNL     1       1.823  14.985  19.384  0.00  0.00    +0.000 A 
ATOM     24  C   UNL     1       0.694  14.647  18.639  0.00  0.00    +0.000 A 
ATOM     25  C   UNL     1      -0.006  13.470  18.916  0.00  0.00    +0.000 A 
BRANCH  23  26
ATOM     26  O   UNL     1       2.600  16.099  19.162  0.00  0.00    +0.000 OA
BRANCH  26  27
ATOM     27  C   UNL     1       3.953  15.957  18.955  0.00  0.00    +0.000 A 
ATOM     28  C   UNL     1       4.329  15.041  17.972  0.00  0.00    +0.000 A 
ATOM     29  C   UNL     1       5.683  14.805  17.714  0.00  0.00    +0.000 A 
ATOM     30  C   UNL     1       6.674  15.510  18.401  0.00  0.00    +0.000 A 
ATOM     31  C   UNL     1       6.287  16.409  19.399  0.00  0.00    +0.000 A 
ATOM     32  C   UNL     1       4.938  16.674  19.635  0.00  0.00    +0.000 A 
BRANCH  30  33
ATOM     33  N   UNL     1       8.021  15.167  18.257  0.00  0.00    +0.000 N 
ATOM     34  H   UNL     1       8.245  14.244  18.600  0.00  0.00    +0.000 HD
ATOM     35  H   UNL     1       8.383  15.332  17.323  0.00  0.00    +0.000 HD
ENDBRANCH  30  33
ENDBRANCH  26  27
ENDBRANCH  23  26
ENDBRANCH   2  20
TORSDOF 8
ENDMDL
MODEL 9
REMARK VINA RESULT:      -7.5      2.511      2.939
REMARK  Name = 
REMARK  10 active torsions:
REMARK  status: ('A' for Active; 'I' for Inactive)
REMARK    1  A    between atoms: C_1  and  C_2
REMARK    2  A    between atoms: C_2  and  C_3
REMARK    3  A    between atoms: C_2  and  C_4
REMARK    4  A    between atoms: C_2  and  C_18
REMARK    5  A    between atoms: C_7  and  O_8
REMARK    6  A    between atoms: O_8  and  C_9
REMARK    7  A    between atoms: C_12  and  N_13
REMARK    8  A    between atoms: C_21  and  O_22
REMARK    9  A    between atoms: O_22  and  C_23
REMARK   10  A    between atoms: C_26  and  N_27
REMARK                            x       y       z     vdW  Elec       q    Type
REMARK                         _______ _______ _______ _____ _____    ______ ____
ROOT
ATOM      1  C   UNL     1      -0.481  10.162  18.058  0.00  0.00    +0.000 C 
ATOM      2  C   UNL     1       0.464  10.241  19.283  0.00  0.00    +0.000 C 
ATOM      3  C   UNL     1      -0.448  10.277  20.542  0.00  0.00    +0.000 C 
ENDROOT
BRANCH   2   4
ATOM      4  C   UNL     1       1.347   8.963  19.244  0.00  0.00    +0.000 A 
ATOM      5  C   UNL     1       2.021   8.578  18.070  0.00  0.00    +0.000 A 
ATOM      6  C   UNL     1       2.831   7.435  18.040  0.00  0.00    +0.000 A 
ATOM      7  C   UNL     1       2.962   6.642  19.178  0.00  0.00    +0.000 A 
ATOM      8  C   UNL     1       2.224   6.956  20.314  0.00  0.00    +0.000 A 
ATOM      9  C   UNL     1       1.445   8.116  20.358  0.00  0.00    +0.000 A 
BRANCH   7  10
ATOM     10  O   UNL     1       3.794   5.549  19.084  0.00  0.00    +0.000 OA
BRANCH  10  11
ATOM     11  C   UNL     1       4.673   5.459  18.022  0.00  0.00    +0.000 A 
ATOM     12  C   UNL     1       5.909   6.081  18.187  0.00  0.00    +0.000 A 
ATOM     13  C   UNL     1       6.855   6.043  17.157  0.00  0.00    +0.000 A 
ATOM     14  C   UNL     1       6.593   5.352  15.971  0.00  0.00    +0.000 A 
ATOM     15  C   UNL     1       5.338   4.770  15.798  0.00  0.00    +0.000 A 
ATOM     16  C   UNL     1       4.404   4.773  16.836  0.00  0.00    +0.000 A 
BRANCH  14  17
ATOM     17  N   UNL     1       7.481   5.426  14.890  0.00  0.00    +0.000 N 
ATOM     18  H   UNL     1       8.452   5.532  15.170  0.00  0.00    +0.000 HD
ATOM     19  H   UNL     1       7.360   4.677  14.218  0.00  0.00    +0.000 HD
ENDBRANCH  14  17
ENDBRANCH  10  11
ENDBRANCH   7  10
ENDBRANCH   2   4
BRANCH   2  20
ATOM     20  C   UNL     1       1.304  11.541  19.305  0.00  0.00    +0.000 A 
ATOM     21  C   UNL     1       1.499  12.302  20.472  0.00  0.00    +0.000 A 
ATOM     22  C   UNL     1       2.292  13.452  20.466  0.00  0.00    +0.000 A 
ATOM     23  C   UNL     1       2.904  13.875  19.289  0.00  0.00    +0.000 A 
ATOM     24  C   UNL     1       2.667  13.178  18.105  0.00  0.00    +0.000 A 
ATOM     25  C   UNL     1       1.905  12.007  18.119  0.00  0.00    +0.000 A 
BRANCH  23  26
ATOM     26  O   UNL     1       3.673  15.013  19.385  0.00  0.00    +0.000 OA
BRANCH  26  27
ATOM     27  C   UNL     1       5.032  14.936  19.187  0.00  0.00    +0.000 A 
ATOM     28  C   UNL     1       5.824  15.016  20.333  0.00  0.00    +0.000 A 
ATOM     29  C   UNL     1       7.218  14.979  20.226  0.00  0.00    +0.000 A 
ATOM     30  C   UNL     1       7.835  14.817  18.984  0.00  0.00    +0.000 A 
ATOM     31  C   UNL     1       7.034  14.760  17.840  0.00  0.00    +0.000 A 
ATOM     32  C   UNL     1       5.642  14.760  17.944  0.00  0.00    +0.000 A 
BRANCH  30  33
ATOM     33  N   UNL     1       9.222  14.936  18.857  0.00  0.00    +0.000 N 
ATOM     34  H   UNL     1       9.648  14.189  18.328  0.00  0.00    +0.000 HD
ATOM     35  H   UNL     1       9.522  15.854  18.544  0.00  0.00    +0.000 HD
ENDBRANCH  30  33
ENDBRANCH  26  27
ENDBRANCH  23  26
ENDBRANCH   2  20
TORSDOF 8
ENDMDL
