MODEL 1
REMARK VINA RESULT:      -8.6      0.000      0.000
REMARK  Name = 
REMARK  5 active torsions:
REMARK  status: ('A' for Active; 'I' for Inactive)
REMARK    1  A    between atoms: C_1  and  C_2
REMARK    2  A    between atoms: C_5  and  C_6
REMARK    3  A    between atoms: C_6  and  O_7
REMARK    4  A    between atoms: C_6  and  C_15
REMARK    5  A    between atoms: O_7  and  C_8
REMARK                            x       y       z     vdW  Elec       q    Type
REMARK                         _______ _______ _______ _____ _____    ______ ____
ROOT
ATOM      1  C   UNL     1       2.646   6.052  18.547  0.00  0.00    +0.000 C 
ENDROOT
BRANCH   1   6
ATOM      2  C   UNL     1      -0.636  10.155  19.139  0.00  0.00    +0.000 C 
ATOM      3  C   UNL     1       0.849  10.064  19.505  0.00  0.00    +0.000 C 
ATOM      4  C   UNL     1       1.101   9.011  20.598  0.00  0.00    +0.000 C 
ATOM      5  C   UNL     1       1.765   7.742  20.168  0.00  0.00    +0.000 C 
ATOM      6  C   UNL     1       2.177   7.461  18.917  0.00  0.00    +0.000 C 
ATOM      7  C   UNL     1       2.025   8.471  17.809  0.00  0.00    +0.000 C 
ATOM      8  C   UNL     1       1.741   9.908  18.265  0.00  0.00    +0.000 C 
ENDBRANCH   1   6
BRANCH   1   9
ATOM      9  C   UNL     1       2.121   4.949  19.466  0.00  0.00    +0.000 A 
ATOM     10  C   UNL     1       1.215   3.998  18.960  0.00  0.00    +0.000 A 
ATOM     11  C   UNL     1       0.806   2.909  19.735  0.00  0.00    +0.000 A 
ATOM     12  C   UNL     1       1.284   2.763  21.034  0.00  0.00    +0.000 A 
ATOM     13  C   UNL     1       2.157   3.712  21.564  0.00  0.00    +0.000 A 
ATOM     14  C   UNL     1       2.568   4.802  20.788  0.00  0.00    +0.000 A 
ENDBRANCH   1   9
BRANCH   1  15
ATOM     15  O   UNL     1       4.085   5.985  18.491  0.00  0.00    +0.000 OA
BRANCH  15  16
ATOM     16  C   UNL     1       4.654   5.457  17.359  0.00  0.00    +0.000 A 
ATOM     17  C   UNL     1       4.952   4.107  17.166  0.00  0.00    +0.000 A 
ATOM     18  C   UNL     1       5.524   3.675  15.967  0.00  0.00    +0.000 A 
ATOM     19  C   UNL     1       5.781   4.597  14.958  0.00  0.00    +0.000 A 
ATOM     20 BR   UNL     1       6.563   4.009  13.342  0.00  0.00    +0.000 Br
ATOM     21  C   UNL     1       5.460   5.941  15.129  0.00  0.00    +0.000 A 
ATOM     22  C   UNL     1       4.891   6.367  16.332  0.00  0.00    +0.000 A 
ENDBRANCH  15  16
ENDBRANCH   1  15
TORSDOF 4
ENDMDL
MODEL 2
REMARK VINA RESULT:      -8.6      2.702      6.368
REMARK  Name = 
REMARK  5 active torsions:
REMARK  status: ('A' for Active; 'I' for Inactive)
REMARK    1  A    between atoms: C_1  and  C_2
REMARK    2  A    between atoms: C_5  and  C_6
REMARK    3  A    between atoms: C_6  and  O_7
REMARK    4  A    between atoms: C_6  and  C_15
REMARK    5  A    between atoms: O_7  and  C_8
REMARK                            x       y       z     vdW  Elec       q    Type
REMARK                         _______ _______ _______ _____ _____    ______ ____
ROOT
ATOM      1  C   UNL     1       3.400   5.639  17.706  0.00  0.00    +0.000 C 
ENDROOT
BRANCH   1   6
ATOM      2  C   UNL     1       1.308   2.748  21.608  0.00  0.00    +0.000 C 
ATOM      3  C   UNL     1       1.714   2.296  20.201  0.00  0.00    +0.000 C 
ATOM      4  C   UNL     1       0.877   2.995  19.116  0.00  0.00    +0.000 C 
ATOM      5  C   UNL     1       1.567   4.045  18.307  0.00  0.00    +0.000 C 
ATOM      6  C   UNL     1       2.858   4.407  18.435  0.00  0.00    +0.000 C 
ATOM      7  C   UNL     1       3.757   3.720  19.430  0.00  0.00    +0.000 C 
ATOM      8  C   UNL     1       3.232   2.389  19.980  0.00  0.00    +0.000 C 
ENDBRANCH   1   6
BRANCH   1   9
ATOM      9  C   UNL     1       4.648   5.376  16.863  0.00  0.00    +0.000 A 
ATOM     10  C   UNL     1       5.788   6.183  17.042  0.00  0.00    +0.000 A 
ATOM     11  C   UNL     1       6.984   5.898  16.377  0.00  0.00    +0.000 A 
ATOM     12  C   UNL     1       7.054   4.812  15.510  0.00  0.00    +0.000 A 
ATOM     13  C   UNL     1       5.927   4.020  15.296  0.00  0.00    +0.000 A 
ATOM     14  C   UNL     1       4.730   4.303  15.962  0.00  0.00    +0.000 A 
ENDBRANCH   1   9
BRANCH   1  15
ATOM     15  O   UNL     1       3.663   6.713  18.631  0.00  0.00    +0.000 OA
BRANCH  15  16
ATOM     16  C   UNL     1       2.661   7.626  18.848  0.00  0.00    +0.000 A 
ATOM     17  C   UNL     1       1.985   7.803  20.056  0.00  0.00    +0.000 A 
ATOM     18  C   UNL     1       0.985   8.772  20.171  0.00  0.00    +0.000 A 
ATOM     19  C   UNL     1       0.676   9.570  19.075  0.00  0.00    +0.000 A 
ATOM     20 BR   UNL     1      -0.684  10.873  19.232  0.00  0.00    +0.000 Br
ATOM     21  C   UNL     1       1.364   9.422  17.874  0.00  0.00    +0.000 A 
ATOM     22  C   UNL     1       2.362   8.449  17.766  0.00  0.00    +0.000 A 
ENDBRANCH  15  16
ENDBRANCH   1  15
TORSDOF 4
ENDMDL
MODEL 3
REMARK VINA RESULT:      -8.6      2.729      6.441
REMARK  Name = 
REMARK  5 active torsions:
REMARK  status: ('A' for Active; 'I' for Inactive)
REMARK    1  A    between atoms: C_1  and  C_2
REMARK    2  A    between atoms: C_5  and  C_6
REMARK    3  A    between atoms: C_6  and  O_7
REMARK    4  A    between atoms: C_6  and  C_15
REMARK    5  A    between atoms: O_7  and  C_8
REMARK                            x       y       z     vdW  Elec       q    Type
REMARK                         _______ _______ _______ _____ _____    ______ ____
ROOT
ATOM      1  C   UNL     1       3.378   5.625  17.694  0.00  0.00    +0.000 C 
ENDROOT
BRANCH   1   6
ATOM      2  C   UNL     1       1.310   2.726  21.602  0.00  0.00    +0.000 C 
ATOM      3  C   UNL     1       1.720   2.274  20.197  0.00  0.00    +0.000 C 
ATOM      4  C   UNL     1       0.877   2.963  19.111  0.00  0.00    +0.000 C 
ATOM      5  C   UNL     1       1.559   4.018  18.299  0.00  0.00    +0.000 C 
ATOM      6  C   UNL     1       2.846   4.390  18.426  0.00  0.00    +0.000 C 
ATOM      7  C   UNL     1       3.751   3.713  19.423  0.00  0.00    +0.000 C 
ATOM      8  C   UNL     1       3.236   2.378  19.976  0.00  0.00    +0.000 C 
ENDBRANCH   1   6
BRANCH   1   9
ATOM      9  C   UNL     1       4.632   5.372  16.857  0.00  0.00    +0.000 A 
ATOM     10  C   UNL     1       5.765   6.186  17.041  0.00  0.00    +0.000 A 
ATOM     11  C   UNL     1       6.966   5.910  16.381  0.00  0.00    +0.000 A 
ATOM     12  C   UNL     1       7.047   4.825  15.513  0.00  0.00    +0.000 A 
ATOM     13  C   UNL     1       5.926   4.026  15.293  0.00  0.00    +0.000 A 
ATOM     14  C   UNL     1       4.724   4.300  15.955  0.00  0.00    +0.000 A 
ENDBRANCH   1   9
BRANCH   1  15
ATOM     15  O   UNL     1       3.627   6.704  18.617  0.00  0.00    +0.000 OA
BRANCH  15  16
ATOM     16  C   UNL     1       2.659   7.669  18.744  0.00  0.00    +0.000 A 
ATOM     17  C   UNL     1       2.224   8.508  17.716  0.00  0.00    +0.000 A 
ATOM     18  C   UNL     1       1.223   9.453  17.953  0.00  0.00    +0.000 A 
ATOM     19  C   UNL     1       0.649   9.542  19.217  0.00  0.00    +0.000 A 
ATOM     20 BR   UNL     1      -0.699  10.828  19.534  0.00  0.00    +0.000 Br
ATOM     21  C   UNL     1       1.055   8.690  20.240  0.00  0.00    +0.000 A 
ATOM     22  C   UNL     1       2.059   7.749  19.998  0.00  0.00    +0.000 A 
ENDBRANCH  15  16
ENDBRANCH   1  15
TORSDOF 4
ENDMDL
MODEL 4
REMARK VINA RESULT:      -8.5      0.110      1.031
REMARK  Name = 
REMARK  5 active torsions:
REMARK  status: ('A' for Active; 'I' for Inactive)
REMARK    1  A    between atoms: C_1  and  C_2
REMARK    2  A    between atoms: C_5  and  C_6
REMARK    3  A    between atoms: C_6  and  O_7
REMARK    4  A    between atoms: C_6  and  C_15
REMARK    5  A    between atoms: O_7  and  C_8
REMARK                            x       y       z     vdW  Elec       q    Type
REMARK                         _______ _______ _______ _____ _____    ______ ____
ROOT
ATOM      1  C   UNL     1       2.601   6.081  18.560  0.00  0.00    +0.000 C 
ENDROOT
BRANCH   1   6
ATOM      2  C   UNL     1      -0.677  10.177  19.217  0.00  0.00    +0.000 C 
ATOM      3  C   UNL     1       0.811  10.083  19.570  0.00  0.00    +0.000 C 
ATOM      4  C   UNL     1       1.073   9.020  20.650  0.00  0.00    +0.000 C 
ATOM      5  C   UNL     1       1.733   7.755  20.204  0.00  0.00    +0.000 C 
ATOM      6  C   UNL     1       2.135   7.486  18.947  0.00  0.00    +0.000 C 
ATOM      7  C   UNL     1       1.973   8.506  17.849  0.00  0.00    +0.000 C 
ATOM      8  C   UNL     1       1.693   9.938  18.320  0.00  0.00    +0.000 C 
ENDBRANCH   1   6
BRANCH   1   9
ATOM      9  C   UNL     1       2.104   4.972  19.488  0.00  0.00    +0.000 A 
ATOM     10  C   UNL     1       1.222   3.994  18.990  0.00  0.00    +0.000 A 
ATOM     11  C   UNL     1       0.841   2.901  19.774  0.00  0.00    +0.000 A 
ATOM     12  C   UNL     1       1.324   2.778  21.073  0.00  0.00    +0.000 A 
ATOM     13  C   UNL     1       2.173   3.753  21.595  0.00  0.00    +0.000 A 
ATOM     14  C   UNL     1       2.556   4.846  20.810  0.00  0.00    +0.000 A 
ENDBRANCH   1   9
BRANCH   1  15
ATOM     15  O   UNL     1       4.038   6.020  18.467  0.00  0.00    +0.000 OA
BRANCH  15  16
ATOM     16  C   UNL     1       4.583   5.618  17.273  0.00  0.00    +0.000 A 
ATOM     17  C   UNL     1       4.989   6.474  16.248  0.00  0.00    +0.000 A 
ATOM     18  C   UNL     1       5.542   5.957  15.074  0.00  0.00    +0.000 A 
ATOM     19  C   UNL     1       5.700   4.582  14.938  0.00  0.00    +0.000 A 
ATOM     20 BR   UNL     1       6.440   3.887  13.344  0.00  0.00    +0.000 Br
ATOM     21  C   UNL     1       5.326   3.721  15.967  0.00  0.00    +0.000 A 
ATOM     22  C   UNL     1       4.771   4.245  17.138  0.00  0.00    +0.000 A 
ENDBRANCH  15  16
ENDBRANCH   1  15
TORSDOF 4
ENDMDL
MODEL 5
REMARK VINA RESULT:      -8.5      3.161      5.844
REMARK  Name = 
REMARK  5 active torsions:
REMARK  status: ('A' for Active; 'I' for Inactive)
REMARK    1  A    between atoms: C_1  and  C_2
REMARK    2  A    between atoms: C_5  and  C_6
REMARK    3  A    between atoms: C_6  and  O_7
REMARK    4  A    between atoms: C_6  and  C_15
REMARK    5  A    between atoms: O_7  and  C_8
REMARK                            x       y       z     vdW  Elec       q    Type
REMARK                         _______ _______ _______ _____ _____    ______ ____
ROOT
ATOM      1  C   UNL     1       3.021   6.169  19.044  0.00  0.00    +0.000 C 
ENDROOT
BRANCH   1   6
ATOM      2  C   UNL     1       7.996   7.599  17.966  0.00  0.00    +0.000 C 
ATOM      3  C   UNL     1       7.299   6.270  17.655  0.00  0.00    +0.000 C 
ATOM      4  C   UNL     1       6.885   5.532  18.939  0.00  0.00    +0.000 C 
ATOM      5  C   UNL     1       5.425   5.512  19.262  0.00  0.00    +0.000 C 
ATOM      6  C   UNL     1       4.452   6.062  18.512  0.00  0.00    +0.000 C 
ATOM      7  C   UNL     1       4.775   6.743  17.207  0.00  0.00    +0.000 C 
ATOM      8  C   UNL     1       6.164   6.438  16.633  0.00  0.00    +0.000 C 
ENDBRANCH   1   6
BRANCH   1   9
ATOM      9  C   UNL     1       2.252   4.849  19.060  0.00  0.00    +0.000 A 
ATOM     10  C   UNL     1       2.358   3.971  17.964  0.00  0.00    +0.000 A 
ATOM     11  C   UNL     1       1.766   2.705  17.995  0.00  0.00    +0.000 A 
ATOM     12  C   UNL     1       1.045   2.304  19.116  0.00  0.00    +0.000 A 
ATOM     13  C   UNL     1       0.901   3.171  20.198  0.00  0.00    +0.000 A 
ATOM     14  C   UNL     1       1.495   4.438  20.168  0.00  0.00    +0.000 A 
ENDBRANCH   1   9
BRANCH   1  15
ATOM     15  O   UNL     1       2.269   7.154  18.308  0.00  0.00    +0.000 OA
BRANCH  15  16
ATOM     16  C   UNL     1       1.771   8.227  19.005  0.00  0.00    +0.000 A 
ATOM     17  C   UNL     1       1.476   8.229  20.369  0.00  0.00    +0.000 A 
ATOM     18  C   UNL     1       0.981   9.383  20.983  0.00  0.00    +0.000 A 
ATOM     19  C   UNL     1       0.797  10.536  20.227  0.00  0.00    +0.000 A 
ATOM     20 BR   UNL     1       0.118  12.090  21.059  0.00  0.00    +0.000 Br
ATOM     21  C   UNL     1       1.116  10.552  18.872  0.00  0.00    +0.000 A 
ATOM     22  C   UNL     1       1.609   9.395  18.264  0.00  0.00    +0.000 A 
ENDBRANCH  15  16
ENDBRANCH   1  15
TORSDOF 4
ENDMDL
MODEL 6
REMARK VINA RESULT:      -8.5      3.141      5.870
REMARK  Name = 
REMARK  5 active torsions:
REMARK  status: ('A' for Active; 'I' for Inactive)
REMARK    1  A    between atoms: C_1  and  C_2
REMARK    2  A    between atoms: C_5  and  C_6
REMARK    3  A    between atoms: C_6  and  O_7
REMARK    4  A    between atoms: C_6  and  C_15
REMARK    5  A    between atoms: O_7  and  C_8
REMARK                            x       y       z     vdW  Elec       q    Type
REMARK                         _______ _______ _______ _____ _____    ______ ____
ROOT
ATOM      1  C   UNL     1       3.161   5.945  18.905  0.00  0.00    +0.000 C 
ENDROOT
BRANCH   1   6
ATOM      2  C   UNL     1       8.042   7.762  17.995  0.00  0.00    +0.000 C 
ATOM      3  C   UNL     1       7.484   6.361  17.728  0.00  0.00    +0.000 C 
ATOM      4  C   UNL     1       7.066   5.659  19.032  0.00  0.00    +0.000 C 
ATOM      5  C   UNL     1       5.598   5.522  19.282  0.00  0.00    +0.000 C 
ATOM      6  C   UNL     1       4.623   5.940  18.452  0.00  0.00    +0.000 C 
ATOM      7  C   UNL     1       4.956   6.576  17.127  0.00  0.00    +0.000 C 
ATOM      8  C   UNL     1       6.397   6.369  16.643  0.00  0.00    +0.000 C 
ENDBRANCH   1   6
BRANCH   1   9
ATOM      9  C   UNL     1       2.499   4.567  18.919  0.00  0.00    +0.000 A 
ATOM     10  C   UNL     1       1.540   4.268  19.905  0.00  0.00    +0.000 A 
ATOM     11  C   UNL     1       0.829   3.065  19.878  0.00  0.00    +0.000 A 
ATOM     12  C   UNL     1       1.078   2.135  18.872  0.00  0.00    +0.000 A 
ATOM     13  C   UNL     1       2.046   2.400  17.905  0.00  0.00    +0.000 A 
ATOM     14  C   UNL     1       2.757   3.605  17.931  0.00  0.00    +0.000 A 
ENDBRANCH   1   9
BRANCH   1  15
ATOM     15  O   UNL     1       2.375   6.848  18.101  0.00  0.00    +0.000 OA
BRANCH  15  16
ATOM     16  C   UNL     1       1.886   7.978  18.707  0.00  0.00    +0.000 A 
ATOM     17  C   UNL     1       1.516   9.148  18.041  0.00  0.00    +0.000 A 
ATOM     18  C   UNL     1       1.020  10.241  18.757  0.00  0.00    +0.000 A 
ATOM     19  C   UNL     1       0.881  10.150  20.138  0.00  0.00    +0.000 A 
ATOM     20 BR   UNL     1       0.216  11.633  21.102  0.00  0.00    +0.000 Br
ATOM     21  C   UNL     1       1.218   8.976  20.807  0.00  0.00    +0.000 A 
ATOM     22  C   UNL     1       1.717   7.889  20.086  0.00  0.00    +0.000 A 
ENDBRANCH  15  16
ENDBRANCH   1  15
TORSDOF 4
ENDMDL
MODEL 7
REMARK VINA RESULT:      -8.5      2.690      6.293
REMARK  Name = 
REMARK  5 active torsions:
REMARK  status: ('A' for Active; 'I' for Inactive)
REMARK    1  A    between atoms: C_1  and  C_2
REMARK    2  A    between atoms: C_5  and  C_6
REMARK    3  A    between atoms: C_6  and  O_7
REMARK    4  A    between atoms: C_6  and  C_15
REMARK    5  A    between atoms: O_7  and  C_8
REMARK                            x       y       z     vdW  Elec       q    Type
REMARK                         _______ _______ _______ _____ _____    ______ ____
ROOT
ATOM      1  C   UNL     1       3.477   5.589  17.696  0.00  0.00    +0.000 C 
ENDROOT
BRANCH   1   6
ATOM      2  C   UNL     1       1.330   2.739  21.597  0.00  0.00    +0.000 C 
ATOM      3  C   UNL     1       1.657   2.299  20.167  0.00  0.00    +0.000 C 
ATOM      4  C   UNL     1       0.832   3.081  19.130  0.00  0.00    +0.000 C 
ATOM      5  C   UNL     1       1.563   4.104  18.322  0.00  0.00    +0.000 C 
ATOM      6  C   UNL     1       2.879   4.376  18.413  0.00  0.00    +0.000 C 
ATOM      7  C   UNL     1       3.763   3.605  19.359  0.00  0.00    +0.000 C 
ATOM      8  C   UNL     1       3.169   2.297  19.894  0.00  0.00    +0.000 C 
ENDBRANCH   1   6
BRANCH   1   9
ATOM      9  C   UNL     1       4.752   5.290  16.906  0.00  0.00    +0.000 A 
ATOM     10  C   UNL     1       4.739   4.283  15.922  0.00  0.00    +0.000 A 
ATOM     11  C   UNL     1       5.848   4.064  15.101  0.00  0.00    +0.000 A 
ATOM     12  C   UNL     1       6.994   4.837  15.261  0.00  0.00    +0.000 A 
ATOM     13  C   UNL     1       7.038   5.817  16.252  0.00  0.00    +0.000 A 
ATOM     14  C   UNL     1       5.927   6.039  17.073  0.00  0.00    +0.000 A 
ENDBRANCH   1   9
BRANCH   1  15
ATOM     15  O   UNL     1       3.728   6.665  18.622  0.00  0.00    +0.000 OA
BRANCH  15  16
ATOM     16  C   UNL     1       2.717   7.570  18.834  0.00  0.00    +0.000 A 
ATOM     17  C   UNL     1       2.019   7.725  20.033  0.00  0.00    +0.000 A 
ATOM     18  C   UNL     1       1.012   8.687  20.144  0.00  0.00    +0.000 A 
ATOM     19  C   UNL     1       0.718   9.500  19.055  0.00  0.00    +0.000 A 
ATOM     20 BR   UNL     1      -0.651  10.793  19.207  0.00  0.00    +0.000 Br
ATOM     21  C   UNL     1       1.429   9.374  17.864  0.00  0.00    +0.000 A 
ATOM     22  C   UNL     1       2.433   8.408  17.759  0.00  0.00    +0.000 A 
ENDBRANCH  15  16
ENDBRANCH   1  15
TORSDOF 4
ENDMDL
MODEL 8
REMARK VINA RESULT:      -8.5      3.212      6.007
REMARK  Name = 
REMARK  5 active torsions:
REMARK  status: ('A' for Active; 'I' for Inactive)
REMARK    1  A    between atoms: C_1  and  C_2
REMARK    2  A    between atoms: C_5  and  C_6
REMARK    3  A    between atoms: C_6  and  O_7
REMARK    4  A    between atoms: C_6  and  C_15
REMARK    5  A    between atoms: O_7  and  C_8
REMARK                            x       y       z     vdW  Elec       q    Type
REMARK                         _______ _______ _______ _____ _____    ______ ____
ROOT
ATOM      1  C   UNL     1       3.077   6.187  19.317  0.00  0.00    +0.000 C 
ENDROOT
BRANCH   1   6
ATOM      2  C   UNL     1       7.902   7.659  17.734  0.00  0.00    +0.000 C 
ATOM      3  C   UNL     1       7.167   6.345  17.448  0.00  0.00    +0.000 C 
ATOM      4  C   UNL     1       6.899   5.553  18.739  0.00  0.00    +0.000 C 
ATOM      5  C   UNL     1       5.486   5.519  19.227  0.00  0.00    +0.000 C 
ATOM      6  C   UNL     1       4.436   6.102  18.618  0.00  0.00    +0.000 C 
ATOM      7  C   UNL     1       4.610   6.839  17.315  0.00  0.00    +0.000 C 
ATOM      8  C   UNL     1       5.922   6.558  16.573  0.00  0.00    +0.000 C 
ENDBRANCH   1   6
BRANCH   1   9
ATOM      9  C   UNL     1       2.333   4.855  19.416  0.00  0.00    +0.000 A 
ATOM     10  C   UNL     1       2.017   4.330  20.683  0.00  0.00    +0.000 A 
ATOM     11  C   UNL     1       1.236   3.178  20.811  0.00  0.00    +0.000 A 
ATOM     12  C   UNL     1       0.771   2.525  19.674  0.00  0.00    +0.000 A 
ATOM     13  C   UNL     1       1.100   3.012  18.409  0.00  0.00    +0.000 A 
ATOM     14  C   UNL     1       1.881   4.166  18.280  0.00  0.00    +0.000 A 
ENDBRANCH   1   9
BRANCH   1  15
ATOM     15  O   UNL     1       2.229   7.164  18.680  0.00  0.00    +0.000 OA
BRANCH  15  16
ATOM     16  C   UNL     1       1.647   8.118  19.477  0.00  0.00    +0.000 A 
ATOM     17  C   UNL     1       1.433   7.993  20.850  0.00  0.00    +0.000 A 
ATOM     18  C   UNL     1       0.839   9.033  21.570  0.00  0.00    +0.000 A 
ATOM     19  C   UNL     1       0.475  10.203  20.910  0.00  0.00    +0.000 A 
ATOM     20 BR   UNL     1      -0.336  11.603  21.886  0.00  0.00    +0.000 Br
ATOM     21  C   UNL     1       0.713  10.349  19.546  0.00  0.00    +0.000 A 
ATOM     22  C   UNL     1       1.304   9.304  18.832  0.00  0.00    +0.000 A 
ENDBRANCH  15  16
ENDBRANCH   1  15
TORSDOF 4
ENDMDL
MODEL 9
REMARK VINA RESULT:      -8.5      2.714      6.368
REMARK  Name = 
REMARK  5 active torsions:
REMARK  status: ('A' for Active; 'I' for Inactive)
REMARK    1  A    between atoms: C_1  and  C_2
REMARK    2  A    between atoms: C_5  and  C_6
REMARK    3  A    between atoms: C_6  and  O_7
REMARK    4  A    between atoms: C_6  and  C_15
REMARK    5  A    between atoms: O_7  and  C_8
REMARK                            x       y       z     vdW  Elec       q    Type
REMARK                         _______ _______ _______ _____ _____    ______ ____
ROOT
ATOM      1  C   UNL     1       3.451   5.592  17.706  0.00  0.00    +0.000 C 
ENDROOT
BRANCH   1   6
ATOM      2  C   UNL     1       1.310   2.721  21.595  0.00  0.00    +0.000 C 
ATOM      3  C   UNL     1       1.673   2.277  20.174  0.00  0.00    +0.000 C 
ATOM      4  C   UNL     1       0.847   3.028  19.116  0.00  0.00    +0.000 C 
ATOM      5  C   UNL     1       1.565   4.064  18.312  0.00  0.00    +0.000 C 
ATOM      6  C   UNL     1       2.872   4.371  18.424  0.00  0.00    +0.000 C 
ATOM      7  C   UNL     1       3.759   3.631  19.391  0.00  0.00    +0.000 C 
ATOM      8  C   UNL     1       3.189   2.312  19.928  0.00  0.00    +0.000 C 
ENDBRANCH   1   6
BRANCH   1   9
ATOM      9  C   UNL     1       4.731   5.313  16.918  0.00  0.00    +0.000 A 
ATOM     10  C   UNL     1       4.733   4.310  15.930  0.00  0.00    +0.000 A 
ATOM     11  C   UNL     1       5.846   4.109  15.110  0.00  0.00    +0.000 A 
ATOM     12  C   UNL     1       6.982   4.897  15.275  0.00  0.00    +0.000 A 
ATOM     13  C   UNL     1       7.011   5.874  16.269  0.00  0.00    +0.000 A 
ATOM     14  C   UNL     1       5.896   6.077  17.089  0.00  0.00    +0.000 A 
ENDBRANCH   1   9
BRANCH   1  15
ATOM     15  O   UNL     1       3.684   6.673  18.632  0.00  0.00    +0.000 OA
BRANCH  15  16
ATOM     16  C   UNL     1       2.715   7.640  18.737  0.00  0.00    +0.000 A 
ATOM     17  C   UNL     1       2.314   8.488  17.704  0.00  0.00    +0.000 A 
ATOM     18  C   UNL     1       1.308   9.434  17.917  0.00  0.00    +0.000 A 
ATOM     19  C   UNL     1       0.697   9.516  19.164  0.00  0.00    +0.000 A 
ATOM     20 BR   UNL     1      -0.656  10.803  19.451  0.00  0.00    +0.000 Br
ATOM     21  C   UNL     1       1.070   8.654  20.193  0.00  0.00    +0.000 A 
ATOM     22  C   UNL     1       2.078   7.712  19.973  0.00  0.00    +0.000 A 
ENDBRANCH  15  16
ENDBRANCH   1  15
TORSDOF 4
ENDMDL
