MODEL 1
REMARK VINA RESULT:      -8.6      0.000      0.000
REMARK  Name = 
REMARK  4 active torsions:
REMARK  status: ('A' for Active; 'I' for Inactive)
REMARK    1  A    between atoms: C_2  and  C_10
REMARK    2  A    between atoms: N_3  and  C_4
REMARK    3  A    between atoms: C_4  and  C_5
REMARK    4  A    between atoms: C_12  and  C_13
REMARK                            x       y       z     vdW  Elec       q    Type
REMARK                         _______ _______ _______ _____ _____    ______ ____
ROOT
ATOM      1  C   UNL     1       4.259   5.279  19.105  0.00  0.00    +0.000 A 
ATOM      2  C   UNL     1       3.737   6.557  18.873  0.00  0.00    +0.000 A 
ATOM      3  C   UNL     1       2.504   6.895  19.410  0.00  0.00    +0.000 A 
ATOM      4  N   UNL     1       1.791   6.006  20.145  0.00  0.00    +0.000 NA
ATOM      5  C   UNL     1       2.270   4.770  20.352  0.00  0.00    +0.000 A 
ATOM      6  C   UNL     1       1.483   3.899  21.092  0.00  0.00    +0.000 A 
ATOM      7  C   UNL     1       1.881   2.590  21.367  0.00  0.00    +0.000 A 
ATOM      8  C   UNL     1       3.106   2.142  20.902  0.00  0.00    +0.000 A 
ATOM      9  C   UNL     1       3.918   3.002  20.164  0.00  0.00    +0.000 A 
ATOM     10  C   UNL     1       3.515   4.333  19.861  0.00  0.00    +0.000 A 
ENDROOT
BRANCH   3  11
ATOM     11  C   UNL     1       1.899   8.236  19.221  0.00  0.00    +0.000 A 
ATOM     12  C   UNL     1       2.021   8.945  18.024  0.00  0.00    +0.000 A 
ATOM     13  C   UNL     1       1.420  10.196  17.901  0.00  0.00    +0.000 A 
ATOM     14  C   UNL     1       0.714  10.720  18.975  0.00  0.00    +0.000 A 
ATOM     15  C   UNL     1       0.639   9.965  20.131  0.00  0.00    +0.000 A 
ATOM     16  N   UNL     1       1.206   8.746  20.278  0.00  0.00    +0.000 NA
ENDBRANCH   3  11
BRANCH   1  18
ATOM     17  O   UNL     1       6.458   4.380  19.141  0.00  0.00    +0.000 OA
ATOM     18  C   UNL     1       5.580   4.938  18.495  0.00  0.00    +0.000 C 
ATOM     19  N   UNL     1       5.762   5.287  17.171  0.00  0.00    +0.000 N 
ATOM     20  H   UNL     1       5.101   5.878  16.680  0.00  0.00    +0.000 HD
BRANCH  19  21
ATOM     21  C   UNL     1       7.054   5.096  16.553  0.00  0.00    +0.000 C 
BRANCH  21  22
ATOM     22  C   UNL     1       6.905   4.745  15.118  0.00  0.00    +0.000 A 
ATOM     23  C   UNL     1       6.091   3.844  14.460  0.00  0.00    +0.000 A 
ATOM     24  C   UNL     1       6.410   3.944  13.086  0.00  0.00    +0.000 A 
ATOM     25  C   UNL     1       7.402   4.891  12.990  0.00  0.00    +0.000 A 
ATOM     26  O   UNL     1       7.714   5.382  14.218  0.00  0.00    +0.000 OA
ENDBRANCH  21  22
ENDBRANCH  19  21
ENDBRANCH   1  18
TORSDOF 4
ENDMDL
MODEL 2
REMARK VINA RESULT:      -8.5      1.329      1.503
REMARK  Name = 
REMARK  4 active torsions:
REMARK  status: ('A' for Active; 'I' for Inactive)
REMARK    1  A    between atoms: C_2  and  C_10
REMARK    2  A    between atoms: N_3  and  C_4
REMARK    3  A    between atoms: C_4  and  C_5
REMARK    4  A    between atoms: C_12  and  C_13
REMARK                            x       y       z     vdW  Elec       q    Type
REMARK                         _______ _______ _______ _____ _____    ______ ____
ROOT
ATOM      1  C   UNL     1       4.338   5.124  17.923  0.00  0.00    +0.000 A 
ATOM      2  C   UNL     1       3.871   6.432  18.098  0.00  0.00    +0.000 A 
ATOM      3  C   UNL     1       2.621   6.637  18.664  0.00  0.00    +0.000 A 
ATOM      4  N   UNL     1       1.840   5.593  19.038  0.00  0.00    +0.000 NA
ATOM      5  C   UNL     1       2.268   4.335  18.851  0.00  0.00    +0.000 A 
ATOM      6  C   UNL     1       1.413   3.310  19.233  0.00  0.00    +0.000 A 
ATOM      7  C   UNL     1       1.753   1.965  19.083  0.00  0.00    +0.000 A 
ATOM      8  C   UNL     1       2.987   1.633  18.548  0.00  0.00    +0.000 A 
ATOM      9  C   UNL     1       3.866   2.646  18.166  0.00  0.00    +0.000 A 
ATOM     10  C   UNL     1       3.523   4.021  18.297  0.00  0.00    +0.000 A 
ENDROOT
BRANCH   3  11
ATOM     11  C   UNL     1       2.071   7.994  18.897  0.00  0.00    +0.000 A 
ATOM     12  C   UNL     1       2.089   8.983  17.912  0.00  0.00    +0.000 A 
ATOM     13  C   UNL     1       1.547  10.237  18.185  0.00  0.00    +0.000 A 
ATOM     14  C   UNL     1       1.001  10.483  19.437  0.00  0.00    +0.000 A 
ATOM     15  C   UNL     1       1.021   9.459  20.366  0.00  0.00    +0.000 A 
ATOM     16  N   UNL     1       1.536   8.231  20.127  0.00  0.00    +0.000 NA
ENDBRANCH   3  11
BRANCH   1  18
ATOM     17  O   UNL     1       6.637   4.525  17.934  0.00  0.00    +0.000 OA
ATOM     18  C   UNL     1       5.679   4.935  17.290  0.00  0.00    +0.000 C 
ATOM     19  N   UNL     1       5.784   5.251  15.950  0.00  0.00    +0.000 N 
ATOM     20  H   UNL     1       5.040   5.730  15.456  0.00  0.00    +0.000 HD
BRANCH  19  21
ATOM     21  C   UNL     1       7.076   5.208  15.306  0.00  0.00    +0.000 C 
BRANCH  21  22
ATOM     22  C   UNL     1       6.963   4.648  13.935  0.00  0.00    +0.000 A 
ATOM     23  C   UNL     1       7.631   4.924  12.759  0.00  0.00    +0.000 A 
ATOM     24  C   UNL     1       7.076   4.076  11.772  0.00  0.00    +0.000 A 
ATOM     25  C   UNL     1       6.100   3.342  12.404  0.00  0.00    +0.000 A 
ATOM     26  O   UNL     1       6.018   3.684  13.716  0.00  0.00    +0.000 OA
ENDBRANCH  21  22
ENDBRANCH  19  21
ENDBRANCH   1  18
TORSDOF 4
ENDMDL
MODEL 3
REMARK VINA RESULT:      -8.3      0.975      1.401
REMARK  Name = 
REMARK  4 active torsions:
REMARK  status: ('A' for Active; 'I' for Inactive)
REMARK    1  A    between atoms: C_2  and  C_10
REMARK    2  A    between atoms: N_3  and  C_4
REMARK    3  A    between atoms: C_4  and  C_5
REMARK    4  A    between atoms: C_12  and  C_13
REMARK                            x       y       z     vdW  Elec       q    Type
REMARK                         _______ _______ _______ _____ _____    ______ ____
ROOT
ATOM      1  C   UNL     1       3.899   5.487  19.226  0.00  0.00    +0.000 A 
ATOM      2  C   UNL     1       3.397   6.765  19.498  0.00  0.00    +0.000 A 
ATOM      3  C   UNL     1       2.130   6.896  20.046  0.00  0.00    +0.000 A 
ATOM      4  N   UNL     1       1.365   5.808  20.311  0.00  0.00    +0.000 NA
ATOM      5  C   UNL     1       1.826   4.579  20.030  0.00  0.00    +0.000 A 
ATOM      6  C   UNL     1       0.987   3.508  20.303  0.00  0.00    +0.000 A 
ATOM      7  C   UNL     1       1.361   2.188  20.049  0.00  0.00    +0.000 A 
ATOM      8  C   UNL     1       2.615   1.928  19.521  0.00  0.00    +0.000 A 
ATOM      9  C   UNL     1       3.479   2.988  19.248  0.00  0.00    +0.000 A 
ATOM     10  C   UNL     1       3.101   4.340  19.485  0.00  0.00    +0.000 A 
ENDROOT
BRANCH   3  11
ATOM     11  C   UNL     1       1.543   8.216  20.377  0.00  0.00    +0.000 A 
ATOM     12  C   UNL     1       1.167   8.558  21.677  0.00  0.00    +0.000 A 
ATOM     13  C   UNL     1       0.630   9.819  21.930  0.00  0.00    +0.000 A 
ATOM     14  C   UNL     1       0.473  10.713  20.881  0.00  0.00    +0.000 A 
ATOM     15  C   UNL     1       0.861  10.305  19.617  0.00  0.00    +0.000 A 
ATOM     16  N   UNL     1       1.390   9.091  19.343  0.00  0.00    +0.000 NA
ENDBRANCH   3  11
BRANCH   1  18
ATOM     17  O   UNL     1       6.225   5.003  19.267  0.00  0.00    +0.000 OA
ATOM     18  C   UNL     1       5.259   5.381  18.615  0.00  0.00    +0.000 C 
ATOM     19  N   UNL     1       5.373   5.734  17.285  0.00  0.00    +0.000 N 
ATOM     20  H   UNL     1       4.614   6.187  16.788  0.00  0.00    +0.000 HD
BRANCH  19  21
ATOM     21  C   UNL     1       6.677   5.771  16.664  0.00  0.00    +0.000 C 
BRANCH  21  22
ATOM     22  C   UNL     1       6.647   5.110  15.335  0.00  0.00    +0.000 A 
ATOM     23  C   UNL     1       5.802   4.167  14.784  0.00  0.00    +0.000 A 
ATOM     24  C   UNL     1       6.285   3.909  13.479  0.00  0.00    +0.000 A 
ATOM     25  C   UNL     1       7.396   4.703  13.318  0.00  0.00    +0.000 A 
ATOM     26  O   UNL     1       7.628   5.433  14.440  0.00  0.00    +0.000 OA
ENDBRANCH  21  22
ENDBRANCH  19  21
ENDBRANCH   1  18
TORSDOF 4
ENDMDL
MODEL 4
REMARK VINA RESULT:      -8.3      1.718      2.118
REMARK  Name = 
REMARK  4 active torsions:
REMARK  status: ('A' for Active; 'I' for Inactive)
REMARK    1  A    between atoms: C_2  and  C_10
REMARK    2  A    between atoms: N_3  and  C_4
REMARK    3  A    between atoms: C_4  and  C_5
REMARK    4  A    between atoms: C_12  and  C_13
REMARK                            x       y       z     vdW  Elec       q    Type
REMARK                         _______ _______ _______ _____ _____    ______ ____
ROOT
ATOM      1  C   UNL     1       4.062   5.864  17.433  0.00  0.00    +0.000 A 
ATOM      2  C   UNL     1       3.477   6.994  18.016  0.00  0.00    +0.000 A 
ATOM      3  C   UNL     1       2.460   6.831  18.944  0.00  0.00    +0.000 A 
ATOM      4  N   UNL     1       2.014   5.596  19.287  0.00  0.00    +0.000 NA
ATOM      5  C   UNL     1       2.550   4.507  18.715  0.00  0.00    +0.000 A 
ATOM      6  C   UNL     1       2.036   3.274  19.091  0.00  0.00    +0.000 A 
ATOM      7  C   UNL     1       2.515   2.076  18.559  0.00  0.00    +0.000 A 
ATOM      8  C   UNL     1       3.548   2.109  17.637  0.00  0.00    +0.000 A 
ATOM      9  C   UNL     1       4.087   3.336  17.252  0.00  0.00    +0.000 A 
ATOM     10  C   UNL     1       3.594   4.566  17.773  0.00  0.00    +0.000 A 
ENDROOT
BRANCH   3  11
ATOM     11  C   UNL     1       1.807   7.981  19.615  0.00  0.00    +0.000 A 
ATOM     12  C   UNL     1       1.487   7.965  20.973  0.00  0.00    +0.000 A 
ATOM     13  C   UNL     1       0.884   9.081  21.552  0.00  0.00    +0.000 A 
ATOM     14  C   UNL     1       0.608  10.189  20.763  0.00  0.00    +0.000 A 
ATOM     15  C   UNL     1       0.947  10.133  19.424  0.00  0.00    +0.000 A 
ATOM     16  N   UNL     1       1.538   9.067  18.837  0.00  0.00    +0.000 NA
ENDBRANCH   3  11
BRANCH   1  18
ATOM     17  O   UNL     1       5.098   7.005  15.625  0.00  0.00    +0.000 OA
ATOM     18  C   UNL     1       5.141   6.074  16.420  0.00  0.00    +0.000 C 
ATOM     19  N   UNL     1       6.181   5.166  16.422  0.00  0.00    +0.000 N 
ATOM     20  H   UNL     1       6.144   4.315  16.972  0.00  0.00    +0.000 HD
BRANCH  19  21
ATOM     21  C   UNL     1       7.194   5.238  15.395  0.00  0.00    +0.000 C 
BRANCH  21  22
ATOM     22  C   UNL     1       6.741   4.551  14.159  0.00  0.00    +0.000 A 
ATOM     23  C   UNL     1       5.704   3.675  13.909  0.00  0.00    +0.000 A 
ATOM     24  C   UNL     1       5.781   3.343  12.536  0.00  0.00    +0.000 A 
ATOM     25  C   UNL     1       6.863   4.029  12.036  0.00  0.00    +0.000 A 
ATOM     26  O   UNL     1       7.457   4.762  13.013  0.00  0.00    +0.000 OA
ENDBRANCH  21  22
ENDBRANCH  19  21
ENDBRANCH   1  18
TORSDOF 4
ENDMDL
MODEL 5
REMARK VINA RESULT:      -8.3      1.070      1.181
REMARK  Name = 
REMARK  4 active torsions:
REMARK  status: ('A' for Active; 'I' for Inactive)
REMARK    1  A    between atoms: C_2  and  C_10
REMARK    2  A    between atoms: N_3  and  C_4
REMARK    3  A    between atoms: C_4  and  C_5
REMARK    4  A    between atoms: C_12  and  C_13
REMARK                            x       y       z     vdW  Elec       q    Type
REMARK                         _______ _______ _______ _____ _____    ______ ____
ROOT
ATOM      1  C   UNL     1       4.235   5.314  18.747  0.00  0.00    +0.000 A 
ATOM      2  C   UNL     1       3.698   6.563  19.085  0.00  0.00    +0.000 A 
ATOM      3  C   UNL     1       2.392   6.640  19.542  0.00  0.00    +0.000 A 
ATOM      4  N   UNL     1       1.621   5.529  19.657  0.00  0.00    +0.000 NA
ATOM      5  C   UNL     1       2.117   4.331  19.311  0.00  0.00    +0.000 A 
ATOM      6  C   UNL     1       1.272   3.236  19.429  0.00  0.00    +0.000 A 
ATOM      7  C   UNL     1       1.680   1.944  19.096  0.00  0.00    +0.000 A 
ATOM      8  C   UNL     1       2.974   1.736  18.647  0.00  0.00    +0.000 A 
ATOM      9  C   UNL     1       3.843   2.820  18.530  0.00  0.00    +0.000 A 
ATOM     10  C   UNL     1       3.433   4.145  18.848  0.00  0.00    +0.000 A 
ENDROOT
BRANCH   3  11
ATOM     11  C   UNL     1       1.765   7.925  19.936  0.00  0.00    +0.000 A 
ATOM     12  C   UNL     1       1.527   8.948  19.016  0.00  0.00    +0.000 A 
ATOM     13  C   UNL     1       0.924  10.130  19.442  0.00  0.00    +0.000 A 
ATOM     14  C   UNL     1       0.575  10.272  20.778  0.00  0.00    +0.000 A 
ATOM     15  C   UNL     1       0.845   9.220  21.634  0.00  0.00    +0.000 A 
ATOM     16  N   UNL     1       1.424   8.059  21.248  0.00  0.00    +0.000 NA
ENDBRANCH   3  11
BRANCH   1  18
ATOM     17  O   UNL     1       6.589   5.562  18.950  0.00  0.00    +0.000 OA
ATOM     18  C   UNL     1       5.638   5.267  18.236  0.00  0.00    +0.000 C 
ATOM     19  N   UNL     1       5.809   4.881  16.921  0.00  0.00    +0.000 N 
ATOM     20  H   UNL     1       5.023   4.783  16.289  0.00  0.00    +0.000 HD
BRANCH  19  21
ATOM     21  C   UNL     1       7.125   4.929  16.328  0.00  0.00    +0.000 C 
BRANCH  21  22
ATOM     22  C   UNL     1       7.049   4.720  14.860  0.00  0.00    +0.000 A 
ATOM     23  C   UNL     1       6.326   3.839  14.081  0.00  0.00    +0.000 A 
ATOM     24  C   UNL     1       6.681   4.104  12.738  0.00  0.00    +0.000 A 
ATOM     25  C   UNL     1       7.604   5.122  12.780  0.00  0.00    +0.000 A 
ATOM     26  O   UNL     1       7.839   5.502  14.063  0.00  0.00    +0.000 OA
ENDBRANCH  21  22
ENDBRANCH  19  21
ENDBRANCH   1  18
TORSDOF 4
ENDMDL
MODEL 6
REMARK VINA RESULT:      -8.2      1.818      2.196
REMARK  Name = 
REMARK  4 active torsions:
REMARK  status: ('A' for Active; 'I' for Inactive)
REMARK    1  A    between atoms: C_2  and  C_10
REMARK    2  A    between atoms: N_3  and  C_4
REMARK    3  A    between atoms: C_4  and  C_5
REMARK    4  A    between atoms: C_12  and  C_13
REMARK                            x       y       z     vdW  Elec       q    Type
REMARK                         _______ _______ _______ _____ _____    ______ ____
ROOT
ATOM      1  C   UNL     1       4.243   5.496  17.140  0.00  0.00    +0.000 A 
ATOM      2  C   UNL     1       3.722   6.753  17.472  0.00  0.00    +0.000 A 
ATOM      3  C   UNL     1       2.667   6.836  18.367  0.00  0.00    +0.000 A 
ATOM      4  N   UNL     1       2.123   5.722  18.917  0.00  0.00    +0.000 NA
ATOM      5  C   UNL     1       2.597   4.511  18.586  0.00  0.00    +0.000 A 
ATOM      6  C   UNL     1       1.984   3.409  19.165  0.00  0.00    +0.000 A 
ATOM      7  C   UNL     1       2.393   2.103  18.892  0.00  0.00    +0.000 A 
ATOM      8  C   UNL     1       3.455   1.891  18.027  0.00  0.00    +0.000 A 
ATOM      9  C   UNL     1       4.093   2.985  17.442  0.00  0.00    +0.000 A 
ATOM     10  C   UNL     1       3.672   4.320  17.698  0.00  0.00    +0.000 A 
ENDROOT
BRANCH   3  11
ATOM     11  C   UNL     1       2.078   8.133  18.778  0.00  0.00    +0.000 A 
ATOM     12  C   UNL     1       2.019   9.230  17.915  0.00  0.00    +0.000 A 
ATOM     13  C   UNL     1       1.443  10.421  18.354  0.00  0.00    +0.000 A 
ATOM     14  C   UNL     1       0.942  10.498  19.646  0.00  0.00    +0.000 A 
ATOM     15  C   UNL     1       1.039   9.375  20.447  0.00  0.00    +0.000 A 
ATOM     16  N   UNL     1       1.587   8.205  20.047  0.00  0.00    +0.000 NA
ENDBRANCH   3  11
BRANCH   1  18
ATOM     17  O   UNL     1       6.251   6.284  16.145  0.00  0.00    +0.000 OA
ATOM     18  C   UNL     1       5.366   5.438  16.155  0.00  0.00    +0.000 C 
ATOM     19  N   UNL     1       5.352   4.388  15.257  0.00  0.00    +0.000 N 
ATOM     20  H   UNL     1       4.549   3.777  15.165  0.00  0.00    +0.000 HD
BRANCH  19  21
ATOM     21  C   UNL     1       6.338   4.338  14.204  0.00  0.00    +0.000 C 
BRANCH  21  22
ATOM     22  C   UNL     1       5.801   3.634  13.012  0.00  0.00    +0.000 A 
ATOM     23  C   UNL     1       4.588   3.708  12.357  0.00  0.00    +0.000 A 
ATOM     24  C   UNL     1       4.650   2.782  11.289  0.00  0.00    +0.000 A 
ATOM     25  C   UNL     1       5.892   2.195  11.364  0.00  0.00    +0.000 A 
ATOM     26  O   UNL     1       6.597   2.701  12.408  0.00  0.00    +0.000 OA
ENDBRANCH  21  22
ENDBRANCH  19  21
ENDBRANCH   1  18
TORSDOF 4
ENDMDL
MODEL 7
REMARK VINA RESULT:      -8.0      1.366      1.571
REMARK  Name = 
REMARK  4 active torsions:
REMARK  status: ('A' for Active; 'I' for Inactive)
REMARK    1  A    between atoms: C_2  and  C_10
REMARK    2  A    between atoms: N_3  and  C_4
REMARK    3  A    between atoms: C_4  and  C_5
REMARK    4  A    between atoms: C_12  and  C_13
REMARK                            x       y       z     vdW  Elec       q    Type
REMARK                         _______ _______ _______ _____ _____    ______ ____
ROOT
ATOM      1  C   UNL     1       3.793   5.858  18.794  0.00  0.00    +0.000 A 
ATOM      2  C   UNL     1       3.235   7.058  19.253  0.00  0.00    +0.000 A 
ATOM      3  C   UNL     1       2.063   7.022  19.994  0.00  0.00    +0.000 A 
ATOM      4  N   UNL     1       1.443   5.848  20.271  0.00  0.00    +0.000 NA
ATOM      5  C   UNL     1       1.956   4.695  19.813  0.00  0.00    +0.000 A 
ATOM      6  C   UNL     1       1.262   3.530  20.110  0.00  0.00    +0.000 A 
ATOM      7  C   UNL     1       1.701   2.276  19.684  0.00  0.00    +0.000 A 
ATOM      8  C   UNL     1       2.874   2.180  18.953  0.00  0.00    +0.000 A 
ATOM      9  C   UNL     1       3.593   3.337  18.652  0.00  0.00    +0.000 A 
ATOM     10  C   UNL     1       3.145   4.623  19.064  0.00  0.00    +0.000 A 
ENDROOT
BRANCH   3  11
ATOM     11  C   UNL     1       1.426   8.250  20.528  0.00  0.00    +0.000 A 
ATOM     12  C   UNL     1       1.058   9.315  19.704  0.00  0.00    +0.000 A 
ATOM     13  C   UNL     1       0.452  10.440  20.261  0.00  0.00    +0.000 A 
ATOM     14  C   UNL     1       0.230  10.483  21.630  0.00  0.00    +0.000 A 
ATOM     15  C   UNL     1       0.626   9.395  22.387  0.00  0.00    +0.000 A 
ATOM     16  N   UNL     1       1.211   8.289  21.873  0.00  0.00    +0.000 NA
ENDBRANCH   3  11
BRANCH   1  18
ATOM     17  O   UNL     1       5.181   6.764  17.091  0.00  0.00    +0.000 OA
ATOM     18  C   UNL     1       5.044   5.932  17.980  0.00  0.00    +0.000 C 
ATOM     19  N   UNL     1       6.033   5.014  18.275  0.00  0.00    +0.000 N 
ATOM     20  H   UNL     1       5.866   4.234  18.900  0.00  0.00    +0.000 HD
BRANCH  19  21
ATOM     21  C   UNL     1       7.217   4.950  17.450  0.00  0.00    +0.000 C 
BRANCH  21  22
ATOM     22  C   UNL     1       6.864   4.623  16.045  0.00  0.00    +0.000 A 
ATOM     23  C   UNL     1       5.999   3.698  15.495  0.00  0.00    +0.000 A 
ATOM     24  C   UNL     1       6.097   3.841  14.091  0.00  0.00    +0.000 A 
ATOM     25  C   UNL     1       7.019   4.837  13.871  0.00  0.00    +0.000 A 
ATOM     26  O   UNL     1       7.495   5.316  15.050  0.00  0.00    +0.000 OA
ENDBRANCH  21  22
ENDBRANCH  19  21
ENDBRANCH   1  18
TORSDOF 4
ENDMDL
MODEL 8
REMARK VINA RESULT:      -7.8      1.199      1.541
REMARK  Name = 
REMARK  4 active torsions:
REMARK  status: ('A' for Active; 'I' for Inactive)
REMARK    1  A    between atoms: C_2  and  C_10
REMARK    2  A    between atoms: N_3  and  C_4
REMARK    3  A    between atoms: C_4  and  C_5
REMARK    4  A    between atoms: C_12  and  C_13
REMARK                            x       y       z     vdW  Elec       q    Type
REMARK                         _______ _______ _______ _____ _____    ______ ____
ROOT
ATOM      1  C   UNL     1       4.528   6.017  18.221  0.00  0.00    +0.000 A 
ATOM      2  C   UNL     1       3.725   7.164  18.239  0.00  0.00    +0.000 A 
ATOM      3  C   UNL     1       2.572   7.174  19.008  0.00  0.00    +0.000 A 
ATOM      4  N   UNL     1       2.201   6.089  19.733  0.00  0.00    +0.000 NA
ATOM      5  C   UNL     1       2.949   4.975  19.702  0.00  0.00    +0.000 A 
ATOM      6  C   UNL     1       2.505   3.891  20.446  0.00  0.00    +0.000 A 
ATOM      7  C   UNL     1       3.201   2.683  20.486  0.00  0.00    +0.000 A 
ATOM      8  C   UNL     1       4.384   2.557  19.774  0.00  0.00    +0.000 A 
ATOM      9  C   UNL     1       4.854   3.637  19.028  0.00  0.00    +0.000 A 
ATOM     10  C   UNL     1       4.143   4.868  18.964  0.00  0.00    +0.000 A 
ENDROOT
BRANCH   3  11
ATOM     11  C   UNL     1       1.685   8.360  19.090  0.00  0.00    +0.000 A 
ATOM     12  C   UNL     1       1.121   8.785  20.294  0.00  0.00    +0.000 A 
ATOM     13  C   UNL     1       0.304   9.914  20.311  0.00  0.00    +0.000 A 
ATOM     14  C   UNL     1       0.060  10.594  19.126  0.00  0.00    +0.000 A 
ATOM     15  C   UNL     1       0.647  10.113  17.970  0.00  0.00    +0.000 A 
ATOM     16  N   UNL     1       1.448   9.024  17.924  0.00  0.00    +0.000 NA
ENDBRANCH   3  11
BRANCH   1  18
ATOM     17  O   UNL     1       6.626   6.876  17.512  0.00  0.00    +0.000 OA
ATOM     18  C   UNL     1       5.753   6.029  17.366  0.00  0.00    +0.000 C 
ATOM     19  N   UNL     1       5.849   5.045  16.402  0.00  0.00    +0.000 N 
ATOM     20  H   UNL     1       5.067   4.440  16.179  0.00  0.00    +0.000 HD
BRANCH  19  21
ATOM     21  C   UNL     1       6.946   5.069  15.463  0.00  0.00    +0.000 C 
BRANCH  21  22
ATOM     22  C   UNL     1       6.544   4.466  14.167  0.00  0.00    +0.000 A 
ATOM     23  C   UNL     1       5.455   3.703  13.794  0.00  0.00    +0.000 A 
ATOM     24  C   UNL     1       5.625   3.405  12.422  0.00  0.00    +0.000 A 
ATOM     25  C   UNL     1       6.809   3.995  12.045  0.00  0.00    +0.000 A 
ATOM     26  O   UNL     1       7.378   4.638  13.097  0.00  0.00    +0.000 OA
ENDBRANCH  21  22
ENDBRANCH  19  21
ENDBRANCH   1  18
TORSDOF 4
ENDMDL
MODEL 9
REMARK VINA RESULT:      -7.7      3.207      6.008
REMARK  Name = 
REMARK  4 active torsions:
REMARK  status: ('A' for Active; 'I' for Inactive)
REMARK    1  A    between atoms: C_2  and  C_10
REMARK    2  A    between atoms: N_3  and  C_4
REMARK    3  A    between atoms: C_4  and  C_5
REMARK    4  A    between atoms: C_12  and  C_13
REMARK                            x       y       z     vdW  Elec       q    Type
REMARK                         _______ _______ _______ _____ _____    ______ ____
ROOT
ATOM      1  C   UNL     1       6.332   5.128  17.907  0.00  0.00    +0.000 A 
ATOM      2  C   UNL     1       5.202   4.847  18.684  0.00  0.00    +0.000 A 
ATOM      3  C   UNL     1       4.095   4.263  18.087  0.00  0.00    +0.000 A 
ATOM      4  N   UNL     1       4.085   3.970  16.763  0.00  0.00    +0.000 NA
ATOM      5  C   UNL     1       5.153   4.258  16.003  0.00  0.00    +0.000 A 
ATOM      6  C   UNL     1       5.072   3.956  14.652  0.00  0.00    +0.000 A 
ATOM      7  C   UNL     1       6.121   4.214  13.768  0.00  0.00    +0.000 A 
ATOM      8  C   UNL     1       7.291   4.778  14.251  0.00  0.00    +0.000 A 
ATOM      9  C   UNL     1       7.398   5.081  15.608  0.00  0.00    +0.000 A 
ATOM     10  C   UNL     1       6.328   4.840  16.515  0.00  0.00    +0.000 A 
ENDROOT
BRANCH   3  11
ATOM     11  C   UNL     1       2.872   3.921  18.851  0.00  0.00    +0.000 A 
ATOM     12  C   UNL     1       2.355   4.758  19.841  0.00  0.00    +0.000 A 
ATOM     13  C   UNL     1       1.194   4.389  20.519  0.00  0.00    +0.000 A 
ATOM     14  C   UNL     1       0.575   3.189  20.201  0.00  0.00    +0.000 A 
ATOM     15  C   UNL     1       1.145   2.406  19.213  0.00  0.00    +0.000 A 
ATOM     16  N   UNL     1       2.266   2.741  18.535  0.00  0.00    +0.000 NA
ENDBRANCH   3  11
BRANCH   1  18
ATOM     17  O   UNL     1       8.249   5.147  19.310  0.00  0.00    +0.000 OA
ATOM     18  C   UNL     1       7.501   5.779  18.575  0.00  0.00    +0.000 C 
ATOM     19  N   UNL     1       7.690   7.124  18.326  0.00  0.00    +0.000 N 
ATOM     20  H   UNL     1       6.993   7.679  17.843  0.00  0.00    +0.000 HD
BRANCH  19  21
ATOM     21  C   UNL     1       8.725   7.842  19.031  0.00  0.00    +0.000 C 
BRANCH  21  22
ATOM     22  C   UNL     1       8.711   9.281  18.666  0.00  0.00    +0.000 A 
ATOM     23  C   UNL     1       8.137   9.969  17.616  0.00  0.00    +0.000 A 
ATOM     24  C   UNL     1       8.480  11.330  17.791  0.00  0.00    +0.000 A 
ATOM     25  C   UNL     1       9.248  11.388  18.931  0.00  0.00    +0.000 A 
ATOM     26  O   UNL     1       9.399  10.149  19.468  0.00  0.00    +0.000 OA
ENDBRANCH  21  22
ENDBRANCH  19  21
ENDBRANCH   1  18
TORSDOF 4
ENDMDL
