MODEL 1
REMARK VINA RESULT:      -7.9      0.000      0.000
REMARK  Name = 
REMARK  6 active torsions:
REMARK  status: ('A' for Active; 'I' for Inactive)
REMARK    1  A    between atoms: O_1  and  C_2
REMARK    2  A    between atoms: C_2  and  C_3
REMARK    3  A    between atoms: N_5  and  C_6
REMARK    4  A    between atoms: C_6  and  C_7
REMARK    5  A    between atoms: C_15  and  N_16
REMARK    6  A    between atoms: N_21  and  C_22
REMARK                            x       y       z     vdW  Elec       q    Type
REMARK                         _______ _______ _______ _____ _____    ______ ____
ROOT
ATOM      1  C   UNL     1       3.221   3.345  17.874  0.00  0.00    +0.000 C 
ATOM      2  C   UNL     1       4.409   2.959  18.785  0.00  0.00    +0.000 C 
ATOM      3  N   UNL     1       5.328   4.095  19.054  0.00  0.00    +0.000 NA
ATOM      4  C   UNL     1       4.500   5.189  19.620  0.00  0.00    +0.000 C 
ATOM      5  C   UNL     1       3.277   5.574  18.753  0.00  0.00    +0.000 C 
ATOM      6  O   UNL     1       2.459   4.429  18.443  0.00  0.00    +0.000 OA
ENDROOT
BRANCH   5   7
ATOM      7  N   UNL     1       2.443   6.546  19.441  0.00  0.00    +0.000 N 
ATOM      8  C   UNL     1       1.843   6.388  20.662  0.00  0.00    +0.000 A 
ATOM      9  N   UNL     1       1.196   7.473  21.036  0.00  0.00    +0.000 NA
ATOM     10  C   UNL     1       1.393   8.370  20.006  0.00  0.00    +0.000 A 
ATOM     11  C   UNL     1       0.951   9.695  19.818  0.00  0.00    +0.000 A 
ATOM     12  N   UNL     1       0.181  10.335  20.803  0.00  0.00    +0.000 N 
ATOM     13  N   UNL     1       1.315  10.321  18.666  0.00  0.00    +0.000 NA
ATOM     14  C   UNL     1       2.090   9.655  17.779  0.00  0.00    +0.000 A 
ATOM     15  N   UNL     1       2.564   8.395  17.858  0.00  0.00    +0.000 NA
ATOM     16  C   UNL     1       2.168   7.812  19.002  0.00  0.00    +0.000 A 
ATOM     17  H   UNL     1      -0.086   9.666  21.522  0.00  0.00    +0.000 HD
BRANCH  12  18
ATOM     18  C   UNL     1      -0.734  11.409  20.445  0.00  0.00    +0.000 C 
ATOM     19  C   UNL     1      -1.613  12.069  21.470  0.00  0.00    +0.000 C 
ATOM     20  C   UNL     1      -0.441  12.812  20.902  0.00  0.00    +0.000 C 
ENDBRANCH  12  18
ENDBRANCH   5   7
BRANCH   1  21
ATOM     21  C   UNL     1       2.279   2.158  17.628  0.00  0.00    +0.000 C 
BRANCH  21  22
ATOM     22  O   UNL     1       1.457   1.899  18.761  0.00  0.00    +0.000 OA
ATOM     23  H   UNL     1       0.625   2.384  18.626  0.00  0.00    +0.000 HD
ENDBRANCH  21  22
ENDBRANCH   1  21
BRANCH   3  24
ATOM     24  C   UNL     1       6.054   4.491  17.831  0.00  0.00    +0.000 C 
BRANCH  24  25
ATOM     25  C   UNL     1       6.749   5.831  17.934  0.00  0.00    +0.000 A 
ATOM     26  C   UNL     1       6.379   6.893  17.101  0.00  0.00    +0.000 A 
ATOM     27  C   UNL     1       7.037   8.123  17.189  0.00  0.00    +0.000 A 
ATOM     28  C   UNL     1       8.065   8.293  18.112  0.00  0.00    +0.000 A 
ATOM     29 CL   UNL     1       8.885   9.803  18.210  0.00  0.00    +0.000 Cl
ATOM     30  C   UNL     1       8.437   7.250  18.956  0.00  0.00    +0.000 A 
ATOM     31  C   UNL     1       7.782   6.022  18.868  0.00  0.00    +0.000 A 
ENDBRANCH  24  25
ENDBRANCH   3  24
TORSDOF 6
ENDMDL
MODEL 2
REMARK VINA RESULT:      -7.7      0.900      1.311
REMARK  Name = 
REMARK  6 active torsions:
REMARK  status: ('A' for Active; 'I' for Inactive)
REMARK    1  A    between atoms: O_1  and  C_2
REMARK    2  A    between atoms: C_2  and  C_3
REMARK    3  A    between atoms: N_5  and  C_6
REMARK    4  A    between atoms: C_6  and  C_7
REMARK    5  A    between atoms: C_15  and  N_16
REMARK    6  A    between atoms: N_21  and  C_22
REMARK                            x       y       z     vdW  Elec       q    Type
REMARK                         _______ _______ _______ _____ _____    ______ ____
ROOT
ATOM      1  C   UNL     1       2.162   3.369  18.570  0.00  0.00    +0.000 C 
ATOM      2  C   UNL     1       3.362   2.919  19.437  0.00  0.00    +0.000 C 
ATOM      3  N   UNL     1       4.450   3.929  19.491  0.00  0.00    +0.000 NA
ATOM      4  C   UNL     1       3.836   5.193  19.969  0.00  0.00    +0.000 C 
ATOM      5  C   UNL     1       2.606   5.652  19.149  0.00  0.00    +0.000 C 
ATOM      6  O   UNL     1       1.613   4.613  19.047  0.00  0.00    +0.000 OA
ENDROOT
BRANCH   5   7
ATOM      7  N   UNL     1       1.981   6.811  19.763  0.00  0.00    +0.000 N 
ATOM      8  C   UNL     1       1.449   6.880  21.024  0.00  0.00    +0.000 A 
ATOM      9  N   UNL     1       1.003   8.087  21.305  0.00  0.00    +0.000 NA
ATOM     10  C   UNL     1       1.262   8.829  20.171  0.00  0.00    +0.000 A 
ATOM     11  C   UNL     1       1.016  10.180  19.855  0.00  0.00    +0.000 A 
ATOM     12  N   UNL     1       0.424  11.034  20.800  0.00  0.00    +0.000 N 
ATOM     13  N   UNL     1       1.391  10.616  18.622  0.00  0.00    +0.000 NA
ATOM     14  C   UNL     1       1.992   9.745  17.778  0.00  0.00    +0.000 A 
ATOM     15  N   UNL     1       2.273   8.441  17.975  0.00  0.00    +0.000 NA
ATOM     16  C   UNL     1       1.872   8.052  19.198  0.00  0.00    +0.000 A 
ATOM     17  H   UNL     1       0.108  10.495  21.603  0.00  0.00    +0.000 HD
BRANCH  12  18
ATOM     18  C   UNL     1      -0.340  12.197  20.369  0.00  0.00    +0.000 C 
ATOM     19  C   UNL     1      -1.724  12.063  19.799  0.00  0.00    +0.000 C 
ATOM     20  C   UNL     1      -1.535  12.633  21.173  0.00  0.00    +0.000 C 
ENDBRANCH  12  18
ENDBRANCH   5   7
BRANCH   1  21
ATOM     21  C   UNL     1       1.046   2.315  18.545  0.00  0.00    +0.000 C 
BRANCH  21  22
ATOM     22  O   UNL     1       0.116   2.515  19.604  0.00  0.00    +0.000 OA
ATOM     23  H   UNL     1      -0.327   3.365  19.437  0.00  0.00    +0.000 HD
ENDBRANCH  21  22
ENDBRANCH   1  21
BRANCH   3  24
ATOM     24  C   UNL     1       5.113   4.067  18.179  0.00  0.00    +0.000 C 
BRANCH  24  25
ATOM     25  C   UNL     1       5.983   5.299  18.055  0.00  0.00    +0.000 A 
ATOM     26  C   UNL     1       7.157   5.422  18.808  0.00  0.00    +0.000 A 
ATOM     27  C   UNL     1       7.947   6.570  18.702  0.00  0.00    +0.000 A 
ATOM     28  C   UNL     1       7.565   7.595  17.841  0.00  0.00    +0.000 A 
ATOM     29 CL   UNL     1       8.531   9.014  17.722  0.00  0.00    +0.000 Cl
ATOM     30  C   UNL     1       6.408   7.482  17.076  0.00  0.00    +0.000 A 
ATOM     31  C   UNL     1       5.617   6.338  17.182  0.00  0.00    +0.000 A 
ENDBRANCH  24  25
ENDBRANCH   3  24
TORSDOF 6
ENDMDL
MODEL 3
REMARK VINA RESULT:      -7.5      2.356      3.089
REMARK  Name = 
REMARK  6 active torsions:
REMARK  status: ('A' for Active; 'I' for Inactive)
REMARK    1  A    between atoms: O_1  and  C_2
REMARK    2  A    between atoms: C_2  and  C_3
REMARK    3  A    between atoms: N_5  and  C_6
REMARK    4  A    between atoms: C_6  and  C_7
REMARK    5  A    between atoms: C_15  and  N_16
REMARK    6  A    between atoms: N_21  and  C_22
REMARK                            x       y       z     vdW  Elec       q    Type
REMARK                         _______ _______ _______ _____ _____    ______ ____
ROOT
ATOM      1  C   UNL     1       2.245   3.986  19.882  0.00  0.00    +0.000 C 
ATOM      2  C   UNL     1       3.761   3.852  20.157  0.00  0.00    +0.000 C 
ATOM      3  N   UNL     1       4.600   4.395  19.058  0.00  0.00    +0.000 NA
ATOM      4  C   UNL     1       4.174   5.802  18.851  0.00  0.00    +0.000 C 
ATOM      5  C   UNL     1       2.655   5.977  18.613  0.00  0.00    +0.000 C 
ATOM      6  O   UNL     1       1.876   5.361  19.657  0.00  0.00    +0.000 OA
ENDROOT
BRANCH   5   7
ATOM      7  N   UNL     1       2.301   7.386  18.563  0.00  0.00    +0.000 N 
ATOM      8  C   UNL     1       2.390   8.212  17.474  0.00  0.00    +0.000 A 
ATOM      9  N   UNL     1       1.942   9.423  17.737  0.00  0.00    +0.000 NA
ATOM     10  C   UNL     1       1.546   9.370  19.057  0.00  0.00    +0.000 A 
ATOM     11  C   UNL     1       0.989  10.344  19.910  0.00  0.00    +0.000 A 
ATOM     12  N   UNL     1       0.721  11.638  19.434  0.00  0.00    +0.000 N 
ATOM     13  N   UNL     1       0.711   9.974  21.190  0.00  0.00    +0.000 NA
ATOM     14  C   UNL     1       0.961   8.699  21.568  0.00  0.00    +0.000 A 
ATOM     15  N   UNL     1       1.488   7.694  20.839  0.00  0.00    +0.000 NA
ATOM     16  C   UNL     1       1.761   8.109  19.591  0.00  0.00    +0.000 A 
ATOM     17  H   UNL     1       1.111  11.750  18.500  0.00  0.00    +0.000 HD
BRANCH  12  18
ATOM     18  C   UNL     1       0.700  12.773  20.345  0.00  0.00    +0.000 C 
ATOM     19  C   UNL     1       1.957  13.509  20.714  0.00  0.00    +0.000 C 
ATOM     20  C   UNL     1       0.952  14.156  19.807  0.00  0.00    +0.000 C 
ENDBRANCH  12  18
ENDBRANCH   5   7
BRANCH   1  21
ATOM     21  C   UNL     1       1.402   3.434  21.040  0.00  0.00    +0.000 C 
BRANCH  21  22
ATOM     22  O   UNL     1       2.223   2.949  22.098  0.00  0.00    +0.000 OA
ATOM     23  H   UNL     1       2.598   3.727  22.547  0.00  0.00    +0.000 HD
ENDBRANCH  21  22
ENDBRANCH   1  21
BRANCH   3  24
ATOM     24  C   UNL     1       4.481   3.568  17.841  0.00  0.00    +0.000 C 
BRANCH  24  25
ATOM     25  C   UNL     1       5.346   4.037  16.691  0.00  0.00    +0.000 A 
ATOM     26  C   UNL     1       4.845   4.059  15.384  0.00  0.00    +0.000 A 
ATOM     27  C   UNL     1       5.655   4.475  14.324  0.00  0.00    +0.000 A 
ATOM     28  C   UNL     1       6.967   4.872  14.570  0.00  0.00    +0.000 A 
ATOM     29 CL   UNL     1       7.968   5.371  13.262  0.00  0.00    +0.000 Cl
ATOM     30  C   UNL     1       7.476   4.867  15.866  0.00  0.00    +0.000 A 
ATOM     31  C   UNL     1       6.669   4.450  16.924  0.00  0.00    +0.000 A 
ENDBRANCH  24  25
ENDBRANCH   3  24
TORSDOF 6
ENDMDL
MODEL 4
REMARK VINA RESULT:      -7.3      2.237      2.767
REMARK  Name = 
REMARK  6 active torsions:
REMARK  status: ('A' for Active; 'I' for Inactive)
REMARK    1  A    between atoms: O_1  and  C_2
REMARK    2  A    between atoms: C_2  and  C_3
REMARK    3  A    between atoms: N_5  and  C_6
REMARK    4  A    between atoms: C_6  and  C_7
REMARK    5  A    between atoms: C_15  and  N_16
REMARK    6  A    between atoms: N_21  and  C_22
REMARK                            x       y       z     vdW  Elec       q    Type
REMARK                         _______ _______ _______ _____ _____    ______ ____
ROOT
ATOM      1  C   UNL     1       2.998   3.345  20.224  0.00  0.00    +0.000 C 
ATOM      2  C   UNL     1       4.502   3.568  19.939  0.00  0.00    +0.000 C 
ATOM      3  N   UNL     1       4.747   4.528  18.833  0.00  0.00    +0.000 NA
ATOM      4  C   UNL     1       4.036   5.782  19.190  0.00  0.00    +0.000 C 
ATOM      5  C   UNL     1       2.536   5.589  19.521  0.00  0.00    +0.000 C 
ATOM      6  O   UNL     1       2.337   4.587  20.537  0.00  0.00    +0.000 OA
ENDROOT
BRANCH   5   7
ATOM      7  N   UNL     1       1.950   6.831  19.997  0.00  0.00    +0.000 N 
ATOM      8  C   UNL     1       1.443   7.069  21.247  0.00  0.00    +0.000 A 
ATOM      9  N   UNL     1       1.032   8.313  21.383  0.00  0.00    +0.000 NA
ATOM     10  C   UNL     1       1.289   8.902  20.162  0.00  0.00    +0.000 A 
ATOM     11  C   UNL     1       1.071  10.210  19.686  0.00  0.00    +0.000 A 
ATOM     12  N   UNL     1       0.517  11.189  20.526  0.00  0.00    +0.000 N 
ATOM     13  N   UNL     1       1.435  10.481  18.403  0.00  0.00    +0.000 NA
ATOM     14  C   UNL     1       1.999   9.497  17.664  0.00  0.00    +0.000 A 
ATOM     15  N   UNL     1       2.251   8.220  18.017  0.00  0.00    +0.000 NA
ATOM     16  C   UNL     1       1.862   7.995  19.284  0.00  0.00    +0.000 A 
ATOM     17  H   UNL     1       0.201  10.762  21.394  0.00  0.00    +0.000 HD
BRANCH  12  18
ATOM     18  C   UNL     1      -0.226  12.310  19.967  0.00  0.00    +0.000 C 
ATOM     19  C   UNL     1      -1.632  12.150  19.463  0.00  0.00    +0.000 C 
ATOM     20  C   UNL     1      -1.378  12.892  20.741  0.00  0.00    +0.000 C 
ENDBRANCH  12  18
ENDBRANCH   5   7
BRANCH   1  21
ATOM     21  C   UNL     1       2.774   2.362  21.381  0.00  0.00    +0.000 C 
BRANCH  21  22
ATOM     22  O   UNL     1       1.576   2.657  22.092  0.00  0.00    +0.000 OA
ATOM     23  H   UNL     1       1.255   1.820  22.470  0.00  0.00    +0.000 HD
ENDBRANCH  21  22
ENDBRANCH   1  21
BRANCH   3  24
ATOM     24  C   UNL     1       4.317   3.968  17.537  0.00  0.00    +0.000 C 
BRANCH  24  25
ATOM     25  C   UNL     1       5.255   4.275  16.391  0.00  0.00    +0.000 A 
ATOM     26  C   UNL     1       6.504   4.862  16.628  0.00  0.00    +0.000 A 
ATOM     27  C   UNL     1       7.358   5.160  15.563  0.00  0.00    +0.000 A 
ATOM     28  C   UNL     1       6.966   4.869  14.259  0.00  0.00    +0.000 A 
ATOM     29 CL   UNL     1       8.013   5.249  12.947  0.00  0.00    +0.000 Cl
ATOM     30  C   UNL     1       5.733   4.274  14.007  0.00  0.00    +0.000 A 
ATOM     31  C   UNL     1       4.878   3.978  15.070  0.00  0.00    +0.000 A 
ENDBRANCH  24  25
ENDBRANCH   3  24
TORSDOF 6
ENDMDL
MODEL 5
REMARK VINA RESULT:      -7.3      2.327      3.158
REMARK  Name = 
REMARK  6 active torsions:
REMARK  status: ('A' for Active; 'I' for Inactive)
REMARK    1  A    between atoms: O_1  and  C_2
REMARK    2  A    between atoms: C_2  and  C_3
REMARK    3  A    between atoms: N_5  and  C_6
REMARK    4  A    between atoms: C_6  and  C_7
REMARK    5  A    between atoms: C_15  and  N_16
REMARK    6  A    between atoms: N_21  and  C_22
REMARK                            x       y       z     vdW  Elec       q    Type
REMARK                         _______ _______ _______ _____ _____    ______ ____
ROOT
ATOM      1  C   UNL     1       2.251   3.953  19.845  0.00  0.00    +0.000 C 
ATOM      2  C   UNL     1       3.771   3.813  20.098  0.00  0.00    +0.000 C 
ATOM      3  N   UNL     1       4.596   4.368  18.994  0.00  0.00    +0.000 NA
ATOM      4  C   UNL     1       4.170   5.779  18.811  0.00  0.00    +0.000 C 
ATOM      5  C   UNL     1       2.648   5.959  18.596  0.00  0.00    +0.000 C 
ATOM      6  O   UNL     1       1.882   5.331  19.643  0.00  0.00    +0.000 OA
ENDROOT
BRANCH   5   7
ATOM      7  N   UNL     1       2.296   7.369  18.569  0.00  0.00    +0.000 N 
ATOM      8  C   UNL     1       2.370   8.209  17.489  0.00  0.00    +0.000 A 
ATOM      9  N   UNL     1       1.928   9.417  17.773  0.00  0.00    +0.000 NA
ATOM     10  C   UNL     1       1.551   9.348  19.099  0.00  0.00    +0.000 A 
ATOM     11  C   UNL     1       1.009  10.313  19.972  0.00  0.00    +0.000 A 
ATOM     12  N   UNL     1       0.736  11.612  19.516  0.00  0.00    +0.000 N 
ATOM     13  N   UNL     1       0.749   9.926  21.251  0.00  0.00    +0.000 NA
ATOM     14  C   UNL     1       1.001   8.646  21.609  0.00  0.00    +0.000 A 
ATOM     15  N   UNL     1       1.517   7.650  20.861  0.00  0.00    +0.000 NA
ATOM     16  C   UNL     1       1.772   8.080  19.613  0.00  0.00    +0.000 A 
ATOM     17  H   UNL     1       1.113  11.736  18.578  0.00  0.00    +0.000 HD
BRANCH  12  18
ATOM     18  C   UNL     1       0.731  12.736  20.441  0.00  0.00    +0.000 C 
ATOM     19  C   UNL     1       0.340  14.118  20.000  0.00  0.00    +0.000 C 
ATOM     20  C   UNL     1      -0.583  13.326  20.878  0.00  0.00    +0.000 C 
ENDBRANCH  12  18
ENDBRANCH   5   7
BRANCH   1  21
ATOM     21  C   UNL     1       1.424   3.387  21.008  0.00  0.00    +0.000 C 
BRANCH  21  22
ATOM     22  O   UNL     1       2.209   3.244  22.187  0.00  0.00    +0.000 OA
ATOM     23  H   UNL     1       2.042   2.350  22.533  0.00  0.00    +0.000 HD
ENDBRANCH  21  22
ENDBRANCH   1  21
BRANCH   3  24
ATOM     24  C   UNL     1       4.459   3.558  17.768  0.00  0.00    +0.000 C 
BRANCH  24  25
ATOM     25  C   UNL     1       5.352   4.004  16.631  0.00  0.00    +0.000 A 
ATOM     26  C   UNL     1       6.667   4.416  16.876  0.00  0.00    +0.000 A 
ATOM     27  C   UNL     1       7.480   4.845  15.823  0.00  0.00    +0.000 A 
ATOM     28  C   UNL     1       6.979   4.860  14.524  0.00  0.00    +0.000 A 
ATOM     29 CL   UNL     1       7.977   5.402  13.230  0.00  0.00    +0.000 Cl
ATOM     30  C   UNL     1       5.678   4.442  14.263  0.00  0.00    +0.000 A 
ATOM     31  C   UNL     1       4.865   4.016  15.313  0.00  0.00    +0.000 A 
ENDBRANCH  24  25
ENDBRANCH   3  24
TORSDOF 6
ENDMDL
MODEL 6
REMARK VINA RESULT:      -7.1      2.421      2.807
REMARK  Name = 
REMARK  6 active torsions:
REMARK  status: ('A' for Active; 'I' for Inactive)
REMARK    1  A    between atoms: O_1  and  C_2
REMARK    2  A    between atoms: C_2  and  C_3
REMARK    3  A    between atoms: N_5  and  C_6
REMARK    4  A    between atoms: C_6  and  C_7
REMARK    5  A    between atoms: C_15  and  N_16
REMARK    6  A    between atoms: N_21  and  C_22
REMARK                            x       y       z     vdW  Elec       q    Type
REMARK                         _______ _______ _______ _____ _____    ______ ____
ROOT
ATOM      1  C   UNL     1       2.020   3.716  20.185  0.00  0.00    +0.000 C 
ATOM      2  C   UNL     1       3.557   3.694  20.010  0.00  0.00    +0.000 C 
ATOM      3  N   UNL     1       4.040   4.673  19.002  0.00  0.00    +0.000 NA
ATOM      4  C   UNL     1       3.527   6.002  19.418  0.00  0.00    +0.000 C 
ATOM      5  C   UNL     1       1.996   6.050  19.642  0.00  0.00    +0.000 C 
ATOM      6  O   UNL     1       1.557   5.029  20.559  0.00  0.00    +0.000 OA
ENDROOT
BRANCH   5   7
ATOM      7  N   UNL     1       1.595   7.339  20.183  0.00  0.00    +0.000 N 
ATOM      8  C   UNL     1       1.223   7.603  21.474  0.00  0.00    +0.000 A 
ATOM      9  N   UNL     1       0.967   8.881  21.661  0.00  0.00    +0.000 NA
ATOM     10  C   UNL     1       1.187   9.466  20.431  0.00  0.00    +0.000 A 
ATOM     11  C   UNL     1       1.078  10.801  19.992  0.00  0.00    +0.000 A 
ATOM     12  N   UNL     1       0.709  11.816  20.889  0.00  0.00    +0.000 N 
ATOM     13  N   UNL     1       1.362  11.058  18.687  0.00  0.00    +0.000 NA
ATOM     14  C   UNL     1       1.749  10.035  17.890  0.00  0.00    +0.000 A 
ATOM     15  N   UNL     1       1.884   8.730  18.203  0.00  0.00    +0.000 NA
ATOM     16  C   UNL     1       1.579   8.521  19.495  0.00  0.00    +0.000 A 
ATOM     17  H   UNL     1       0.421  11.407  21.776  0.00  0.00    +0.000 HD
BRANCH  12  18
ATOM     18  C   UNL     1       0.054  13.024  20.410  0.00  0.00    +0.000 C 
ATOM     19  C   UNL     1      -1.429  13.073  20.169  0.00  0.00    +0.000 C 
ATOM     20  C   UNL     1      -0.839  13.799  21.342  0.00  0.00    +0.000 C 
ENDBRANCH  12  18
ENDBRANCH   5   7
BRANCH   1  21
ATOM     21  C   UNL     1       1.550   2.708  21.243  0.00  0.00    +0.000 C 
BRANCH  21  22
ATOM     22  O   UNL     1       2.552   2.479  22.228  0.00  0.00    +0.000 OA
ATOM     23  H   UNL     1       3.388   2.826  21.870  0.00  0.00    +0.000 HD
ENDBRANCH  21  22
ENDBRANCH   1  21
BRANCH   3  24
ATOM     24  C   UNL     1       3.617   4.288  17.642  0.00  0.00    +0.000 C 
BRANCH  24  25
ATOM     25  C   UNL     1       4.659   4.548  16.576  0.00  0.00    +0.000 A 
ATOM     26  C   UNL     1       5.328   3.485  15.958  0.00  0.00    +0.000 A 
ATOM     27  C   UNL     1       6.302   3.733  14.987  0.00  0.00    +0.000 A 
ATOM     28  C   UNL     1       6.606   5.044  14.630  0.00  0.00    +0.000 A 
ATOM     29 CL   UNL     1       7.816   5.349  13.445  0.00  0.00    +0.000 Cl
ATOM     30  C   UNL     1       5.941   6.112  15.227  0.00  0.00    +0.000 A 
ATOM     31  C   UNL     1       4.970   5.866  16.198  0.00  0.00    +0.000 A 
ENDBRANCH  24  25
ENDBRANCH   3  24
TORSDOF 6
ENDMDL
MODEL 7
REMARK VINA RESULT:      -7.0      2.483      2.843
REMARK  Name = 
REMARK  6 active torsions:
REMARK  status: ('A' for Active; 'I' for Inactive)
REMARK    1  A    between atoms: O_1  and  C_2
REMARK    2  A    between atoms: C_2  and  C_3
REMARK    3  A    between atoms: N_5  and  C_6
REMARK    4  A    between atoms: C_6  and  C_7
REMARK    5  A    between atoms: C_15  and  N_16
REMARK    6  A    between atoms: N_21  and  C_22
REMARK                            x       y       z     vdW  Elec       q    Type
REMARK                         _______ _______ _______ _____ _____    ______ ____
ROOT
ATOM      1  C   UNL     1       1.932   3.856  20.275  0.00  0.00    +0.000 C 
ATOM      2  C   UNL     1       3.470   3.814  20.113  0.00  0.00    +0.000 C 
ATOM      3  N   UNL     1       3.973   4.774  19.097  0.00  0.00    +0.000 NA
ATOM      4  C   UNL     1       3.472   6.115  19.492  0.00  0.00    +0.000 C 
ATOM      5  C   UNL     1       1.940   6.183  19.703  0.00  0.00    +0.000 C 
ATOM      6  O   UNL     1       1.482   5.179  20.629  0.00  0.00    +0.000 OA
ENDROOT
BRANCH   5   7
ATOM      7  N   UNL     1       1.550   7.483  20.224  0.00  0.00    +0.000 N 
ATOM      8  C   UNL     1       1.184   7.771  21.512  0.00  0.00    +0.000 A 
ATOM      9  N   UNL     1       0.939   9.054  21.679  0.00  0.00    +0.000 NA
ATOM     10  C   UNL     1       1.158   9.617  20.439  0.00  0.00    +0.000 A 
ATOM     11  C   UNL     1       1.058  10.945  19.979  0.00  0.00    +0.000 A 
ATOM     12  N   UNL     1       0.699  11.978  20.861  0.00  0.00    +0.000 N 
ATOM     13  N   UNL     1       1.339  11.179  18.669  0.00  0.00    +0.000 NA
ATOM     14  C   UNL     1       1.716  10.141  17.887  0.00  0.00    +0.000 A 
ATOM     15  N   UNL     1       1.843   8.841  18.221  0.00  0.00    +0.000 NA
ATOM     16  C   UNL     1       1.541   8.655  19.518  0.00  0.00    +0.000 A 
ATOM     17  H   UNL     1       0.411  11.585  21.755  0.00  0.00    +0.000 HD
BRANCH  12  18
ATOM     18  C   UNL     1       0.051  13.183  20.364  0.00  0.00    +0.000 C 
ATOM     19  C   UNL     1      -0.278  14.332  21.275  0.00  0.00    +0.000 C 
ATOM     20  C   UNL     1       0.837  14.463  20.280  0.00  0.00    +0.000 C 
ENDBRANCH  12  18
ENDBRANCH   5   7
BRANCH   1  21
ATOM     21  C   UNL     1       1.441   2.867  21.342  0.00  0.00    +0.000 C 
BRANCH  21  22
ATOM     22  O   UNL     1       2.494   2.480  22.218  0.00  0.00    +0.000 OA
ATOM     23  H   UNL     1       2.328   1.557  22.473  0.00  0.00    +0.000 HD
ENDBRANCH  21  22
ENDBRANCH   1  21
BRANCH   3  24
ATOM     24  C   UNL     1       3.556   4.377  17.738  0.00  0.00    +0.000 C 
BRANCH  24  25
ATOM     25  C   UNL     1       4.611   4.609  16.678  0.00  0.00    +0.000 A 
ATOM     26  C   UNL     1       4.901   5.904  16.231  0.00  0.00    +0.000 A 
ATOM     27  C   UNL     1       5.863   6.109  15.239  0.00  0.00    +0.000 A 
ATOM     28  C   UNL     1       6.538   5.020  14.693  0.00  0.00    +0.000 A 
ATOM     29 CL   UNL     1       7.712   5.273  13.460  0.00  0.00    +0.000 Cl
ATOM     30  C   UNL     1       6.269   3.728  15.135  0.00  0.00    +0.000 A 
ATOM     31  C   UNL     1       5.307   3.521  16.124  0.00  0.00    +0.000 A 
ENDBRANCH  24  25
ENDBRANCH   3  24
TORSDOF 6
ENDMDL
MODEL 8
REMARK VINA RESULT:      -7.0      4.083      9.340
REMARK  Name = 
REMARK  6 active torsions:
REMARK  status: ('A' for Active; 'I' for Inactive)
REMARK    1  A    between atoms: O_1  and  C_2
REMARK    2  A    between atoms: C_2  and  C_3
REMARK    3  A    between atoms: N_5  and  C_6
REMARK    4  A    between atoms: C_6  and  C_7
REMARK    5  A    between atoms: C_15  and  N_16
REMARK    6  A    between atoms: N_21  and  C_22
REMARK                            x       y       z     vdW  Elec       q    Type
REMARK                         _______ _______ _______ _____ _____    ______ ____
ROOT
ATOM      1  C   UNL     1      -1.647  11.097  19.178  0.00  0.00    +0.000 C 
ATOM      2  C   UNL     1      -0.975  12.375  19.733  0.00  0.00    +0.000 C 
ATOM      3  N   UNL     1       0.026  12.090  20.793  0.00  0.00    +0.000 NA
ATOM      4  C   UNL     1       1.001  11.132  20.212  0.00  0.00    +0.000 C 
ATOM      5  C   UNL     1       0.359   9.859  19.610  0.00  0.00    +0.000 C 
ATOM      6  O   UNL     1      -0.668  10.180  18.651  0.00  0.00    +0.000 OA
ENDROOT
BRANCH   5   7
ATOM      7  N   UNL     1       1.359   9.046  18.939  0.00  0.00    +0.000 N 
ATOM      8  C   UNL     1       2.007   9.347  17.769  0.00  0.00    +0.000 A 
ATOM      9  N   UNL     1       2.897   8.430  17.449  0.00  0.00    +0.000 NA
ATOM     10  C   UNL     1       2.817   7.496  18.462  0.00  0.00    +0.000 A 
ATOM     11  C   UNL     1       3.510   6.289  18.683  0.00  0.00    +0.000 A 
ATOM     12  N   UNL     1       4.505   5.866  17.787  0.00  0.00    +0.000 N 
ATOM     13  N   UNL     1       3.188   5.575  19.796  0.00  0.00    +0.000 NA
ATOM     14  C   UNL     1       2.245   6.064  20.634  0.00  0.00    +0.000 A 
ATOM     15  N   UNL     1       1.525   7.199  20.519  0.00  0.00    +0.000 NA
ATOM     16  C   UNL     1       1.865   7.862  19.401  0.00  0.00    +0.000 A 
ATOM     17  H   UNL     1       4.508   6.466  16.965  0.00  0.00    +0.000 HD
BRANCH  12  18
ATOM     18  C   UNL     1       4.821   4.452  17.646  0.00  0.00    +0.000 C 
ATOM     19  C   UNL     1       3.853   3.488  17.019  0.00  0.00    +0.000 C 
ATOM     20  C   UNL     1       5.093   3.890  16.277  0.00  0.00    +0.000 C 
ENDBRANCH  12  18
ENDBRANCH   5   7
BRANCH   1  21
ATOM     21  C   UNL     1      -2.664  11.419  18.074  0.00  0.00    +0.000 C 
BRANCH  21  22
ATOM     22  O   UNL     1      -3.684  12.295  18.542  0.00  0.00    +0.000 OA
ATOM     23  H   UNL     1      -4.526  11.813  18.478  0.00  0.00    +0.000 HD
ENDBRANCH  21  22
ENDBRANCH   1  21
BRANCH   3  24
ATOM     24  C   UNL     1      -0.624  11.584  22.017  0.00  0.00    +0.000 C 
BRANCH  24  25
ATOM     25  C   UNL     1      -1.383  12.638  22.792  0.00  0.00    +0.000 A 
ATOM     26  C   UNL     1      -0.794  13.876  23.078  0.00  0.00    +0.000 A 
ATOM     27  C   UNL     1      -1.494  14.838  23.811  0.00  0.00    +0.000 A 
ATOM     28  C   UNL     1      -2.785  14.566  24.256  0.00  0.00    +0.000 A 
ATOM     29 CL   UNL     1      -3.640  15.746  25.170  0.00  0.00    +0.000 Cl
ATOM     30  C   UNL     1      -3.389  13.344  23.970  0.00  0.00    +0.000 A 
ATOM     31  C   UNL     1      -2.691  12.382  23.240  0.00  0.00    +0.000 A 
ENDBRANCH  24  25
ENDBRANCH   3  24
TORSDOF 6
ENDMDL
MODEL 9
REMARK VINA RESULT:      -6.9      4.734      7.374
REMARK  Name = 
REMARK  6 active torsions:
REMARK  status: ('A' for Active; 'I' for Inactive)
REMARK    1  A    between atoms: O_1  and  C_2
REMARK    2  A    between atoms: C_2  and  C_3
REMARK    3  A    between atoms: N_5  and  C_6
REMARK    4  A    between atoms: C_6  and  C_7
REMARK    5  A    between atoms: C_15  and  N_16
REMARK    6  A    between atoms: N_21  and  C_22
REMARK                            x       y       z     vdW  Elec       q    Type
REMARK                         _______ _______ _______ _____ _____    ______ ____
ROOT
ATOM      1  C   UNL     1       1.447  11.729  18.981  0.00  0.00    +0.000 C 
ATOM      2  C   UNL     1       2.127  10.627  18.135  0.00  0.00    +0.000 C 
ATOM      3  N   UNL     1       1.397   9.333  18.173  0.00  0.00    +0.000 NA
ATOM      4  C   UNL     1       0.005   9.616  17.740  0.00  0.00    +0.000 C 
ATOM      5  C   UNL     1      -0.692  10.743  18.540  0.00  0.00    +0.000 C 
ATOM      6  O   UNL     1       0.090  11.953  18.552  0.00  0.00    +0.000 OA
ENDROOT
BRANCH   5   7
ATOM      7  N   UNL     1      -1.990  11.055  17.966  0.00  0.00    +0.000 N 
ATOM      8  C   UNL     1      -2.426  10.730  16.708  0.00  0.00    +0.000 A 
ATOM      9  N   UNL     1      -3.672  11.108  16.507  0.00  0.00    +0.000 NA
ATOM     10  C   UNL     1      -4.054  11.702  17.692  0.00  0.00    +0.000 A 
ATOM     11  C   UNL     1      -5.263  12.303  18.095  0.00  0.00    +0.000 A 
ATOM     12  N   UNL     1      -6.363  12.342  17.223  0.00  0.00    +0.000 N 
ATOM     13  N   UNL     1      -5.321  12.816  19.354  0.00  0.00    +0.000 NA
ATOM     14  C   UNL     1      -4.235  12.707  20.153  0.00  0.00    +0.000 A 
ATOM     15  N   UNL     1      -3.036  12.157  19.871  0.00  0.00    +0.000 NA
ATOM     16  C   UNL     1      -3.020  11.679  18.615  0.00  0.00    +0.000 A 
ATOM     17  H   UNL     1      -6.082  12.023  16.298  0.00  0.00    +0.000 HD
BRANCH  12  18
ATOM     18  C   UNL     1      -7.369  13.387  17.347  0.00  0.00    +0.000 C 
ATOM     19  C   UNL     1      -6.994  14.842  17.372  0.00  0.00    +0.000 C 
ATOM     20  C   UNL     1      -7.671  14.266  16.163  0.00  0.00    +0.000 C 
ENDBRANCH  12  18
ENDBRANCH   5   7
BRANCH   1  21
ATOM     21  C   UNL     1       2.213  13.058  18.911  0.00  0.00    +0.000 C 
BRANCH  21  22
ATOM     22  O   UNL     1       3.033  13.127  17.749  0.00  0.00    +0.000 OA
ATOM     23  H   UNL     1       2.812  13.958  17.294  0.00  0.00    +0.000 HD
ENDBRANCH  21  22
ENDBRANCH   1  21
BRANCH   3  24
ATOM     24  C   UNL     1       1.474   8.718  19.512  0.00  0.00    +0.000 C 
BRANCH  24  25
ATOM     25  C   UNL     1       2.064   7.325  19.518  0.00  0.00    +0.000 A 
ATOM     26  C   UNL     1       1.764   6.427  20.549  0.00  0.00    +0.000 A 
ATOM     27  C   UNL     1       2.327   5.148  20.558  0.00  0.00    +0.000 A 
ATOM     28  C   UNL     1       3.189   4.764  19.533  0.00  0.00    +0.000 A 
ATOM     29 CL   UNL     1       3.893   3.194  19.553  0.00  0.00    +0.000 Cl
ATOM     30  C   UNL     1       3.488   5.642  18.495  0.00  0.00    +0.000 A 
ATOM     31  C   UNL     1       2.928   6.919  18.486  0.00  0.00    +0.000 A 
ENDBRANCH  24  25
ENDBRANCH   3  24
TORSDOF 6
ENDMDL
