MODEL 1
REMARK VINA RESULT:      -6.6      0.000      0.000
REMARK  Name = 
REMARK  7 active torsions:
REMARK  status: ('A' for Active; 'I' for Inactive)
REMARK    1  A    between atoms: C_1  and  C_2
REMARK    2  A    between atoms: C_2  and  C_3
REMARK    3  A    between atoms: C_9  and  C_11
REMARK    4  A    between atoms: C_17  and  C_18
REMARK    5  A    between atoms: C_18  and  O_19
REMARK    6  A    between atoms: O_19  and  C_20
REMARK    7  A    between atoms: C_20  and  C_21
REMARK                            x       y       z     vdW  Elec       q    Type
REMARK                         _______ _______ _______ _____ _____    ______ ____
ROOT
ATOM      1  C   UNL     1       1.024  10.010  19.661  0.00  0.00    +0.000 C 
ATOM      2  O   UNL     1       0.999  11.059  19.020  0.00  0.00    +0.000 OA
ATOM      3  N   UNL     1       1.478   8.820  19.114  0.00  0.00    +0.000 N 
ATOM      4  C   UNL     1       2.027   8.811  17.756  0.00  0.00    +0.000 C 
ATOM      5  C   UNL     1       3.348   8.032  17.705  0.00  0.00    +0.000 C 
ATOM      6  N   UNL     1       3.212   6.678  18.291  0.00  0.00    +0.000 N 
ATOM      7  C   UNL     1       3.848   5.659  17.554  0.00  0.00    +0.000 C 
ATOM      8  O   UNL     1       4.526   5.914  16.554  0.00  0.00    +0.000 OA
ATOM      9  C   UNL     1       2.720   6.736  19.717  0.00  0.00    +0.000 C 
ATOM     10  C   UNL     1       1.366   7.497  19.736  0.00  0.00    +0.000 C 
ENDROOT
BRANCH   7  11
ATOM     11  C   UNL     1       3.718   4.225  17.876  0.00  0.00    +0.000 A 
ATOM     12  C   UNL     1       2.827   3.392  17.203  0.00  0.00    +0.000 A 
ATOM     13  C   UNL     1       2.630   2.080  17.637  0.00  0.00    +0.000 A 
ATOM     14  C   UNL     1       3.449   1.546  18.631  0.00  0.00    +0.000 A 
ATOM     15  C   UNL     1       4.474   2.318  19.172  0.00  0.00    +0.000 A 
ATOM     16  C   UNL     1       4.600   3.659  18.807  0.00  0.00    +0.000 A 
ENDBRANCH   7  11
BRANCH   1  18
ATOM     17  C   UNL     1      -0.616  10.832  21.407  0.00  0.00    +0.000 C 
ATOM     18  C   UNL     1       0.595   9.962  21.122  0.00  0.00    +0.000 C 
ENDBRANCH   1  18
BRANCH   9  19
ATOM     19  C   UNL     1       2.574   5.474  20.585  0.00  0.00    +0.000 C 
BRANCH  19  20
ATOM     20  O   UNL     1       1.228   4.953  20.581  0.00  0.00    +0.000 OA
BRANCH  20  21
ATOM     21  C   UNL     1       1.081   3.608  20.602  0.00  0.00    +0.000 C 
ATOM     22  C   UNL     1       1.911   3.016  21.700  0.00  0.00    +0.000 C 
ATOM     23  O   UNL     1       0.385   2.971  19.830  0.00  0.00    +0.000 OA
ENDBRANCH  20  21
ENDBRANCH  19  20
ENDBRANCH   9  19
TORSDOF 5
ENDMDL
MODEL 2
REMARK VINA RESULT:      -6.5      0.142      1.014
REMARK  Name = 
REMARK  7 active torsions:
REMARK  status: ('A' for Active; 'I' for Inactive)
REMARK    1  A    between atoms: C_1  and  C_2
REMARK    2  A    between atoms: C_2  and  C_3
REMARK    3  A    between atoms: C_9  and  C_11
REMARK    4  A    between atoms: C_17  and  C_18
REMARK    5  A    between atoms: C_18  and  O_19
REMARK    6  A    between atoms: O_19  and  C_20
REMARK    7  A    between atoms: C_20  and  C_21
REMARK                            x       y       z     vdW  Elec       q    Type
REMARK                         _______ _______ _______ _____ _____    ______ ____
ROOT
ATOM      1  C   UNL     1       1.031  10.007  19.683  0.00  0.00    +0.000 C 
ATOM      2  O   UNL     1       1.002  11.050  19.031  0.00  0.00    +0.000 OA
ATOM      3  N   UNL     1       1.481   8.811  19.145  0.00  0.00    +0.000 N 
ATOM      4  C   UNL     1       2.021   8.788  17.783  0.00  0.00    +0.000 C 
ATOM      5  C   UNL     1       3.341   8.008  17.731  0.00  0.00    +0.000 C 
ATOM      6  N   UNL     1       3.209   6.660  18.333  0.00  0.00    +0.000 N 
ATOM      7  C   UNL     1       3.840   5.633  17.602  0.00  0.00    +0.000 C 
ATOM      8  O   UNL     1       4.511   5.877  16.594  0.00  0.00    +0.000 OA
ATOM      9  C   UNL     1       2.727   6.734  19.761  0.00  0.00    +0.000 C 
ATOM     10  C   UNL     1       1.374   7.495  19.781  0.00  0.00    +0.000 C 
ENDROOT
BRANCH   7  11
ATOM     11  C   UNL     1       3.712   4.203  17.939  0.00  0.00    +0.000 A 
ATOM     12  C   UNL     1       4.474   3.606  18.940  0.00  0.00    +0.000 A 
ATOM     13  C   UNL     1       4.429   2.223  19.126  0.00  0.00    +0.000 A 
ATOM     14  C   UNL     1       3.493   1.458  18.432  0.00  0.00    +0.000 A 
ATOM     15  C   UNL     1       2.593   2.081  17.570  0.00  0.00    +0.000 A 
ATOM     16  C   UNL     1       2.711   3.448  17.312  0.00  0.00    +0.000 A 
ENDBRANCH   7  11
BRANCH   1  18
ATOM     17  C   UNL     1      -0.225  11.177  21.545  0.00  0.00    +0.000 C 
ATOM     18  C   UNL     1       0.613   9.975  21.147  0.00  0.00    +0.000 C 
ENDBRANCH   1  18
BRANCH   9  19
ATOM     19  C   UNL     1       2.587   5.481  20.643  0.00  0.00    +0.000 C 
BRANCH  19  20
ATOM     20  O   UNL     1       1.237   4.971  20.668  0.00  0.00    +0.000 OA
BRANCH  20  21
ATOM     21  C   UNL     1       1.078   3.628  20.619  0.00  0.00    +0.000 C 
ATOM     22  C   UNL     1       1.890   2.972  21.693  0.00  0.00    +0.000 C 
ATOM     23  O   UNL     1       0.385   3.038  19.807  0.00  0.00    +0.000 OA
ENDBRANCH  20  21
ENDBRANCH  19  20
ENDBRANCH   9  19
TORSDOF 5
ENDMDL
MODEL 3
REMARK VINA RESULT:      -6.3      2.984      5.926
REMARK  Name = 
REMARK  7 active torsions:
REMARK  status: ('A' for Active; 'I' for Inactive)
REMARK    1  A    between atoms: C_1  and  C_2
REMARK    2  A    between atoms: C_2  and  C_3
REMARK    3  A    between atoms: C_9  and  C_11
REMARK    4  A    between atoms: C_17  and  C_18
REMARK    5  A    between atoms: C_18  and  O_19
REMARK    6  A    between atoms: O_19  and  C_20
REMARK    7  A    between atoms: C_20  and  C_21
REMARK                            x       y       z     vdW  Elec       q    Type
REMARK                         _______ _______ _______ _____ _____    ______ ____
ROOT
ATOM      1  C   UNL     1       6.743   4.794  14.563  0.00  0.00    +0.000 C 
ATOM      2  O   UNL     1       7.546   5.658  14.213  0.00  0.00    +0.000 OA
ATOM      3  N   UNL     1       6.024   4.889  15.744  0.00  0.00    +0.000 N 
ATOM      4  C   UNL     1       6.150   6.089  16.575  0.00  0.00    +0.000 C 
ATOM      5  C   UNL     1       4.771   6.600  17.010  0.00  0.00    +0.000 C 
ATOM      6  N   UNL     1       3.962   5.532  17.643  0.00  0.00    +0.000 N 
ATOM      7  C   UNL     1       3.266   5.938  18.800  0.00  0.00    +0.000 C 
ATOM      8  O   UNL     1       3.280   7.112  19.182  0.00  0.00    +0.000 OA
ATOM      9  C   UNL     1       3.789   4.348  16.724  0.00  0.00    +0.000 C 
ATOM     10  C   UNL     1       5.197   3.828  16.327  0.00  0.00    +0.000 C 
ENDROOT
BRANCH   7  11
ATOM     11  C   UNL     1       2.520   5.005  19.665  0.00  0.00    +0.000 A 
ATOM     12  C   UNL     1       2.971   4.649  20.934  0.00  0.00    +0.000 A 
ATOM     13  C   UNL     1       2.313   3.653  21.658  0.00  0.00    +0.000 A 
ATOM     14  C   UNL     1       1.106   3.136  21.191  0.00  0.00    +0.000 A 
ATOM     15  C   UNL     1       0.550   3.631  20.014  0.00  0.00    +0.000 A 
ATOM     16  C   UNL     1       1.262   4.553  19.244  0.00  0.00    +0.000 A 
ENDBRANCH   7  11
BRANCH   1  18
ATOM     17  C   UNL     1       6.785   3.815  12.227  0.00  0.00    +0.000 C 
ATOM     18  C   UNL     1       6.454   3.580  13.691  0.00  0.00    +0.000 C 
ENDBRANCH   1  18
BRANCH   9  19
ATOM     19  C   UNL     1       2.919   3.137  17.104  0.00  0.00    +0.000 C 
BRANCH  19  20
ATOM     20  O   UNL     1       3.704   2.012  17.553  0.00  0.00    +0.000 OA
BRANCH  20  21
ATOM     21  C   UNL     1       3.424   1.507  18.777  0.00  0.00    +0.000 C 
ATOM     22  C   UNL     1       4.606   1.664  19.683  0.00  0.00    +0.000 C 
ATOM     23  O   UNL     1       2.367   0.985  19.091  0.00  0.00    +0.000 OA
ENDBRANCH  20  21
ENDBRANCH  19  20
ENDBRANCH   9  19
TORSDOF 5
ENDMDL
MODEL 4
REMARK VINA RESULT:      -6.2      3.304      6.027
REMARK  Name = 
REMARK  7 active torsions:
REMARK  status: ('A' for Active; 'I' for Inactive)
REMARK    1  A    between atoms: C_1  and  C_2
REMARK    2  A    between atoms: C_2  and  C_3
REMARK    3  A    between atoms: C_9  and  C_11
REMARK    4  A    between atoms: C_17  and  C_18
REMARK    5  A    between atoms: C_18  and  O_19
REMARK    6  A    between atoms: O_19  and  C_20
REMARK    7  A    between atoms: C_20  and  C_21
REMARK                            x       y       z     vdW  Elec       q    Type
REMARK                         _______ _______ _______ _____ _____    ______ ____
ROOT
ATOM      1  C   UNL     1       6.943   4.713  14.215  0.00  0.00    +0.000 C 
ATOM      2  O   UNL     1       7.655   5.622  13.791  0.00  0.00    +0.000 OA
ATOM      3  N   UNL     1       6.433   4.712  15.504  0.00  0.00    +0.000 N 
ATOM      4  C   UNL     1       6.671   5.865  16.377  0.00  0.00    +0.000 C 
ATOM      5  C   UNL     1       5.374   6.303  17.069  0.00  0.00    +0.000 C 
ATOM      6  N   UNL     1       4.708   5.172  17.759  0.00  0.00    +0.000 N 
ATOM      7  C   UNL     1       4.210   5.485  19.040  0.00  0.00    +0.000 C 
ATOM      8  O   UNL     1       4.261   6.634  19.488  0.00  0.00    +0.000 OA
ATOM      9  C   UNL     1       4.410   4.039  16.807  0.00  0.00    +0.000 C 
ATOM     10  C   UNL     1       5.742   3.591  16.148  0.00  0.00    +0.000 C 
ENDROOT
BRANCH   7  11
ATOM     11  C   UNL     1       3.643   4.478  19.957  0.00  0.00    +0.000 A 
ATOM     12  C   UNL     1       4.261   3.251  20.183  0.00  0.00    +0.000 A 
ATOM     13  C   UNL     1       3.617   2.271  20.941  0.00  0.00    +0.000 A 
ATOM     14  C   UNL     1       2.437   2.578  21.617  0.00  0.00    +0.000 A 
ATOM     15  C   UNL     1       1.917   3.868  21.550  0.00  0.00    +0.000 A 
ATOM     16  C   UNL     1       2.509   4.813  20.710  0.00  0.00    +0.000 A 
ENDBRANCH   7  11
BRANCH   1  18
ATOM     17  C   UNL     1       6.833   3.791  11.858  0.00  0.00    +0.000 C 
ATOM     18  C   UNL     1       6.539   3.543  13.327  0.00  0.00    +0.000 C 
ENDBRANCH   1  18
BRANCH   9  19
ATOM     19  C   UNL     1       3.645   2.780  17.250  0.00  0.00    +0.000 C 
BRANCH  19  20
ATOM     20  O   UNL     1       2.277   2.773  16.791  0.00  0.00    +0.000 OA
BRANCH  20  21
ATOM     21  C   UNL     1       1.357   3.392  17.567  0.00  0.00    +0.000 C 
ATOM     22  C   UNL     1       0.751   2.416  18.527  0.00  0.00    +0.000 C 
ATOM     23  O   UNL     1       1.056   4.571  17.483  0.00  0.00    +0.000 OA
ENDBRANCH  20  21
ENDBRANCH  19  20
ENDBRANCH   9  19
TORSDOF 5
ENDMDL
MODEL 5
REMARK VINA RESULT:      -6.1      1.003      1.488
REMARK  Name = 
REMARK  7 active torsions:
REMARK  status: ('A' for Active; 'I' for Inactive)
REMARK    1  A    between atoms: C_1  and  C_2
REMARK    2  A    between atoms: C_2  and  C_3
REMARK    3  A    between atoms: C_9  and  C_11
REMARK    4  A    between atoms: C_17  and  C_18
REMARK    5  A    between atoms: C_18  and  O_19
REMARK    6  A    between atoms: O_19  and  C_20
REMARK    7  A    between atoms: C_20  and  C_21
REMARK                            x       y       z     vdW  Elec       q    Type
REMARK                         _______ _______ _______ _____ _____    ______ ____
ROOT
ATOM      1  C   UNL     1       0.211  10.058  20.960  0.00  0.00    +0.000 C 
ATOM      2  O   UNL     1       0.026  11.196  20.532  0.00  0.00    +0.000 OA
ATOM      3  N   UNL     1       0.740   9.048  20.171  0.00  0.00    +0.000 N 
ATOM      4  C   UNL     1       1.176   9.350  18.805  0.00  0.00    +0.000 C 
ATOM      5  C   UNL     1       2.562   8.754  18.529  0.00  0.00    +0.000 C 
ATOM      6  N   UNL     1       2.615   7.309  18.854  0.00  0.00    +0.000 N 
ATOM      7  C   UNL     1       3.291   6.522  17.900  0.00  0.00    +0.000 C 
ATOM      8  O   UNL     1       3.855   7.031  16.928  0.00  0.00    +0.000 OA
ATOM      9  C   UNL     1       2.236   7.050  20.293  0.00  0.00    +0.000 C 
ATOM     10  C   UNL     1       0.817   7.631  20.536  0.00  0.00    +0.000 C 
ENDROOT
BRANCH   7  11
ATOM     11  C   UNL     1       3.336   5.048  17.952  0.00  0.00    +0.000 A 
ATOM     12  C   UNL     1       4.326   4.361  18.650  0.00  0.00    +0.000 A 
ATOM     13  C   UNL     1       4.418   2.971  18.550  0.00  0.00    +0.000 A 
ATOM     14  C   UNL     1       3.419   2.253  17.896  0.00  0.00    +0.000 A 
ATOM     15  C   UNL     1       2.320   2.924  17.362  0.00  0.00    +0.000 A 
ATOM     16  C   UNL     1       2.286   4.320  17.376  0.00  0.00    +0.000 A 
ENDBRANCH   7  11
BRANCH   1  18
ATOM     17  C   UNL     1      -1.093  10.637  23.053  0.00  0.00    +0.000 C 
ATOM     18  C   UNL     1      -0.090   9.696  22.409  0.00  0.00    +0.000 C 
ENDBRANCH   1  18
BRANCH   9  19
ATOM     19  C   UNL     1       2.292   5.643  20.912  0.00  0.00    +0.000 C 
BRANCH  19  20
ATOM     20  O   UNL     1       1.115   4.861  20.617  0.00  0.00    +0.000 OA
BRANCH  20  21
ATOM     21  C   UNL     1       1.200   3.521  20.784  0.00  0.00    +0.000 C 
ATOM     22  C   UNL     1       2.262   3.192  21.788  0.00  0.00    +0.000 C 
ATOM     23  O   UNL     1       0.519   2.700  20.191  0.00  0.00    +0.000 OA
ENDBRANCH  20  21
ENDBRANCH  19  20
ENDBRANCH   9  19
TORSDOF 5
ENDMDL
MODEL 6
REMARK VINA RESULT:      -6.1      3.588      6.192
REMARK  Name = 
REMARK  7 active torsions:
REMARK  status: ('A' for Active; 'I' for Inactive)
REMARK    1  A    between atoms: C_1  and  C_2
REMARK    2  A    between atoms: C_2  and  C_3
REMARK    3  A    between atoms: C_9  and  C_11
REMARK    4  A    between atoms: C_17  and  C_18
REMARK    5  A    between atoms: C_18  and  O_19
REMARK    6  A    between atoms: O_19  and  C_20
REMARK    7  A    between atoms: C_20  and  C_21
REMARK                            x       y       z     vdW  Elec       q    Type
REMARK                         _______ _______ _______ _____ _____    ______ ____
ROOT
ATOM      1  C   UNL     1       6.326   4.142  13.801  0.00  0.00    +0.000 C 
ATOM      2  O   UNL     1       7.473   4.327  13.399  0.00  0.00    +0.000 OA
ATOM      3  N   UNL     1       6.016   4.085  15.151  0.00  0.00    +0.000 N 
ATOM      4  C   UNL     1       7.063   4.335  16.145  0.00  0.00    +0.000 C 
ATOM      5  C   UNL     1       6.571   5.309  17.224  0.00  0.00    +0.000 C 
ATOM      6  N   UNL     1       5.288   4.867  17.822  0.00  0.00    +0.000 N 
ATOM      7  C   UNL     1       5.225   4.998  19.224  0.00  0.00    +0.000 C 
ATOM      8  O   UNL     1       6.143   5.519  19.865  0.00  0.00    +0.000 OA
ATOM      9  C   UNL     1       4.216   4.698  16.773  0.00  0.00    +0.000 C 
ATOM     10  C   UNL     1       4.724   3.683  15.714  0.00  0.00    +0.000 C 
ENDROOT
BRANCH   7  11
ATOM     11  C   UNL     1       4.104   4.486  20.035  0.00  0.00    +0.000 A 
ATOM     12  C   UNL     1       4.145   3.240  20.654  0.00  0.00    +0.000 A 
ATOM     13  C   UNL     1       3.009   2.733  21.287  0.00  0.00    +0.000 A 
ATOM     14  C   UNL     1       1.886   3.543  21.454  0.00  0.00    +0.000 A 
ATOM     15  C   UNL     1       1.912   4.862  21.006  0.00  0.00    +0.000 A 
ATOM     16  C   UNL     1       3.012   5.329  20.284  0.00  0.00    +0.000 A 
ENDBRANCH   7  11
BRANCH   1  18
ATOM     17  C   UNL     1       5.375   2.912  11.802  0.00  0.00    +0.000 C 
ATOM     18  C   UNL     1       5.158   4.005  12.833  0.00  0.00    +0.000 C 
ENDBRANCH   1  18
BRANCH   9  19
ATOM     19  C   UNL     1       2.767   4.329  17.137  0.00  0.00    +0.000 C 
BRANCH  19  20
ATOM     20  O   UNL     1       2.441   2.967  16.792  0.00  0.00    +0.000 OA
BRANCH  20  21
ATOM     21  C   UNL     1       2.381   2.066  17.801  0.00  0.00    +0.000 C 
ATOM     22  C   UNL     1       1.045   2.135  18.476  0.00  0.00    +0.000 C 
ATOM     23  O   UNL     1       3.289   1.319  18.123  0.00  0.00    +0.000 OA
ENDBRANCH  20  21
ENDBRANCH  19  20
ENDBRANCH   9  19
TORSDOF 5
ENDMDL
MODEL 7
REMARK VINA RESULT:      -5.9      3.490      6.140
REMARK  Name = 
REMARK  7 active torsions:
REMARK  status: ('A' for Active; 'I' for Inactive)
REMARK    1  A    between atoms: C_1  and  C_2
REMARK    2  A    between atoms: C_2  and  C_3
REMARK    3  A    between atoms: C_9  and  C_11
REMARK    4  A    between atoms: C_17  and  C_18
REMARK    5  A    between atoms: C_18  and  O_19
REMARK    6  A    between atoms: O_19  and  C_20
REMARK    7  A    between atoms: C_20  and  C_21
REMARK                            x       y       z     vdW  Elec       q    Type
REMARK                         _______ _______ _______ _____ _____    ______ ____
ROOT
ATOM      1  C   UNL     1       6.383   4.184  13.803  0.00  0.00    +0.000 C 
ATOM      2  O   UNL     1       7.537   4.366  13.418  0.00  0.00    +0.000 OA
ATOM      3  N   UNL     1       6.054   4.117  15.148  0.00  0.00    +0.000 N 
ATOM      4  C   UNL     1       7.089   4.352  16.158  0.00  0.00    +0.000 C 
ATOM      5  C   UNL     1       6.588   5.319  17.239  0.00  0.00    +0.000 C 
ATOM      6  N   UNL     1       5.295   4.880  17.815  0.00  0.00    +0.000 N 
ATOM      7  C   UNL     1       5.213   4.998  19.217  0.00  0.00    +0.000 C 
ATOM      8  O   UNL     1       6.124   5.507  19.876  0.00  0.00    +0.000 OA
ATOM      9  C   UNL     1       4.236   4.727  16.750  0.00  0.00    +0.000 C 
ATOM     10  C   UNL     1       4.752   3.718  15.689  0.00  0.00    +0.000 C 
ENDROOT
BRANCH   7  11
ATOM     11  C   UNL     1       4.077   4.486  20.008  0.00  0.00    +0.000 A 
ATOM     12  C   UNL     1       2.891   5.201  20.151  0.00  0.00    +0.000 A 
ATOM     13  C   UNL     1       1.901   4.750  21.026  0.00  0.00    +0.000 A 
ATOM     14  C   UNL     1       2.021   3.497  21.625  0.00  0.00    +0.000 A 
ATOM     15  C   UNL     1       3.119   2.691  21.332  0.00  0.00    +0.000 A 
ATOM     16  C   UNL     1       4.153   3.190  20.537  0.00  0.00    +0.000 A 
ENDBRANCH   7  11
BRANCH   1  18
ATOM     17  C   UNL     1       5.387   2.890  11.867  0.00  0.00    +0.000 C 
ATOM     18  C   UNL     1       5.228   4.064  12.818  0.00  0.00    +0.000 C 
ENDBRANCH   1  18
BRANCH   9  19
ATOM     19  C   UNL     1       2.780   4.364  17.091  0.00  0.00    +0.000 C 
BRANCH  19  20
ATOM     20  O   UNL     1       2.468   2.988  16.788  0.00  0.00    +0.000 OA
BRANCH  20  21
ATOM     21  C   UNL     1       2.253   2.154  17.832  0.00  0.00    +0.000 C 
ATOM     22  C   UNL     1       3.461   1.300  18.068  0.00  0.00    +0.000 C 
ATOM     23  O   UNL     1       1.219   2.096  18.476  0.00  0.00    +0.000 OA
ENDBRANCH  20  21
ENDBRANCH  19  20
ENDBRANCH   9  19
TORSDOF 5
ENDMDL
MODEL 8
REMARK VINA RESULT:      -5.8      1.220      1.496
REMARK  Name = 
REMARK  7 active torsions:
REMARK  status: ('A' for Active; 'I' for Inactive)
REMARK    1  A    between atoms: C_1  and  C_2
REMARK    2  A    between atoms: C_2  and  C_3
REMARK    3  A    between atoms: C_9  and  C_11
REMARK    4  A    between atoms: C_17  and  C_18
REMARK    5  A    between atoms: C_18  and  O_19
REMARK    6  A    between atoms: O_19  and  C_20
REMARK    7  A    between atoms: C_20  and  C_21
REMARK                            x       y       z     vdW  Elec       q    Type
REMARK                         _______ _______ _______ _____ _____    ______ ____
ROOT
ATOM      1  C   UNL     1      -0.196  10.168  20.881  0.00  0.00    +0.000 C 
ATOM      2  O   UNL     1      -0.503  11.262  20.410  0.00  0.00    +0.000 OA
ATOM      3  N   UNL     1       0.440   9.192  20.130  0.00  0.00    +0.000 N 
ATOM      4  C   UNL     1       0.841   9.487  18.752  0.00  0.00    +0.000 C 
ATOM      5  C   UNL     1       2.284   9.033  18.494  0.00  0.00    +0.000 C 
ATOM      6  N   UNL     1       2.493   7.616  18.875  0.00  0.00    +0.000 N 
ATOM      7  C   UNL     1       3.251   6.871  17.950  0.00  0.00    +0.000 C 
ATOM      8  O   UNL     1       3.758   7.401  16.957  0.00  0.00    +0.000 OA
ATOM      9  C   UNL     1       2.143   7.373  20.323  0.00  0.00    +0.000 C 
ATOM     10  C   UNL     1       0.669   7.806  20.549  0.00  0.00    +0.000 C 
ENDROOT
BRANCH   7  11
ATOM     11  C   UNL     1       3.456   5.414  18.057  0.00  0.00    +0.000 A 
ATOM     12  C   UNL     1       2.643   4.500  17.391  0.00  0.00    +0.000 A 
ATOM     13  C   UNL     1       2.778   3.132  17.637  0.00  0.00    +0.000 A 
ATOM     14  C   UNL     1       3.838   2.666  18.414  0.00  0.00    +0.000 A 
ATOM     15  C   UNL     1       4.770   3.567  18.924  0.00  0.00    +0.000 A 
ATOM     16  C   UNL     1       4.572   4.939  18.760  0.00  0.00    +0.000 A 
ENDBRANCH   7  11
BRANCH   1  18
ATOM     17  C   UNL     1      -1.119  10.971  23.099  0.00  0.00    +0.000 C 
ATOM     18  C   UNL     1      -0.458   9.832  22.343  0.00  0.00    +0.000 C 
ENDBRANCH   1  18
BRANCH   9  19
ATOM     19  C   UNL     1       2.350   6.005  20.996  0.00  0.00    +0.000 C 
BRANCH  19  20
ATOM     20  O   UNL     1       1.295   5.070  20.685  0.00  0.00    +0.000 OA
BRANCH  20  21
ATOM     21  C   UNL     1       1.470   3.784  21.069  0.00  0.00    +0.000 C 
ATOM     22  C   UNL     1       0.660   2.872  20.201  0.00  0.00    +0.000 C 
ATOM     23  O   UNL     1       2.174   3.424  21.998  0.00  0.00    +0.000 OA
ENDBRANCH  20  21
ENDBRANCH  19  20
ENDBRANCH   9  19
TORSDOF 5
ENDMDL
MODEL 9
REMARK VINA RESULT:      -5.8      3.071      5.941
REMARK  Name = 
REMARK  7 active torsions:
REMARK  status: ('A' for Active; 'I' for Inactive)
REMARK    1  A    between atoms: C_1  and  C_2
REMARK    2  A    between atoms: C_2  and  C_3
REMARK    3  A    between atoms: C_9  and  C_11
REMARK    4  A    between atoms: C_17  and  C_18
REMARK    5  A    between atoms: C_18  and  O_19
REMARK    6  A    between atoms: O_19  and  C_20
REMARK    7  A    between atoms: C_20  and  C_21
REMARK                            x       y       z     vdW  Elec       q    Type
REMARK                         _______ _______ _______ _____ _____    ______ ____
ROOT
ATOM      1  C   UNL     1       6.940   4.758  14.358  0.00  0.00    +0.000 C 
ATOM      2  O   UNL     1       7.732   5.611  13.962  0.00  0.00    +0.000 OA
ATOM      3  N   UNL     1       6.227   4.903  15.538  0.00  0.00    +0.000 N 
ATOM      4  C   UNL     1       6.346   6.143  16.308  0.00  0.00    +0.000 C 
ATOM      5  C   UNL     1       4.965   6.662  16.727  0.00  0.00    +0.000 C 
ATOM      6  N   UNL     1       4.169   5.619  17.416  0.00  0.00    +0.000 N 
ATOM      7  C   UNL     1       3.476   6.074  18.555  0.00  0.00    +0.000 C 
ATOM      8  O   UNL     1       3.481   7.265  18.880  0.00  0.00    +0.000 OA
ATOM      9  C   UNL     1       4.003   4.389  16.556  0.00  0.00    +0.000 C 
ATOM     10  C   UNL     1       5.414   3.864  16.177  0.00  0.00    +0.000 C 
ENDROOT
BRANCH   7  11
ATOM     11  C   UNL     1       2.744   5.177  19.470  0.00  0.00    +0.000 A 
ATOM     12  C   UNL     1       1.374   4.955  19.351  0.00  0.00    +0.000 A 
ATOM     13  C   UNL     1       0.696   4.218  20.324  0.00  0.00    +0.000 A 
ATOM     14  C   UNL     1       1.413   3.557  21.321  0.00  0.00    +0.000 A 
ATOM     15  C   UNL     1       2.805   3.618  21.329  0.00  0.00    +0.000 A 
ATOM     16  C   UNL     1       3.469   4.438  20.415  0.00  0.00    +0.000 A 
ENDBRANCH   7  11
BRANCH   1  18
ATOM     17  C   UNL     1       6.135   3.802  12.155  0.00  0.00    +0.000 C 
ATOM     18  C   UNL     1       6.658   3.500  13.548  0.00  0.00    +0.000 C 
ENDBRANCH   1  18
BRANCH   9  19
ATOM     19  C   UNL     1       3.147   3.190  17.000  0.00  0.00    +0.000 C 
BRANCH  19  20
ATOM     20  O   UNL     1       3.945   2.091  17.487  0.00  0.00    +0.000 OA
BRANCH  20  21
ATOM     21  C   UNL     1       3.450   1.371  18.520  0.00  0.00    +0.000 C 
ATOM     22  C   UNL     1       1.955   1.470  18.549  0.00  0.00    +0.000 C 
ATOM     23  O   UNL     1       4.124   0.744  19.320  0.00  0.00    +0.000 OA
ENDBRANCH  20  21
ENDBRANCH  19  20
ENDBRANCH   9  19
TORSDOF 5
ENDMDL
