MODEL 1
REMARK VINA RESULT:      -7.3      0.000      0.000
REMARK  Name = 
REMARK  4 active torsions:
REMARK  status: ('A' for Active; 'I' for Inactive)
REMARK    1  A    between atoms: O_1  and  C_2
REMARK    2  A    between atoms: C_4  and  C_5
REMARK    3  A    between atoms: C_5  and  S_6
REMARK    4  A    between atoms: S_6  and  C_7
REMARK                            x       y       z     vdW  Elec       q    Type
REMARK                         _______ _______ _______ _____ _____    ______ ____
ROOT
ATOM      1  C   UNL     1       7.830   6.220  18.864  0.00  0.00    +0.000 A 
ATOM      2  N   UNL     1       8.386   7.437  18.829  0.00  0.00    +0.000 NA
ATOM      3  C   UNL     1       7.893   8.264  17.889  0.00  0.00    +0.000 A 
ATOM      4  N   UNL     1       6.918   7.929  17.014  0.00  0.00    +0.000 NA
ATOM      5  C   UNL     1       6.386   6.698  17.097  0.00  0.00    +0.000 A 
ATOM      6  C   UNL     1       5.372   6.318  16.222  0.00  0.00    +0.000 A 
ATOM      7  C   UNL     1       4.803   5.038  16.258  0.00  0.00    +0.000 A 
ATOM      8  C   UNL     1       5.244   4.109  17.193  0.00  0.00    +0.000 A 
ATOM      9  C   UNL     1       6.249   4.467  18.086  0.00  0.00    +0.000 A 
ATOM     10  C   UNL     1       6.819   5.761  18.034  0.00  0.00    +0.000 A 
ENDROOT
BRANCH   1  11
ATOM     11  O   UNL     1       8.373   5.416  19.820  0.00  0.00    +0.000 OA
ATOM     12  H   UNL     1       7.635   4.798  19.970  0.00  0.00    +0.000 HD
ENDBRANCH   1  11
BRANCH   3  13
ATOM     13  C   UNL     1       8.496   9.651  17.786  0.00  0.00    +0.000 C 
BRANCH  13  14
ATOM     14  S   UNL     1       9.271  10.172  19.355  0.00  0.00    +0.000 S 
BRANCH  14  15
ATOM     15  C   UNL     1      10.150  11.622  18.846  0.00  0.00    +0.000 A 
ATOM     16  N   UNL     1      10.746  11.684  17.637  0.00  0.00    +0.000 NA
ATOM     17  C   UNL     1      11.410  12.812  17.329  0.00  0.00    +0.000 A 
ATOM     18  N   UNL     1      11.564  13.904  18.082  0.00  0.00    +0.000 NA
ATOM     19  C   UNL     1      10.953  13.797  19.274  0.00  0.00    +0.000 A 
ATOM     20  S   UNL     1      11.021  15.071  20.406  0.00  0.00    +0.000 S 
ATOM     21  C   UNL     1      10.079  14.201  21.536  0.00  0.00    +0.000 A 
ATOM     22  C   UNL     1       9.722  12.960  21.055  0.00  0.00    +0.000 A 
ATOM     23  C   UNL     1      10.231  12.707  19.732  0.00  0.00    +0.000 A 
ENDBRANCH  14  15
ENDBRANCH  13  14
ENDBRANCH   3  13
TORSDOF 4
ENDMDL
MODEL 2
REMARK VINA RESULT:      -7.2      7.315     10.451
REMARK  Name = 
REMARK  4 active torsions:
REMARK  status: ('A' for Active; 'I' for Inactive)
REMARK    1  A    between atoms: O_1  and  C_2
REMARK    2  A    between atoms: C_4  and  C_5
REMARK    3  A    between atoms: C_5  and  S_6
REMARK    4  A    between atoms: S_6  and  C_7
REMARK                            x       y       z     vdW  Elec       q    Type
REMARK                         _______ _______ _______ _____ _____    ______ ____
ROOT
ATOM      1  C   UNL     1       0.161  10.510  19.416  0.00  0.00    +0.000 A 
ATOM      2  N   UNL     1       0.935   9.429  19.259  0.00  0.00    +0.000 NA
ATOM      3  C   UNL     1       1.120   8.692  20.369  0.00  0.00    +0.000 A 
ATOM      4  N   UNL     1       0.594   8.990  21.578  0.00  0.00    +0.000 NA
ATOM      5  C   UNL     1      -0.184  10.081  21.682  0.00  0.00    +0.000 A 
ATOM      6  C   UNL     1      -0.754  10.417  22.906  0.00  0.00    +0.000 A 
ATOM      7  C   UNL     1      -1.554  11.557  23.064  0.00  0.00    +0.000 A 
ATOM      8  C   UNL     1      -1.804  12.384  21.977  0.00  0.00    +0.000 A 
ATOM      9  C   UNL     1      -1.255  12.066  20.739  0.00  0.00    +0.000 A 
ATOM     10  C   UNL     1      -0.445  10.915  20.595  0.00  0.00    +0.000 A 
ENDROOT
BRANCH   1  11
ATOM     11  O   UNL     1       0.018  11.231  18.269  0.00  0.00    +0.000 OA
ATOM     12  H   UNL     1       0.580  11.999  18.473  0.00  0.00    +0.000 HD
ENDBRANCH   1  11
BRANCH   3  13
ATOM     13  C   UNL     1       2.003   7.465  20.260  0.00  0.00    +0.000 C 
BRANCH  13  14
ATOM     14  S   UNL     1       2.596   7.206  18.553  0.00  0.00    +0.000 S 
BRANCH  14  15
ATOM     15  C   UNL     1       3.600   5.761  18.748  0.00  0.00    +0.000 A 
ATOM     16  N   UNL     1       4.924   5.861  18.986  0.00  0.00    +0.000 NA
ATOM     17  C   UNL     1       5.623   4.719  19.104  0.00  0.00    +0.000 A 
ATOM     18  N   UNL     1       5.169   3.467  19.011  0.00  0.00    +0.000 NA
ATOM     19  C   UNL     1       3.847   3.416  18.774  0.00  0.00    +0.000 A 
ATOM     20  S   UNL     1       3.048   1.918  18.612  0.00  0.00    +0.000 S 
ATOM     21  C   UNL     1       1.539   2.680  18.355  0.00  0.00    +0.000 A 
ATOM     22  C   UNL     1       1.648   4.052  18.393  0.00  0.00    +0.000 A 
ATOM     23  C   UNL     1       2.995   4.499  18.633  0.00  0.00    +0.000 A 
ENDBRANCH  14  15
ENDBRANCH  13  14
ENDBRANCH   3  13
TORSDOF 4
ENDMDL
MODEL 3
REMARK VINA RESULT:      -7.2      6.782      7.389
REMARK  Name = 
REMARK  4 active torsions:
REMARK  status: ('A' for Active; 'I' for Inactive)
REMARK    1  A    between atoms: O_1  and  C_2
REMARK    2  A    between atoms: C_4  and  C_5
REMARK    3  A    between atoms: C_5  and  S_6
REMARK    4  A    between atoms: S_6  and  C_7
REMARK                            x       y       z     vdW  Elec       q    Type
REMARK                         _______ _______ _______ _____ _____    ______ ____
ROOT
ATOM      1  C   UNL     1       5.727   5.022  18.946  0.00  0.00    +0.000 A 
ATOM      2  N   UNL     1       4.519   5.091  19.519  0.00  0.00    +0.000 NA
ATOM      3  C   UNL     1       3.478   4.961  18.677  0.00  0.00    +0.000 A 
ATOM      4  N   UNL     1       3.596   4.788  17.341  0.00  0.00    +0.000 NA
ATOM      5  C   UNL     1       4.831   4.717  16.815  0.00  0.00    +0.000 A 
ATOM      6  C   UNL     1       4.996   4.527  15.447  0.00  0.00    +0.000 A 
ATOM      7  C   UNL     1       6.264   4.469  14.853  0.00  0.00    +0.000 A 
ATOM      8  C   UNL     1       7.403   4.593  15.639  0.00  0.00    +0.000 A 
ATOM      9  C   UNL     1       7.267   4.772  17.011  0.00  0.00    +0.000 A 
ATOM     10  C   UNL     1       5.980   4.835  17.596  0.00  0.00    +0.000 A 
ENDROOT
BRANCH   1  11
ATOM     11  O   UNL     1       6.746   5.174  19.837  0.00  0.00    +0.000 OA
ATOM     12  H   UNL     1       6.941   4.242  20.041  0.00  0.00    +0.000 HD
ENDBRANCH   1  11
BRANCH   3  13
ATOM     13  C   UNL     1       2.083   5.049  19.263  0.00  0.00    +0.000 C 
BRANCH  13  14
ATOM     14  S   UNL     1       2.006   6.226  20.655  0.00  0.00    +0.000 S 
BRANCH  14  15
ATOM     15  C   UNL     1       1.752   7.758  19.803  0.00  0.00    +0.000 A 
ATOM     16  N   UNL     1       2.177   7.925  18.533  0.00  0.00    +0.000 NA
ATOM     17  C   UNL     1       1.964   9.122  17.959  0.00  0.00    +0.000 A 
ATOM     18  N   UNL     1       1.377  10.195  18.495  0.00  0.00    +0.000 NA
ATOM     19  C   UNL     1       0.971   9.982  19.758  0.00  0.00    +0.000 A 
ATOM     20  S   UNL     1       0.198  11.217  20.645  0.00  0.00    +0.000 S 
ATOM     21  C   UNL     1       0.027  10.211  22.016  0.00  0.00    +0.000 A 
ATOM     22  C   UNL     1       0.552   8.956  21.798  0.00  0.00    +0.000 A 
ATOM     23  C   UNL     1       1.113   8.809  20.480  0.00  0.00    +0.000 A 
ENDBRANCH  14  15
ENDBRANCH  13  14
ENDBRANCH   3  13
TORSDOF 4
ENDMDL
MODEL 4
REMARK VINA RESULT:      -7.2      6.475      8.760
REMARK  Name = 
REMARK  4 active torsions:
REMARK  status: ('A' for Active; 'I' for Inactive)
REMARK    1  A    between atoms: O_1  and  C_2
REMARK    2  A    between atoms: C_4  and  C_5
REMARK    3  A    between atoms: C_5  and  S_6
REMARK    4  A    between atoms: S_6  and  C_7
REMARK                            x       y       z     vdW  Elec       q    Type
REMARK                         _______ _______ _______ _____ _____    ______ ____
ROOT
ATOM      1  C   UNL     1       1.181   9.690  18.671  0.00  0.00    +0.000 A 
ATOM      2  N   UNL     1       1.872   8.722  18.058  0.00  0.00    +0.000 NA
ATOM      3  C   UNL     1       2.227   7.688  18.842  0.00  0.00    +0.000 A 
ATOM      4  N   UNL     1       1.943   7.599  20.161  0.00  0.00    +0.000 NA
ATOM      5  C   UNL     1       1.238   8.593  20.728  0.00  0.00    +0.000 A 
ATOM      6  C   UNL     1       0.915   8.534  22.080  0.00  0.00    +0.000 A 
ATOM      7  C   UNL     1       0.201   9.558  22.717  0.00  0.00    +0.000 A 
ATOM      8  C   UNL     1      -0.212  10.669  21.993  0.00  0.00    +0.000 A 
ATOM      9  C   UNL     1       0.089  10.749  20.638  0.00  0.00    +0.000 A 
ATOM     10  C   UNL     1       0.816   9.710  20.009  0.00  0.00    +0.000 A 
ENDROOT
BRANCH   1  11
ATOM     11  O   UNL     1       0.858  10.719  17.840  0.00  0.00    +0.000 OA
ATOM     12  H   UNL     1       1.476  11.402  18.157  0.00  0.00    +0.000 HD
ENDBRANCH   1  11
BRANCH   3  13
ATOM     13  C   UNL     1       3.029   6.567  18.210  0.00  0.00    +0.000 C 
BRANCH  13  14
ATOM     14  S   UNL     1       3.755   5.461  19.466  0.00  0.00    +0.000 S 
BRANCH  14  15
ATOM     15  C   UNL     1       5.394   5.243  18.833  0.00  0.00    +0.000 A 
ATOM     16  N   UNL     1       6.474   5.427  19.621  0.00  0.00    +0.000 NA
ATOM     17  C   UNL     1       7.686   5.260  19.064  0.00  0.00    +0.000 A 
ATOM     18  N   UNL     1       7.970   4.932  17.801  0.00  0.00    +0.000 NA
ATOM     19  C   UNL     1       6.865   4.758  17.055  0.00  0.00    +0.000 A 
ATOM     20  S   UNL     1       6.985   4.338  15.406  0.00  0.00    +0.000 S 
ATOM     21  C   UNL     1       5.285   4.314  15.225  0.00  0.00    +0.000 A 
ATOM     22  C   UNL     1       4.642   4.621  16.403  0.00  0.00    +0.000 A 
ATOM     23  C   UNL     1       5.555   4.889  17.484  0.00  0.00    +0.000 A 
ENDBRANCH  14  15
ENDBRANCH  13  14
ENDBRANCH   3  13
TORSDOF 4
ENDMDL
MODEL 5
REMARK VINA RESULT:      -7.2      5.594      8.653
REMARK  Name = 
REMARK  4 active torsions:
REMARK  status: ('A' for Active; 'I' for Inactive)
REMARK    1  A    between atoms: O_1  and  C_2
REMARK    2  A    between atoms: C_4  and  C_5
REMARK    3  A    between atoms: C_5  and  S_6
REMARK    4  A    between atoms: S_6  and  C_7
REMARK                            x       y       z     vdW  Elec       q    Type
REMARK                         _______ _______ _______ _____ _____    ______ ____
ROOT
ATOM      1  C   UNL     1       5.543   6.103  16.235  0.00  0.00    +0.000 A 
ATOM      2  N   UNL     1       4.834   4.967  16.243  0.00  0.00    +0.000 NA
ATOM      3  C   UNL     1       5.119   4.123  17.251  0.00  0.00    +0.000 A 
ATOM      4  N   UNL     1       6.054   4.356  18.200  0.00  0.00    +0.000 NA
ATOM      5  C   UNL     1       6.732   5.516  18.153  0.00  0.00    +0.000 A 
ATOM      6  C   UNL     1       7.695   5.799  19.117  0.00  0.00    +0.000 A 
ATOM      7  C   UNL     1       8.440   6.986  19.094  0.00  0.00    +0.000 A 
ATOM      8  C   UNL     1       8.221   7.922  18.092  0.00  0.00    +0.000 A 
ATOM      9  C   UNL     1       7.257   7.669  17.122  0.00  0.00    +0.000 A 
ATOM     10  C   UNL     1       6.516   6.464  17.154  0.00  0.00    +0.000 A 
ENDROOT
BRANCH   1  11
ATOM     11  O   UNL     1       5.230   6.915  15.188  0.00  0.00    +0.000 OA
ATOM     12  H   UNL     1       6.109   7.275  14.975  0.00  0.00    +0.000 HD
ENDBRANCH   1  11
BRANCH   3  13
ATOM     13  C   UNL     1       4.363   2.810  17.305  0.00  0.00    +0.000 C 
BRANCH  13  14
ATOM     14  S   UNL     1       2.556   3.067  17.276  0.00  0.00    +0.000 S 
BRANCH  14  15
ATOM     15  C   UNL     1       2.276   3.756  18.882  0.00  0.00    +0.000 A 
ATOM     16  N   UNL     1       2.076   2.960  19.954  0.00  0.00    +0.000 NA
ATOM     17  C   UNL     1       1.851   3.557  21.137  0.00  0.00    +0.000 A 
ATOM     18  N   UNL     1       1.795   4.866  21.398  0.00  0.00    +0.000 NA
ATOM     19  C   UNL     1       2.000   5.617  20.303  0.00  0.00    +0.000 A 
ATOM     20  S   UNL     1       1.967   7.320  20.396  0.00  0.00    +0.000 S 
ATOM     21  C   UNL     1       2.290   7.479  18.725  0.00  0.00    +0.000 A 
ATOM     22  C   UNL     1       2.419   6.253  18.111  0.00  0.00    +0.000 A 
ATOM     23  C   UNL     1       2.247   5.152  19.022  0.00  0.00    +0.000 A 
ENDBRANCH  14  15
ENDBRANCH  13  14
ENDBRANCH   3  13
TORSDOF 4
ENDMDL
MODEL 6
REMARK VINA RESULT:      -7.2      1.370      2.039
REMARK  Name = 
REMARK  4 active torsions:
REMARK  status: ('A' for Active; 'I' for Inactive)
REMARK    1  A    between atoms: O_1  and  C_2
REMARK    2  A    between atoms: C_4  and  C_5
REMARK    3  A    between atoms: C_5  and  S_6
REMARK    4  A    between atoms: S_6  and  C_7
REMARK                            x       y       z     vdW  Elec       q    Type
REMARK                         _______ _______ _______ _____ _____    ______ ____
ROOT
ATOM      1  C   UNL     1       7.905   6.340  18.876  0.00  0.00    +0.000 A 
ATOM      2  N   UNL     1       8.456   7.560  18.866  0.00  0.00    +0.000 NA
ATOM      3  C   UNL     1       7.951   8.408  17.952  0.00  0.00    +0.000 A 
ATOM      4  N   UNL     1       6.971   8.090  17.077  0.00  0.00    +0.000 NA
ATOM      5  C   UNL     1       6.444   6.855  17.133  0.00  0.00    +0.000 A 
ATOM      6  C   UNL     1       5.425   6.492  16.257  0.00  0.00    +0.000 A 
ATOM      7  C   UNL     1       4.862   5.209  16.266  0.00  0.00    +0.000 A 
ATOM      8  C   UNL     1       5.315   4.259  17.173  0.00  0.00    +0.000 A 
ATOM      9  C   UNL     1       6.325   4.599  18.066  0.00  0.00    +0.000 A 
ATOM     10  C   UNL     1       6.889   5.897  18.043  0.00  0.00    +0.000 A 
ENDROOT
BRANCH   1  11
ATOM     11  O   UNL     1       8.459   5.515  19.806  0.00  0.00    +0.000 OA
ATOM     12  H   UNL     1       8.088   5.896  20.622  0.00  0.00    +0.000 HD
ENDBRANCH   1  11
BRANCH   3  13
ATOM     13  C   UNL     1       8.547   9.800  17.879  0.00  0.00    +0.000 C 
BRANCH  13  14
ATOM     14  S   UNL     1       9.406  10.251  19.425  0.00  0.00    +0.000 S 
BRANCH  14  15
ATOM     15  C   UNL     1       9.419  12.018  19.314  0.00  0.00    +0.000 A 
ATOM     16  N   UNL     1       8.584  12.767  20.063  0.00  0.00    +0.000 NA
ATOM     17  C   UNL     1       8.640  14.102  19.910  0.00  0.00    +0.000 A 
ATOM     18  N   UNL     1       9.430  14.801  19.092  0.00  0.00    +0.000 NA
ATOM     19  C   UNL     1      10.244  14.015  18.368  0.00  0.00    +0.000 A 
ATOM     20  S   UNL     1      11.341  14.690  17.249  0.00  0.00    +0.000 S 
ATOM     21  C   UNL     1      11.933  13.149  16.805  0.00  0.00    +0.000 A 
ATOM     22  C   UNL     1      11.303  12.140  17.499  0.00  0.00    +0.000 A 
ATOM     23  C   UNL     1      10.307  12.632  18.416  0.00  0.00    +0.000 A 
ENDBRANCH  14  15
ENDBRANCH  13  14
ENDBRANCH   3  13
TORSDOF 4
ENDMDL
MODEL 7
REMARK VINA RESULT:      -7.2      6.612      8.676
REMARK  Name = 
REMARK  4 active torsions:
REMARK  status: ('A' for Active; 'I' for Inactive)
REMARK    1  A    between atoms: O_1  and  C_2
REMARK    2  A    between atoms: C_4  and  C_5
REMARK    3  A    between atoms: C_5  and  S_6
REMARK    4  A    between atoms: S_6  and  C_7
REMARK                            x       y       z     vdW  Elec       q    Type
REMARK                         _______ _______ _______ _____ _____    ______ ____
ROOT
ATOM      1  C   UNL     1       2.263   8.072  18.338  0.00  0.00    +0.000 A 
ATOM      2  N   UNL     1       2.855   6.882  18.508  0.00  0.00    +0.000 NA
ATOM      3  C   UNL     1       2.632   6.297  19.699  0.00  0.00    +0.000 A 
ATOM      4  N   UNL     1       1.884   6.840  20.687  0.00  0.00    +0.000 NA
ATOM      5  C   UNL     1       1.303   8.032  20.463  0.00  0.00    +0.000 A 
ATOM      6  C   UNL     1       0.517   8.618  21.450  0.00  0.00    +0.000 A 
ATOM      7  C   UNL     1      -0.090   9.869  21.268  0.00  0.00    +0.000 A 
ATOM      8  C   UNL     1       0.081  10.555  20.073  0.00  0.00    +0.000 A 
ATOM      9  C   UNL     1       0.853   9.986  19.065  0.00  0.00    +0.000 A 
ATOM     10  C   UNL     1       1.465   8.725  19.265  0.00  0.00    +0.000 A 
ENDROOT
BRANCH   1  11
ATOM     11  O   UNL     1       2.531   8.629  17.126  0.00  0.00    +0.000 OA
ATOM     12  H   UNL     1       1.920   8.122  16.560  0.00  0.00    +0.000 HD
ENDBRANCH   1  11
BRANCH   3  13
ATOM     13  C   UNL     1       3.291   4.957  19.959  0.00  0.00    +0.000 C 
BRANCH  13  14
ATOM     14  S   UNL     1       3.482   3.987  18.425  0.00  0.00    +0.000 S 
BRANCH  14  15
ATOM     15  C   UNL     1       5.162   4.343  17.995  0.00  0.00    +0.000 A 
ATOM     16  N   UNL     1       6.089   4.578  18.948  0.00  0.00    +0.000 NA
ATOM     17  C   UNL     1       7.339   4.859  18.543  0.00  0.00    +0.000 A 
ATOM     18  N   UNL     1       7.797   4.941  17.291  0.00  0.00    +0.000 NA
ATOM     19  C   UNL     1       6.841   4.700  16.378  0.00  0.00    +0.000 A 
ATOM     20  S   UNL     1       7.195   4.756  14.710  0.00  0.00    +0.000 S 
ATOM     21  C   UNL     1       5.584   4.365  14.292  0.00  0.00    +0.000 A 
ATOM     22  C   UNL     1       4.793   4.196  15.407  0.00  0.00    +0.000 A 
ATOM     23  C   UNL     1       5.515   4.394  16.637  0.00  0.00    +0.000 A 
ENDBRANCH  14  15
ENDBRANCH  13  14
ENDBRANCH   3  13
TORSDOF 4
ENDMDL
MODEL 8
REMARK VINA RESULT:      -7.1      2.768      8.304
REMARK  Name = 
REMARK  4 active torsions:
REMARK  status: ('A' for Active; 'I' for Inactive)
REMARK    1  A    between atoms: O_1  and  C_2
REMARK    2  A    between atoms: C_4  and  C_5
REMARK    3  A    between atoms: C_5  and  S_6
REMARK    4  A    between atoms: S_6  and  C_7
REMARK                            x       y       z     vdW  Elec       q    Type
REMARK                         _______ _______ _______ _____ _____    ______ ____
ROOT
ATOM      1  C   UNL     1       9.475  10.703  20.264  0.00  0.00    +0.000 A 
ATOM      2  N   UNL     1       8.775   9.726  19.673  0.00  0.00    +0.000 NA
ATOM      3  C   UNL     1       8.807   9.733  18.329  0.00  0.00    +0.000 A 
ATOM      4  N   UNL     1       9.471  10.648  17.586  0.00  0.00    +0.000 NA
ATOM      5  C   UNL     1      10.167  11.603  18.227  0.00  0.00    +0.000 A 
ATOM      6  C   UNL     1      10.873  12.556  17.500  0.00  0.00    +0.000 A 
ATOM      7  C   UNL     1      11.594  13.582  18.127  0.00  0.00    +0.000 A 
ATOM      8  C   UNL     1      11.623  13.662  19.513  0.00  0.00    +0.000 A 
ATOM      9  C   UNL     1      10.934  12.715  20.264  0.00  0.00    +0.000 A 
ATOM     10  C   UNL     1      10.205  11.688  19.618  0.00  0.00    +0.000 A 
ENDROOT
BRANCH   1  11
ATOM     11  O   UNL     1       9.400  10.662  21.623  0.00  0.00    +0.000 OA
ATOM     12  H   UNL     1       8.441  10.779  21.749  0.00  0.00    +0.000 HD
ENDBRANCH   1  11
BRANCH   3  13
ATOM     13  C   UNL     1       8.017   8.663  17.600  0.00  0.00    +0.000 C 
BRANCH  13  14
ATOM     14  S   UNL     1       7.995   7.090  18.526  0.00  0.00    +0.000 S 
BRANCH  14  15
ATOM     15  C   UNL     1       7.105   6.042  17.410  0.00  0.00    +0.000 A 
ATOM     16  N   UNL     1       7.436   5.979  16.103  0.00  0.00    +0.000 NA
ATOM     17  C   UNL     1       6.703   5.174  15.315  0.00  0.00    +0.000 A 
ATOM     18  N   UNL     1       5.662   4.412  15.662  0.00  0.00    +0.000 NA
ATOM     19  C   UNL     1       5.370   4.506  16.971  0.00  0.00    +0.000 A 
ATOM     20  S   UNL     1       4.073   3.624  17.640  0.00  0.00    +0.000 S 
ATOM     21  C   UNL     1       4.368   4.256  19.201  0.00  0.00    +0.000 A 
ATOM     22  C   UNL     1       5.437   5.124  19.207  0.00  0.00    +0.000 A 
ATOM     23  C   UNL     1       6.032   5.285  17.906  0.00  0.00    +0.000 A 
ENDBRANCH  14  15
ENDBRANCH  13  14
ENDBRANCH   3  13
TORSDOF 4
ENDMDL
MODEL 9
REMARK VINA RESULT:      -7.1      7.067     10.119
REMARK  Name = 
REMARK  4 active torsions:
REMARK  status: ('A' for Active; 'I' for Inactive)
REMARK    1  A    between atoms: O_1  and  C_2
REMARK    2  A    between atoms: C_4  and  C_5
REMARK    3  A    between atoms: C_5  and  S_6
REMARK    4  A    between atoms: S_6  and  C_7
REMARK                            x       y       z     vdW  Elec       q    Type
REMARK                         _______ _______ _______ _____ _____    ______ ____
ROOT
ATOM      1  C   UNL     1       0.529   9.614  22.409  0.00  0.00    +0.000 A 
ATOM      2  N   UNL     1       1.285   8.612  21.942  0.00  0.00    +0.000 NA
ATOM      3  C   UNL     1       1.320   8.498  20.602  0.00  0.00    +0.000 A 
ATOM      4  N   UNL     1       0.645   9.303  19.751  0.00  0.00    +0.000 NA
ATOM      5  C   UNL     1      -0.092  10.301  20.269  0.00  0.00    +0.000 A 
ATOM      6  C   UNL     1      -0.792  11.159  19.426  0.00  0.00    +0.000 A 
ATOM      7  C   UNL     1      -1.590  12.198  19.924  0.00  0.00    +0.000 A 
ATOM      8  C   UNL     1      -1.692  12.399  21.294  0.00  0.00    +0.000 A 
ATOM      9  C   UNL     1      -0.994  11.562  22.159  0.00  0.00    +0.000 A 
ATOM     10  C   UNL     1      -0.197  10.512  21.643  0.00  0.00    +0.000 A 
ENDROOT
BRANCH   1  11
ATOM     11  O   UNL     1       0.515   9.678  23.769  0.00  0.00    +0.000 OA
ATOM     12  H   UNL     1       0.442   8.732  23.988  0.00  0.00    +0.000 HD
ENDBRANCH   1  11
BRANCH   3  13
ATOM     13  C   UNL     1       2.143   7.370  20.013  0.00  0.00    +0.000 C 
BRANCH  13  14
ATOM     14  S   UNL     1       2.434   7.605  18.226  0.00  0.00    +0.000 S 
BRANCH  14  15
ATOM     15  C   UNL     1       3.444   6.200  17.849  0.00  0.00    +0.000 A 
ATOM     16  N   UNL     1       4.716   6.353  17.427  0.00  0.00    +0.000 NA
ATOM     17  C   UNL     1       5.415   5.240  17.143  0.00  0.00    +0.000 A 
ATOM     18  N   UNL     1       5.004   3.972  17.222  0.00  0.00    +0.000 NA
ATOM     19  C   UNL     1       3.733   3.869  17.647  0.00  0.00    +0.000 A 
ATOM     20  S   UNL     1       2.992   2.342  17.819  0.00  0.00    +0.000 S 
ATOM     21  C   UNL     1       1.528   3.043  18.352  0.00  0.00    +0.000 A 
ATOM     22  C   UNL     1       1.606   4.418  18.396  0.00  0.00    +0.000 A 
ATOM     23  C   UNL     1       2.891   4.917  17.981  0.00  0.00    +0.000 A 
ENDBRANCH  14  15
ENDBRANCH  13  14
ENDBRANCH   3  13
TORSDOF 4
ENDMDL
