MODEL 1
REMARK VINA RESULT:      -8.0      0.000      0.000
REMARK  Name = 
REMARK  8 active torsions:
REMARK  status: ('A' for Active; 'I' for Inactive)
REMARK    1  A    between atoms: C_2  and  C_3
REMARK    2  A    between atoms: N_5  and  C_6
REMARK    3  A    between atoms: C_13  and  C_14
REMARK    4  A    between atoms: C_14  and  C_15
REMARK    5  A    between atoms: C_18  and  C_19
REMARK    6  A    between atoms: C_19  and  N_20
REMARK    7  A    between atoms: N_20  and  C_21
REMARK    8  A    between atoms: N_20  and  C_22
REMARK                            x       y       z     vdW  Elec       q    Type
REMARK                         _______ _______ _______ _____ _____    ______ ____
ROOT
ATOM      1  C   UNL     1       5.842   5.277  18.102  0.00  0.00    +0.000 A 
ATOM      2  C   UNL     1       5.687   4.480  16.976  0.00  0.00    +0.000 A 
ATOM      3  C   UNL     1       4.514   3.745  16.791  0.00  0.00    +0.000 A 
ATOM      4  C   UNL     1       3.457   3.816  17.676  0.00  0.00    +0.000 A 
ATOM      5  N   UNL     1       2.355   3.121  17.382  0.00  0.00    +0.000 NA
ATOM      6  C   UNL     1       1.319   3.246  18.217  0.00  0.00    +0.000 A 
ATOM      7  N   UNL     1       1.281   4.012  19.312  0.00  0.00    +0.000 NA
ATOM      8  C   UNL     1       2.404   4.717  19.599  0.00  0.00    +0.000 A 
ATOM      9  C   UNL     1       3.578   4.629  18.818  0.00  0.00    +0.000 A 
ATOM     10  C   UNL     1       4.812   5.297  19.051  0.00  0.00    +0.000 A 
ENDROOT
BRANCH   1  13
ATOM     11  C   UNL     1       7.224   7.281  17.635  0.00  0.00    +0.000 C 
ATOM     12  O   UNL     1       6.549   7.773  16.740  0.00  0.00    +0.000 OA
ATOM     13  N   UNL     1       6.969   6.102  18.314  0.00  0.00    +0.000 N 
ATOM     14  H   UNL     1       7.530   5.905  19.131  0.00  0.00    +0.000 HD
BRANCH  11  16
ATOM     15  C   UNL     1       8.428   9.335  18.209  0.00  0.00    +0.000 C 
ATOM     16  C   UNL     1       8.422   7.995  18.160  0.00  0.00    +0.000 C 
ENDBRANCH  11  16
ENDBRANCH   1  13
BRANCH   8  17
ATOM     17  C   UNL     1       2.242   5.716  20.735  0.00  0.00    +0.000 C 
BRANCH  17  18
ATOM     18  C   UNL     1       1.716   7.059  20.262  0.00  0.00    +0.000 A 
ATOM     19  C   UNL     1       1.967   7.510  18.960  0.00  0.00    +0.000 A 
ATOM     20  C   UNL     1       1.648   8.822  18.588  0.00  0.00    +0.000 A 
ATOM     21  C   UNL     1       1.070   9.723  19.502  0.00  0.00    +0.000 A 
ATOM     22  C   UNL     1       0.721   9.231  20.768  0.00  0.00    +0.000 A 
ATOM     23 BR   UNL     1      -0.181  10.278  22.074  0.00  0.00    +0.000 Br
ATOM     24  C   UNL     1       1.044   7.918  21.140  0.00  0.00    +0.000 A 
BRANCH  21  25
ATOM     25  C   UNL     1       0.990  11.194  19.128  0.00  0.00    +0.000 C 
BRANCH  25  26
ATOM     26  N   UNL     1      -0.376  11.732  18.991  0.00  0.00    +0.000 NA
ATOM     27  C   UNL     1      -0.361  13.076  18.407  0.00  0.00    +0.000 C 
ATOM     28  C   UNL     1      -1.166  10.843  18.129  0.00  0.00    +0.000 C 
ENDBRANCH  25  26
ENDBRANCH  21  25
ENDBRANCH  17  18
ENDBRANCH   8  17
TORSDOF 6
ENDMDL
MODEL 2
REMARK VINA RESULT:      -7.9      1.233      1.655
REMARK  Name = 
REMARK  8 active torsions:
REMARK  status: ('A' for Active; 'I' for Inactive)
REMARK    1  A    between atoms: C_2  and  C_3
REMARK    2  A    between atoms: N_5  and  C_6
REMARK    3  A    between atoms: C_13  and  C_14
REMARK    4  A    between atoms: C_14  and  C_15
REMARK    5  A    between atoms: C_18  and  C_19
REMARK    6  A    between atoms: C_19  and  N_20
REMARK    7  A    between atoms: N_20  and  C_21
REMARK    8  A    between atoms: N_20  and  C_22
REMARK                            x       y       z     vdW  Elec       q    Type
REMARK                         _______ _______ _______ _____ _____    ______ ____
ROOT
ATOM      1  C   UNL     1       7.070   6.227  17.903  0.00  0.00    +0.000 A 
ATOM      2  C   UNL     1       7.197   5.571  16.686  0.00  0.00    +0.000 A 
ATOM      3  C   UNL     1       6.209   4.681  16.262  0.00  0.00    +0.000 A 
ATOM      4  C   UNL     1       5.060   4.456  16.993  0.00  0.00    +0.000 A 
ATOM      5  N   UNL     1       4.147   3.631  16.475  0.00  0.00    +0.000 NA
ATOM      6  C   UNL     1       3.015   3.469  17.167  0.00  0.00    +0.000 A 
ATOM      7  N   UNL     1       2.709   4.066  18.323  0.00  0.00    +0.000 NA
ATOM      8  C   UNL     1       3.642   4.906  18.838  0.00  0.00    +0.000 A 
ATOM      9  C   UNL     1       4.895   5.120  18.223  0.00  0.00    +0.000 A 
ATOM     10  C   UNL     1       5.950   5.949  18.697  0.00  0.00    +0.000 A 
ENDROOT
BRANCH   1  13
ATOM     11  C   UNL     1       7.982   8.530  17.997  0.00  0.00    +0.000 C 
ATOM     12  O   UNL     1       7.208   9.073  17.219  0.00  0.00    +0.000 OA
ATOM     13  N   UNL     1       7.995   7.194  18.359  0.00  0.00    +0.000 N 
ATOM     14  H   UNL     1       8.592   6.925  19.128  0.00  0.00    +0.000 HD
BRANCH  11  16
ATOM     15  C   UNL     1       9.268  10.585  18.344  0.00  0.00    +0.000 C 
ATOM     16  C   UNL     1       9.002   9.329  18.732  0.00  0.00    +0.000 C 
ENDBRANCH  11  16
ENDBRANCH   1  13
BRANCH   8  17
ATOM     17  C   UNL     1       3.167   5.704  20.043  0.00  0.00    +0.000 C 
BRANCH  17  18
ATOM     18  C   UNL     1       2.374   6.937  19.651  0.00  0.00    +0.000 A 
ATOM     19  C   UNL     1       2.457   7.462  18.356  0.00  0.00    +0.000 A 
ATOM     20  C   UNL     1       1.878   8.701  18.052  0.00  0.00    +0.000 A 
ATOM     21  C   UNL     1       1.200   9.453  19.031  0.00  0.00    +0.000 A 
ATOM     22  C   UNL     1       1.027   8.870  20.294  0.00  0.00    +0.000 A 
ATOM     23 BR   UNL     1       0.028   9.694  21.686  0.00  0.00    +0.000 Br
ATOM     24  C   UNL     1       1.610   7.631  20.597  0.00  0.00    +0.000 A 
BRANCH  21  25
ATOM     25  C   UNL     1       0.826  10.893  18.718  0.00  0.00    +0.000 C 
BRANCH  25  26
ATOM     26  N   UNL     1       1.764  11.909  19.227  0.00  0.00    +0.000 NA
ATOM     27  C   UNL     1       2.528  12.520  18.136  0.00  0.00    +0.000 C 
ATOM     28  C   UNL     1       1.013  12.956  19.932  0.00  0.00    +0.000 C 
ENDBRANCH  25  26
ENDBRANCH  21  25
ENDBRANCH  17  18
ENDBRANCH   8  17
TORSDOF 6
ENDMDL
MODEL 3
REMARK VINA RESULT:      -7.8      0.836      1.122
REMARK  Name = 
REMARK  8 active torsions:
REMARK  status: ('A' for Active; 'I' for Inactive)
REMARK    1  A    between atoms: C_2  and  C_3
REMARK    2  A    between atoms: N_5  and  C_6
REMARK    3  A    between atoms: C_13  and  C_14
REMARK    4  A    between atoms: C_14  and  C_15
REMARK    5  A    between atoms: C_18  and  C_19
REMARK    6  A    between atoms: C_19  and  N_20
REMARK    7  A    between atoms: N_20  and  C_21
REMARK    8  A    between atoms: N_20  and  C_22
REMARK                            x       y       z     vdW  Elec       q    Type
REMARK                         _______ _______ _______ _____ _____    ______ ____
ROOT
ATOM      1  C   UNL     1       5.885   5.382  17.979  0.00  0.00    +0.000 A 
ATOM      2  C   UNL     1       5.716   4.583  16.856  0.00  0.00    +0.000 A 
ATOM      3  C   UNL     1       4.534   3.860  16.680  0.00  0.00    +0.000 A 
ATOM      4  C   UNL     1       3.483   3.944  17.570  0.00  0.00    +0.000 A 
ATOM      5  N   UNL     1       2.373   3.260  17.284  0.00  0.00    +0.000 NA
ATOM      6  C   UNL     1       1.342   3.399  18.124  0.00  0.00    +0.000 A 
ATOM      7  N   UNL     1       1.317   4.168  19.216  0.00  0.00    +0.000 NA
ATOM      8  C   UNL     1       2.449   4.862  19.495  0.00  0.00    +0.000 A 
ATOM      9  C   UNL     1       3.618   4.760  18.709  0.00  0.00    +0.000 A 
ATOM     10  C   UNL     1       4.860   5.416  18.933  0.00  0.00    +0.000 A 
ENDROOT
BRANCH   1  13
ATOM     11  C   UNL     1       7.184   7.469  17.666  0.00  0.00    +0.000 C 
ATOM     12  O   UNL     1       6.404   8.072  16.940  0.00  0.00    +0.000 OA
ATOM     13  N   UNL     1       7.022   6.195  18.183  0.00  0.00    +0.000 N 
ATOM     14  H   UNL     1       7.677   5.894  18.890  0.00  0.00    +0.000 HD
BRANCH  11  16
ATOM     15  C   UNL     1       8.509   9.467  18.171  0.00  0.00    +0.000 C 
ATOM     16  C   UNL     1       8.429   8.128  18.152  0.00  0.00    +0.000 C 
ENDBRANCH  11  16
ENDBRANCH   1  13
BRANCH   8  17
ATOM     17  C   UNL     1       2.303   5.866  20.629  0.00  0.00    +0.000 C 
BRANCH  17  18
ATOM     18  C   UNL     1       1.733   7.194  20.164  0.00  0.00    +0.000 A 
ATOM     19  C   UNL     1       1.978   7.666  18.869  0.00  0.00    +0.000 A 
ATOM     20  C   UNL     1       1.615   8.969  18.506  0.00  0.00    +0.000 A 
ATOM     21  C   UNL     1       0.999   9.840  19.425  0.00  0.00    +0.000 A 
ATOM     22  C   UNL     1       0.659   9.324  20.683  0.00  0.00    +0.000 A 
ATOM     23 BR   UNL     1      -0.289  10.327  21.992  0.00  0.00    +0.000 Br
ATOM     24  C   UNL     1       1.026   8.020  21.046  0.00  0.00    +0.000 A 
BRANCH  21  25
ATOM     25  C   UNL     1       0.869  11.311  19.063  0.00  0.00    +0.000 C 
BRANCH  25  26
ATOM     26  N   UNL     1       2.076  12.123  19.299  0.00  0.00    +0.000 NA
ATOM     27  C   UNL     1       2.397  12.949  18.131  0.00  0.00    +0.000 C 
ATOM     28  C   UNL     1       1.857  12.997  20.459  0.00  0.00    +0.000 C 
ENDBRANCH  25  26
ENDBRANCH  21  25
ENDBRANCH  17  18
ENDBRANCH   8  17
TORSDOF 6
ENDMDL
MODEL 4
REMARK VINA RESULT:      -7.8      2.997      4.803
REMARK  Name = 
REMARK  8 active torsions:
REMARK  status: ('A' for Active; 'I' for Inactive)
REMARK    1  A    between atoms: C_2  and  C_3
REMARK    2  A    between atoms: N_5  and  C_6
REMARK    3  A    between atoms: C_13  and  C_14
REMARK    4  A    between atoms: C_14  and  C_15
REMARK    5  A    between atoms: C_18  and  C_19
REMARK    6  A    between atoms: C_19  and  N_20
REMARK    7  A    between atoms: N_20  and  C_21
REMARK    8  A    between atoms: N_20  and  C_22
REMARK                            x       y       z     vdW  Elec       q    Type
REMARK                         _______ _______ _______ _____ _____    ______ ____
ROOT
ATOM      1  C   UNL     1       5.579   4.382  14.421  0.00  0.00    +0.000 A 
ATOM      2  C   UNL     1       6.966   4.421  14.477  0.00  0.00    +0.000 A 
ATOM      3  C   UNL     1       7.611   4.777  15.664  0.00  0.00    +0.000 A 
ATOM      4  C   UNL     1       6.914   5.051  16.824  0.00  0.00    +0.000 A 
ATOM      5  N   UNL     1       7.623   5.324  17.922  0.00  0.00    +0.000 NA
ATOM      6  C   UNL     1       6.937   5.529  19.051  0.00  0.00    +0.000 A 
ATOM      7  N   UNL     1       5.608   5.472  19.183  0.00  0.00    +0.000 NA
ATOM      8  C   UNL     1       4.898   5.190  18.062  0.00  0.00    +0.000 A 
ATOM      9  C   UNL     1       5.508   5.002  16.802  0.00  0.00    +0.000 A 
ATOM     10  C   UNL     1       4.855   4.735  15.566  0.00  0.00    +0.000 A 
ENDROOT
BRANCH   1  13
ATOM     11  C   UNL     1       5.424   3.293  12.199  0.00  0.00    +0.000 C 
ATOM     12  O   UNL     1       6.603   2.998  12.050  0.00  0.00    +0.000 OA
ATOM     13  N   UNL     1       4.866   3.960  13.277  0.00  0.00    +0.000 N 
ATOM     14  H   UNL     1       3.858   3.994  13.331  0.00  0.00    +0.000 HD
BRANCH  11  16
ATOM     15  C   UNL     1       3.601   3.784  10.639  0.00  0.00    +0.000 C 
ATOM     16  C   UNL     1       4.404   2.868  11.201  0.00  0.00    +0.000 C 
ENDBRANCH  11  16
ENDBRANCH   1  13
BRANCH   8  17
ATOM     17  C   UNL     1       3.416   4.945  18.305  0.00  0.00    +0.000 C 
BRANCH  17  18
ATOM     18  C   UNL     1       2.753   6.082  19.061  0.00  0.00    +0.000 A 
ATOM     19  C   UNL     1       2.198   5.873  20.330  0.00  0.00    +0.000 A 
ATOM     20  C   UNL     1       1.424   6.868  20.940  0.00  0.00    +0.000 A 
ATOM     21  C   UNL     1       1.178   8.099  20.303  0.00  0.00    +0.000 A 
ATOM     22  C   UNL     1       1.827   8.341  19.084  0.00  0.00    +0.000 A 
ATOM     23 BR   UNL     1       1.706   9.997  18.157  0.00  0.00    +0.000 Br
ATOM     24  C   UNL     1       2.600   7.343  18.473  0.00  0.00    +0.000 A 
BRANCH  21  25
ATOM     25  C   UNL     1       0.125   9.028  20.886  0.00  0.00    +0.000 C 
BRANCH  25  26
ATOM     26  N   UNL     1       0.622   9.985  21.891  0.00  0.00    +0.000 NA
ATOM     27  C   UNL     1       0.394  11.369  21.464  0.00  0.00    +0.000 C 
ATOM     28  C   UNL     1      -0.070   9.756  23.166  0.00  0.00    +0.000 C 
ENDBRANCH  25  26
ENDBRANCH  21  25
ENDBRANCH  17  18
ENDBRANCH   8  17
TORSDOF 6
ENDMDL
MODEL 5
REMARK VINA RESULT:      -7.6      1.055      1.271
REMARK  Name = 
REMARK  8 active torsions:
REMARK  status: ('A' for Active; 'I' for Inactive)
REMARK    1  A    between atoms: C_2  and  C_3
REMARK    2  A    between atoms: N_5  and  C_6
REMARK    3  A    between atoms: C_13  and  C_14
REMARK    4  A    between atoms: C_14  and  C_15
REMARK    5  A    between atoms: C_18  and  C_19
REMARK    6  A    between atoms: C_19  and  N_20
REMARK    7  A    between atoms: N_20  and  C_21
REMARK    8  A    between atoms: N_20  and  C_22
REMARK                            x       y       z     vdW  Elec       q    Type
REMARK                         _______ _______ _______ _____ _____    ______ ____
ROOT
ATOM      1  C   UNL     1       5.876   6.441  17.037  0.00  0.00    +0.000 A 
ATOM      2  C   UNL     1       5.776   5.646  15.904  0.00  0.00    +0.000 A 
ATOM      3  C   UNL     1       4.883   4.572  15.876  0.00  0.00    +0.000 A 
ATOM      4  C   UNL     1       4.042   4.290  16.934  0.00  0.00    +0.000 A 
ATOM      5  N   UNL     1       3.183   3.278  16.789  0.00  0.00    +0.000 NA
ATOM      6  C   UNL     1       2.335   3.055  17.797  0.00  0.00    +0.000 A 
ATOM      7  N   UNL     1       2.259   3.759  18.931  0.00  0.00    +0.000 NA
ATOM      8  C   UNL     1       3.133   4.788  19.066  0.00  0.00    +0.000 A 
ATOM      9  C   UNL     1       4.108   5.090  18.089  0.00  0.00    +0.000 A 
ATOM     10  C   UNL     1       5.088   6.120  18.149  0.00  0.00    +0.000 A 
ENDROOT
BRANCH   1  13
ATOM     11  C   UNL     1       7.787   7.727  17.953  0.00  0.00    +0.000 C 
ATOM     12  O   UNL     1       8.179   6.918  18.785  0.00  0.00    +0.000 OA
ATOM     13  N   UNL     1       6.703   7.586  17.105  0.00  0.00    +0.000 N 
ATOM     14  H   UNL     1       6.597   8.267  16.367  0.00  0.00    +0.000 HD
BRANCH  11  16
ATOM     15  C   UNL     1       8.890   9.763  18.749  0.00  0.00    +0.000 C 
ATOM     16  C   UNL     1       8.540   8.990  17.711  0.00  0.00    +0.000 C 
ENDBRANCH  11  16
ENDBRANCH   1  13
BRANCH   8  17
ATOM     17  C   UNL     1       2.877   5.672  20.277  0.00  0.00    +0.000 C 
BRANCH  17  18
ATOM     18  C   UNL     1       2.143   6.952  19.920  0.00  0.00    +0.000 A 
ATOM     19  C   UNL     1       2.230   7.494  18.632  0.00  0.00    +0.000 A 
ATOM     20  C   UNL     1       1.712   8.767  18.360  0.00  0.00    +0.000 A 
ATOM     21  C   UNL     1       1.095   9.537  19.364  0.00  0.00    +0.000 A 
ATOM     22  C   UNL     1       0.915   8.943  20.621  0.00  0.00    +0.000 A 
ATOM     23 BR   UNL     1      -0.010   9.796  22.046  0.00  0.00    +0.000 Br
ATOM     24  C   UNL     1       1.437   7.669  20.893  0.00  0.00    +0.000 A 
BRANCH  21  25
ATOM     25  C   UNL     1       0.793  11.000  19.082  0.00  0.00    +0.000 C 
BRANCH  25  26
ATOM     26  N   UNL     1      -0.415  11.246  18.274  0.00  0.00    +0.000 NA
ATOM     27  C   UNL     1      -1.474  10.285  18.596  0.00  0.00    +0.000 C 
ATOM     28  C   UNL     1      -0.906  12.605  18.532  0.00  0.00    +0.000 C 
ENDBRANCH  25  26
ENDBRANCH  21  25
ENDBRANCH  17  18
ENDBRANCH   8  17
TORSDOF 6
ENDMDL
MODEL 6
REMARK VINA RESULT:      -7.6      2.642      4.262
REMARK  Name = 
REMARK  8 active torsions:
REMARK  status: ('A' for Active; 'I' for Inactive)
REMARK    1  A    between atoms: C_2  and  C_3
REMARK    2  A    between atoms: N_5  and  C_6
REMARK    3  A    between atoms: C_13  and  C_14
REMARK    4  A    between atoms: C_14  and  C_15
REMARK    5  A    between atoms: C_18  and  C_19
REMARK    6  A    between atoms: C_19  and  N_20
REMARK    7  A    between atoms: N_20  and  C_21
REMARK    8  A    between atoms: N_20  and  C_22
REMARK                            x       y       z     vdW  Elec       q    Type
REMARK                         _______ _______ _______ _____ _____    ______ ____
ROOT
ATOM      1  C   UNL     1       5.661   4.279  14.812  0.00  0.00    +0.000 A 
ATOM      2  C   UNL     1       7.043   4.257  14.940  0.00  0.00    +0.000 A 
ATOM      3  C   UNL     1       7.642   4.620  16.148  0.00  0.00    +0.000 A 
ATOM      4  C   UNL     1       6.901   4.961  17.261  0.00  0.00    +0.000 A 
ATOM      5  N   UNL     1       7.565   5.237  18.387  0.00  0.00    +0.000 NA
ATOM      6  C   UNL     1       6.832   5.507  19.471  0.00  0.00    +0.000 A 
ATOM      7  N   UNL     1       5.498   5.515  19.536  0.00  0.00    +0.000 NA
ATOM      8  C   UNL     1       4.833   5.230  18.387  0.00  0.00    +0.000 A 
ATOM      9  C   UNL     1       5.498   4.975  17.167  0.00  0.00    +0.000 A 
ATOM     10  C   UNL     1       4.897   4.700  15.907  0.00  0.00    +0.000 A 
ENDROOT
BRANCH   1  13
ATOM     11  C   UNL     1       5.611   3.476  12.467  0.00  0.00    +0.000 C 
ATOM     12  O   UNL     1       6.814   3.480  12.239  0.00  0.00    +0.000 OA
ATOM     13  N   UNL     1       4.988   3.854  13.644  0.00  0.00    +0.000 N 
ATOM     14  H   UNL     1       4.003   3.649  13.736  0.00  0.00    +0.000 HD
BRANCH  11  16
ATOM     15  C   UNL     1       3.744   3.788  10.912  0.00  0.00    +0.000 C 
ATOM     16  C   UNL     1       4.649   2.959  11.453  0.00  0.00    +0.000 C 
ENDBRANCH  11  16
ENDBRANCH   1  13
BRANCH   8  17
ATOM     17  C   UNL     1       3.331   5.060  18.560  0.00  0.00    +0.000 C 
BRANCH  17  18
ATOM     18  C   UNL     1       2.602   6.386  18.670  0.00  0.00    +0.000 A 
ATOM     19  C   UNL     1       2.428   7.205  17.547  0.00  0.00    +0.000 A 
ATOM     20  C   UNL     1       1.928   8.506  17.686  0.00  0.00    +0.000 A 
ATOM     21  C   UNL     1       1.588   9.030  18.948  0.00  0.00    +0.000 A 
ATOM     22  C   UNL     1       1.662   8.167  20.051  0.00  0.00    +0.000 A 
ATOM     23 BR   UNL     1       1.119   8.676  21.801  0.00  0.00    +0.000 Br
ATOM     24  C   UNL     1       2.166   6.866  19.911  0.00  0.00    +0.000 A 
BRANCH  21  25
ATOM     25  C   UNL     1       1.305  10.518  19.071  0.00  0.00    +0.000 C 
BRANCH  25  26
ATOM     26  N   UNL     1      -0.060  10.862  19.509  0.00  0.00    +0.000 NA
ATOM     27  C   UNL     1      -0.142  12.261  19.938  0.00  0.00    +0.000 C 
ATOM     28  C   UNL     1      -0.997  10.644  18.400  0.00  0.00    +0.000 C 
ENDBRANCH  25  26
ENDBRANCH  21  25
ENDBRANCH  17  18
ENDBRANCH   8  17
TORSDOF 6
ENDMDL
MODEL 7
REMARK VINA RESULT:      -7.6      2.508      3.706
REMARK  Name = 
REMARK  8 active torsions:
REMARK  status: ('A' for Active; 'I' for Inactive)
REMARK    1  A    between atoms: C_2  and  C_3
REMARK    2  A    between atoms: N_5  and  C_6
REMARK    3  A    between atoms: C_13  and  C_14
REMARK    4  A    between atoms: C_14  and  C_15
REMARK    5  A    between atoms: C_18  and  C_19
REMARK    6  A    between atoms: C_19  and  N_20
REMARK    7  A    between atoms: N_20  and  C_21
REMARK    8  A    between atoms: N_20  and  C_22
REMARK                            x       y       z     vdW  Elec       q    Type
REMARK                         _______ _______ _______ _____ _____    ______ ____
ROOT
ATOM      1  C   UNL     1       4.603   5.161  16.914  0.00  0.00    +0.000 A 
ATOM      2  C   UNL     1       4.412   4.120  17.811  0.00  0.00    +0.000 A 
ATOM      3  C   UNL     1       3.671   4.324  18.977  0.00  0.00    +0.000 A 
ATOM      4  C   UNL     1       3.065   5.532  19.259  0.00  0.00    +0.000 A 
ATOM      5  N   UNL     1       2.329   5.611  20.371  0.00  0.00    +0.000 NA
ATOM      6  C   UNL     1       1.700   6.768  20.599  0.00  0.00    +0.000 A 
ATOM      7  N   UNL     1       1.731   7.847  19.812  0.00  0.00    +0.000 NA
ATOM      8  C   UNL     1       2.478   7.755  18.684  0.00  0.00    +0.000 A 
ATOM      9  C   UNL     1       3.226   6.601  18.359  0.00  0.00    +0.000 A 
ATOM     10  C   UNL     1       4.062   6.415  17.223  0.00  0.00    +0.000 A 
ENDROOT
BRANCH   1  13
ATOM     11  C   UNL     1       6.646   4.854  15.545  0.00  0.00    +0.000 C 
ATOM     12  O   UNL     1       7.480   4.866  16.442  0.00  0.00    +0.000 OA
ATOM     13  N   UNL     1       5.277   5.004  15.682  0.00  0.00    +0.000 N 
ATOM     14  H   UNL     1       4.705   4.816  14.871  0.00  0.00    +0.000 HD
BRANCH  11  16
ATOM     15  C   UNL     1       6.241   3.882  13.334  0.00  0.00    +0.000 C 
ATOM     16  C   UNL     1       7.053   4.584  14.137  0.00  0.00    +0.000 C 
ENDBRANCH  11  16
ENDBRANCH   1  13
BRANCH   8  17
ATOM     17  C   UNL     1       2.322   8.931  17.732  0.00  0.00    +0.000 C 
BRANCH  17  18
ATOM     18  C   UNL     1       1.188   9.858  18.130  0.00  0.00    +0.000 A 
ATOM     19  C   UNL     1       1.415  10.945  18.983  0.00  0.00    +0.000 A 
ATOM     20  C   UNL     1       0.340  11.680  19.499  0.00  0.00    +0.000 A 
ATOM     21  C   UNL     1      -0.992  11.354  19.180  0.00  0.00    +0.000 A 
ATOM     22  C   UNL     1      -1.205  10.336  18.240  0.00  0.00    +0.000 A 
ATOM     23 BR   UNL     1      -2.931   9.858  17.604  0.00  0.00    +0.000 Br
ATOM     24  C   UNL     1      -0.127   9.598  17.726  0.00  0.00    +0.000 A 
BRANCH  21  25
ATOM     25  C   UNL     1      -2.114  12.010  19.967  0.00  0.00    +0.000 C 
BRANCH  25  26
ATOM     26  N   UNL     1      -1.679  12.867  21.084  0.00  0.00    +0.000 NA
ATOM     27  C   UNL     1      -2.177  14.237  20.928  0.00  0.00    +0.000 C 
ATOM     28  C   UNL     1      -2.182  12.314  22.348  0.00  0.00    +0.000 C 
ENDBRANCH  25  26
ENDBRANCH  21  25
ENDBRANCH  17  18
ENDBRANCH   8  17
TORSDOF 6
ENDMDL
MODEL 8
REMARK VINA RESULT:      -7.5      2.223      2.690
REMARK  Name = 
REMARK  8 active torsions:
REMARK  status: ('A' for Active; 'I' for Inactive)
REMARK    1  A    between atoms: C_2  and  C_3
REMARK    2  A    between atoms: N_5  and  C_6
REMARK    3  A    between atoms: C_13  and  C_14
REMARK    4  A    between atoms: C_14  and  C_15
REMARK    5  A    between atoms: C_18  and  C_19
REMARK    6  A    between atoms: C_19  and  N_20
REMARK    7  A    between atoms: N_20  and  C_21
REMARK    8  A    between atoms: N_20  and  C_22
REMARK                            x       y       z     vdW  Elec       q    Type
REMARK                         _______ _______ _______ _____ _____    ______ ____
ROOT
ATOM      1  C   UNL     1       4.030   3.784  16.762  0.00  0.00    +0.000 A 
ATOM      2  C   UNL     1       3.253   2.635  16.790  0.00  0.00    +0.000 A 
ATOM      3  C   UNL     1       2.338   2.430  17.826  0.00  0.00    +0.000 A 
ATOM      4  C   UNL     1       2.133   3.366  18.819  0.00  0.00    +0.000 A 
ATOM      5  N   UNL     1       1.195   3.105  19.732  0.00  0.00    +0.000 NA
ATOM      6  C   UNL     1       0.966   4.047  20.653  0.00  0.00    +0.000 A 
ATOM      7  N   UNL     1       1.582   5.230  20.735  0.00  0.00    +0.000 NA
ATOM      8  C   UNL     1       2.531   5.487  19.799  0.00  0.00    +0.000 A 
ATOM      9  C   UNL     1       2.893   4.550  18.806  0.00  0.00    +0.000 A 
ATOM     10  C   UNL     1       3.892   4.708  17.806  0.00  0.00    +0.000 A 
ENDROOT
BRANCH   1  13
ATOM     11  C   UNL     1       6.279   4.297  15.855  0.00  0.00    +0.000 C 
ATOM     12  O   UNL     1       6.913   4.285  16.903  0.00  0.00    +0.000 OA
ATOM     13  N   UNL     1       4.919   4.088  15.706  0.00  0.00    +0.000 N 
ATOM     14  H   UNL     1       4.566   3.974  14.767  0.00  0.00    +0.000 HD
BRANCH  11  16
ATOM     15  C   UNL     1       6.406   4.018  13.426  0.00  0.00    +0.000 C 
ATOM     16  C   UNL     1       6.976   4.475  14.550  0.00  0.00    +0.000 C 
ENDBRANCH  11  16
ENDBRANCH   1  13
BRANCH   8  17
ATOM     17  C   UNL     1       3.058   6.914  19.819  0.00  0.00    +0.000 C 
BRANCH  17  18
ATOM     18  C   UNL     1       1.967   7.943  19.587  0.00  0.00    +0.000 A 
ATOM     19  C   UNL     1       1.672   8.398  18.296  0.00  0.00    +0.000 A 
ATOM     20  C   UNL     1       0.803   9.480  18.104  0.00  0.00    +0.000 A 
ATOM     21  C   UNL     1       0.203  10.141  19.194  0.00  0.00    +0.000 A 
ATOM     22  C   UNL     1       0.417   9.610  20.473  0.00  0.00    +0.000 A 
ATOM     23 BR   UNL     1      -0.418  10.302  22.035  0.00  0.00    +0.000 Br
ATOM     24  C   UNL     1       1.290   8.528  20.664  0.00  0.00    +0.000 A 
BRANCH  21  25
ATOM     25  C   UNL     1      -0.512  11.459  18.946  0.00  0.00    +0.000 C 
BRANCH  25  26
ATOM     26  N   UNL     1      -1.980  11.366  18.850  0.00  0.00    +0.000 NA
ATOM     27  C   UNL     1      -2.632  12.387  19.674  0.00  0.00    +0.000 C 
ATOM     28  C   UNL     1      -2.389  11.545  17.451  0.00  0.00    +0.000 C 
ENDBRANCH  25  26
ENDBRANCH  21  25
ENDBRANCH  17  18
ENDBRANCH   8  17
TORSDOF 6
ENDMDL
MODEL 9
REMARK VINA RESULT:      -7.4      1.270      1.487
REMARK  Name = 
REMARK  8 active torsions:
REMARK  status: ('A' for Active; 'I' for Inactive)
REMARK    1  A    between atoms: C_2  and  C_3
REMARK    2  A    between atoms: N_5  and  C_6
REMARK    3  A    between atoms: C_13  and  C_14
REMARK    4  A    between atoms: C_14  and  C_15
REMARK    5  A    between atoms: C_18  and  C_19
REMARK    6  A    between atoms: C_19  and  N_20
REMARK    7  A    between atoms: N_20  and  C_21
REMARK    8  A    between atoms: N_20  and  C_22
REMARK                            x       y       z     vdW  Elec       q    Type
REMARK                         _______ _______ _______ _____ _____    ______ ____
ROOT
ATOM      1  C   UNL     1       4.838   5.474  17.675  0.00  0.00    +0.000 A 
ATOM      2  C   UNL     1       4.456   4.472  16.795  0.00  0.00    +0.000 A 
ATOM      3  C   UNL     1       3.361   3.657  17.090  0.00  0.00    +0.000 A 
ATOM      4  C   UNL     1       2.594   3.841  18.223  0.00  0.00    +0.000 A 
ATOM      5  N   UNL     1       1.532   3.049  18.388  0.00  0.00    +0.000 NA
ATOM      6  C   UNL     1       0.765   3.279  19.458  0.00  0.00    +0.000 A 
ATOM      7  N   UNL     1       0.957   4.236  20.371  0.00  0.00    +0.000 NA
ATOM      8  C   UNL     1       2.037   5.038  20.192  0.00  0.00    +0.000 A 
ATOM      9  C   UNL     1       2.946   4.862  19.125  0.00  0.00    +0.000 A 
ATOM     10  C   UNL     1       4.120   5.623  18.868  0.00  0.00    +0.000 A 
ENDROOT
BRANCH   1  13
ATOM     11  C   UNL     1       7.081   6.440  18.104  0.00  0.00    +0.000 C 
ATOM     12  O   UNL     1       7.399   5.758  19.070  0.00  0.00    +0.000 OA
ATOM     13  N   UNL     1       5.888   6.380  17.403  0.00  0.00    +0.000 N 
ATOM     14  H   UNL     1       5.832   6.894  16.536  0.00  0.00    +0.000 HD
BRANCH  11  16
ATOM     15  C   UNL     1       7.927   8.717  17.788  0.00  0.00    +0.000 C 
ATOM     16  C   UNL     1       8.043   7.410  17.510  0.00  0.00    +0.000 C 
ENDBRANCH  11  16
ENDBRANCH   1  13
BRANCH   8  17
ATOM     17  C   UNL     1       2.098   6.225  21.141  0.00  0.00    +0.000 C 
BRANCH  17  18
ATOM     18  C   UNL     1       1.536   7.494  20.527  0.00  0.00    +0.000 A 
ATOM     19  C   UNL     1       1.830   7.842  19.203  0.00  0.00    +0.000 A 
ATOM     20  C   UNL     1       1.470   9.099  18.701  0.00  0.00    +0.000 A 
ATOM     21  C   UNL     1       0.808  10.047  19.505  0.00  0.00    +0.000 A 
ATOM     22  C   UNL     1       0.421   9.650  20.792  0.00  0.00    +0.000 A 
ATOM     23 BR   UNL     1      -0.590  10.761  21.958  0.00  0.00    +0.000 Br
ATOM     24  C   UNL     1       0.784   8.392  21.294  0.00  0.00    +0.000 A 
BRANCH  21  25
ATOM     25  C   UNL     1       0.680  11.474  18.997  0.00  0.00    +0.000 C 
BRANCH  25  26
ATOM     26  N   UNL     1       1.780  12.377  19.380  0.00  0.00    +0.000 NA
ATOM     27  C   UNL     1       2.534  12.824  18.206  0.00  0.00    +0.000 C 
ATOM     28  C   UNL     1       1.231  13.549  20.074  0.00  0.00    +0.000 C 
ENDBRANCH  25  26
ENDBRANCH  21  25
ENDBRANCH  17  18
ENDBRANCH   8  17
TORSDOF 6
ENDMDL
