MODEL 1
REMARK VINA RESULT:      -8.1      0.000      0.000
REMARK  Name = 
REMARK  11 active torsions:
REMARK  status: ('A' for Active; 'I' for Inactive)
REMARK    1  A    between atoms: C_1  and  C_2
REMARK    2  A    between atoms: C_2  and  O_3
REMARK    3  A    between atoms: O_3  and  C_4
REMARK    4  A    between atoms: C_4  and  C_6
REMARK    5  A    between atoms: C_6  and  C_7
REMARK    6  A    between atoms: C_7  and  C_8
REMARK    7  A    between atoms: C_8  and  C_9
REMARK    8  A    between atoms: C_9  and  C_10
REMARK    9  A    between atoms: C_10  and  C_11
REMARK   10  A    between atoms: C_11  and  C_12
REMARK   11  A    between atoms: N_20  and  C_21
REMARK                            x       y       z     vdW  Elec       q    Type
REMARK                         _______ _______ _______ _____ _____    ______ ____
ROOT
ATOM      1  C   UNL     1       4.289   4.622  17.422  0.00  0.00    +0.000 C 
ATOM      2  C   UNL     1       3.889   6.079  17.635  0.00  0.00    +0.000 C 
ATOM      3  O   UNL     1       4.399   7.025  17.066  0.00  0.00    +0.000 OA
ATOM      4  N   UNL     1       2.844   6.188  18.491  0.00  0.00    +0.000 N 
ATOM      5  C   UNL     1       2.499   4.908  18.938  0.00  0.00    +0.000 A 
ATOM      6  C   UNL     1       1.516   4.564  19.872  0.00  0.00    +0.000 A 
ATOM      7  C   UNL     1       1.360   3.214  20.209  0.00  0.00    +0.000 A 
ATOM      8  C   UNL     1       2.184   2.232  19.620  0.00  0.00    +0.000 A 
ATOM      9  C   UNL     1       3.173   2.599  18.689  0.00  0.00    +0.000 A 
ATOM     10  C   UNL     1       3.311   3.949  18.361  0.00  0.00    +0.000 A 
ENDROOT
BRANCH   4  11
ATOM     11  C   UNL     1       2.174   7.402  18.820  0.00  0.00    +0.000 A 
ATOM     12  C   UNL     1       1.807   8.302  17.806  0.00  0.00    +0.000 A 
ATOM     13  C   UNL     1       1.188   9.516  18.133  0.00  0.00    +0.000 A 
ATOM     14  C   UNL     1       0.924   9.828  19.468  0.00  0.00    +0.000 A 
ATOM     15  C   UNL     1       1.276   8.930  20.481  0.00  0.00    +0.000 A 
ATOM     16  C   UNL     1       1.909   7.726  20.161  0.00  0.00    +0.000 A 
ENDBRANCH   4  11
BRANCH   1  17
ATOM     17  C   UNL     1       5.762   4.387  17.857  0.00  0.00    +0.000 C 
BRANCH  17  18
ATOM     18  C   UNL     1       6.029   4.707  19.346  0.00  0.00    +0.000 C 
BRANCH  18  19
ATOM     19  C   UNL     1       7.085   5.806  19.494  0.00  0.00    +0.000 C 
BRANCH  19  20
ATOM     20  C   UNL     1       7.828   6.059  18.180  0.00  0.00    +0.000 C 
BRANCH  20  21
ATOM     21  C   UNL     1       7.909   7.537  17.877  0.00  0.00    +0.000 C 
ATOM     22  O   UNL     1       7.315   7.971  16.907  0.00  0.00    +0.000 OA
BRANCH  21  23
ATOM     23  O   UNL     1       8.598   8.374  18.696  0.00  0.00    +0.000 OA
BRANCH  23  25
ATOM     24  C   UNL     1       9.404  10.459  19.614  0.00  0.00    +0.000 C 
ATOM     25  C   UNL     1       8.719   9.733  18.456  0.00  0.00    +0.000 C 
ENDBRANCH  23  25
ENDBRANCH  21  23
ENDBRANCH  20  21
ENDBRANCH  19  20
ENDBRANCH  18  19
ENDBRANCH  17  18
ENDBRANCH   1  17
BRANCH   1  26
ATOM     26  C   UNL     1       4.082   4.143  15.934  0.00  0.00    +0.000 C 
BRANCH  26  27
ATOM     27  C   UNL     1       5.269   4.317  14.989  0.00  0.00    +0.000 A 
ATOM     28  C   UNL     1       5.316   3.652  13.753  0.00  0.00    +0.000 A 
ATOM     29  C   UNL     1       6.402   3.821  12.901  0.00  0.00    +0.000 A 
ATOM     30  N   UNL     1       7.411   4.658  13.244  0.00  0.00    +0.000 NA
ATOM     31  C   UNL     1       7.393   5.352  14.414  0.00  0.00    +0.000 A 
ATOM     32  C   UNL     1       6.327   5.188  15.313  0.00  0.00    +0.000 A 
ENDBRANCH  26  27
ENDBRANCH   1  26
TORSDOF 10
ENDMDL
MODEL 2
REMARK VINA RESULT:      -7.9      4.489      8.481
REMARK  Name = 
REMARK  11 active torsions:
REMARK  status: ('A' for Active; 'I' for Inactive)
REMARK    1  A    between atoms: C_1  and  C_2
REMARK    2  A    between atoms: C_2  and  O_3
REMARK    3  A    between atoms: O_3  and  C_4
REMARK    4  A    between atoms: C_4  and  C_6
REMARK    5  A    between atoms: C_6  and  C_7
REMARK    6  A    between atoms: C_7  and  C_8
REMARK    7  A    between atoms: C_8  and  C_9
REMARK    8  A    between atoms: C_9  and  C_10
REMARK    9  A    between atoms: C_10  and  C_11
REMARK   10  A    between atoms: C_11  and  C_12
REMARK   11  A    between atoms: N_20  and  C_21
REMARK                            x       y       z     vdW  Elec       q    Type
REMARK                         _______ _______ _______ _____ _____    ______ ____
ROOT
ATOM      1  C   UNL     1      -0.094  10.647  18.969  0.00  0.00    +0.000 C 
ATOM      2  C   UNL     1      -0.558  12.101  18.971  0.00  0.00    +0.000 C 
ATOM      3  O   UNL     1      -0.588  12.817  17.988  0.00  0.00    +0.000 OA
ATOM      4  N   UNL     1      -0.997  12.481  20.195  0.00  0.00    +0.000 N 
ATOM      5  C   UNL     1      -0.839  11.408  21.078  0.00  0.00    +0.000 A 
ATOM      6  C   UNL     1      -1.111  11.382  22.450  0.00  0.00    +0.000 A 
ATOM      7  C   UNL     1      -0.840  10.207  23.161  0.00  0.00    +0.000 A 
ATOM      8  C   UNL     1      -0.300   9.083  22.502  0.00  0.00    +0.000 A 
ATOM      9  C   UNL     1      -0.024   9.131  21.124  0.00  0.00    +0.000 A 
ATOM     10  C   UNL     1      -0.305  10.310  20.429  0.00  0.00    +0.000 A 
ENDROOT
BRANCH   4  11
ATOM     11  C   UNL     1      -1.585  13.743  20.502  0.00  0.00    +0.000 A 
ATOM     12  C   UNL     1      -0.769  14.863  20.733  0.00  0.00    +0.000 A 
ATOM     13  C   UNL     1      -1.345  16.093  21.077  0.00  0.00    +0.000 A 
ATOM     14  C   UNL     1      -2.732  16.211  21.180  0.00  0.00    +0.000 A 
ATOM     15  C   UNL     1      -3.550  15.102  20.939  0.00  0.00    +0.000 A 
ATOM     16  C   UNL     1      -2.979  13.869  20.611  0.00  0.00    +0.000 A 
ENDBRANCH   4  11
BRANCH   1  17
ATOM     17  C   UNL     1       1.402  10.547  18.563  0.00  0.00    +0.000 C 
BRANCH  17  18
ATOM     18  C   UNL     1       1.724   9.325  17.671  0.00  0.00    +0.000 C 
BRANCH  18  19
ATOM     19  C   UNL     1       2.296   8.172  18.499  0.00  0.00    +0.000 C 
BRANCH  19  20
ATOM     20  C   UNL     1       3.368   7.398  17.730  0.00  0.00    +0.000 C 
BRANCH  20  21
ATOM     21  C   UNL     1       3.777   6.148  18.474  0.00  0.00    +0.000 C 
ATOM     22  O   UNL     1       4.934   5.774  18.406  0.00  0.00    +0.000 OA
BRANCH  21  23
ATOM     23  O   UNL     1       2.879   5.475  19.242  0.00  0.00    +0.000 OA
BRANCH  23  25
ATOM     24  C   UNL     1       1.510   4.195  17.717  0.00  0.00    +0.000 C 
ATOM     25  C   UNL     1       2.432   4.201  18.937  0.00  0.00    +0.000 C 
ENDBRANCH  23  25
ENDBRANCH  21  23
ENDBRANCH  20  21
ENDBRANCH  19  20
ENDBRANCH  18  19
ENDBRANCH  17  18
ENDBRANCH   1  17
BRANCH   1  26
ATOM     26  C   UNL     1      -0.969   9.728  18.033  0.00  0.00    +0.000 C 
BRANCH  26  27
ATOM     27  C   UNL     1      -2.262  10.336  17.494  0.00  0.00    +0.000 A 
ATOM     28  C   UNL     1      -2.437  10.567  16.120  0.00  0.00    +0.000 A 
ATOM     29  C   UNL     1      -3.620  11.121  15.642  0.00  0.00    +0.000 A 
ATOM     30  N   UNL     1      -4.629  11.410  16.499  0.00  0.00    +0.000 NA
ATOM     31  C   UNL     1      -4.520  11.170  17.833  0.00  0.00    +0.000 A 
ATOM     32  C   UNL     1      -3.332  10.637  18.357  0.00  0.00    +0.000 A 
ENDBRANCH  26  27
ENDBRANCH   1  26
TORSDOF 10
ENDMDL
MODEL 3
REMARK VINA RESULT:      -7.8      2.628      6.162
REMARK  Name = 
REMARK  11 active torsions:
REMARK  status: ('A' for Active; 'I' for Inactive)
REMARK    1  A    between atoms: C_1  and  C_2
REMARK    2  A    between atoms: C_2  and  O_3
REMARK    3  A    between atoms: O_3  and  C_4
REMARK    4  A    between atoms: C_4  and  C_6
REMARK    5  A    between atoms: C_6  and  C_7
REMARK    6  A    between atoms: C_7  and  C_8
REMARK    7  A    between atoms: C_8  and  C_9
REMARK    8  A    between atoms: C_9  and  C_10
REMARK    9  A    between atoms: C_10  and  C_11
REMARK   10  A    between atoms: C_11  and  C_12
REMARK   11  A    between atoms: N_20  and  C_21
REMARK                            x       y       z     vdW  Elec       q    Type
REMARK                         _______ _______ _______ _____ _____    ______ ____
ROOT
ATOM      1  C   UNL     1       4.303   3.760  17.126  0.00  0.00    +0.000 C 
ATOM      2  C   UNL     1       3.195   4.770  17.410  0.00  0.00    +0.000 C 
ATOM      3  O   UNL     1       2.013   4.576  17.197  0.00  0.00    +0.000 OA
ATOM      4  N   UNL     1       3.682   5.891  17.994  0.00  0.00    +0.000 N 
ATOM      5  C   UNL     1       5.071   5.768  18.108  0.00  0.00    +0.000 A 
ATOM      6  C   UNL     1       5.977   6.713  18.599  0.00  0.00    +0.000 A 
ATOM      7  C   UNL     1       7.341   6.398  18.587  0.00  0.00    +0.000 A 
ATOM      8  C   UNL     1       7.782   5.158  18.083  0.00  0.00    +0.000 A 
ATOM      9  C   UNL     1       6.857   4.223  17.584  0.00  0.00    +0.000 A 
ATOM     10  C   UNL     1       5.499   4.551  17.608  0.00  0.00    +0.000 A 
ENDROOT
BRANCH   4  11
ATOM     11  C   UNL     1       2.893   6.978  18.471  0.00  0.00    +0.000 A 
ATOM     12  C   UNL     1       2.657   8.093  17.649  0.00  0.00    +0.000 A 
ATOM     13  C   UNL     1       1.919   9.180  18.134  0.00  0.00    +0.000 A 
ATOM     14  C   UNL     1       1.405   9.153  19.432  0.00  0.00    +0.000 A 
ATOM     15  C   UNL     1       1.626   8.040  20.250  0.00  0.00    +0.000 A 
ATOM     16  C   UNL     1       2.376   6.961  19.777  0.00  0.00    +0.000 A 
ENDBRANCH   4  11
BRANCH   1  17
ATOM     17  C   UNL     1       4.390   3.451  15.605  0.00  0.00    +0.000 C 
BRANCH  17  18
ATOM     18  C   UNL     1       5.823   3.551  15.032  0.00  0.00    +0.000 C 
BRANCH  18  19
ATOM     19  C   UNL     1       5.846   4.376  13.743  0.00  0.00    +0.000 C 
BRANCH  19  20
ATOM     20  C   UNL     1       6.452   3.591  12.577  0.00  0.00    +0.000 C 
BRANCH  20  21
ATOM     21  C   UNL     1       5.388   2.825  11.826  0.00  0.00    +0.000 C 
ATOM     22  O   UNL     1       5.665   1.732  11.366  0.00  0.00    +0.000 OA
BRANCH  21  23
ATOM     23  O   UNL     1       4.132   3.328  11.700  0.00  0.00    +0.000 OA
BRANCH  23  25
ATOM     24  C   UNL     1       3.064   4.256   9.741  0.00  0.00    +0.000 C 
ATOM     25  C   UNL     1       3.306   3.035  10.629  0.00  0.00    +0.000 C 
ENDBRANCH  23  25
ENDBRANCH  21  23
ENDBRANCH  20  21
ENDBRANCH  19  20
ENDBRANCH  18  19
ENDBRANCH  17  18
ENDBRANCH   1  17
BRANCH   1  26
ATOM     26  C   UNL     1       4.132   2.420  17.939  0.00  0.00    +0.000 C 
BRANCH  26  27
ATOM     27  C   UNL     1       3.183   2.464  19.135  0.00  0.00    +0.000 A 
ATOM     28  C   UNL     1       3.627   2.885  20.399  0.00  0.00    +0.000 A 
ATOM     29  C   UNL     1       2.752   2.921  21.479  0.00  0.00    +0.000 A 
ATOM     30  N   UNL     1       1.452   2.580  21.311  0.00  0.00    +0.000 NA
ATOM     31  C   UNL     1       0.967   2.200  20.098  0.00  0.00    +0.000 A 
ATOM     32  C   UNL     1       1.824   2.126  18.990  0.00  0.00    +0.000 A 
ENDBRANCH  26  27
ENDBRANCH   1  26
TORSDOF 10
ENDMDL
MODEL 4
REMARK VINA RESULT:      -7.8      4.997      8.623
REMARK  Name = 
REMARK  11 active torsions:
REMARK  status: ('A' for Active; 'I' for Inactive)
REMARK    1  A    between atoms: C_1  and  C_2
REMARK    2  A    between atoms: C_2  and  O_3
REMARK    3  A    between atoms: O_3  and  C_4
REMARK    4  A    between atoms: C_4  and  C_6
REMARK    5  A    between atoms: C_6  and  C_7
REMARK    6  A    between atoms: C_7  and  C_8
REMARK    7  A    between atoms: C_8  and  C_9
REMARK    8  A    between atoms: C_9  and  C_10
REMARK    9  A    between atoms: C_10  and  C_11
REMARK   10  A    between atoms: C_11  and  C_12
REMARK   11  A    between atoms: N_20  and  C_21
REMARK                            x       y       z     vdW  Elec       q    Type
REMARK                         _______ _______ _______ _____ _____    ______ ____
ROOT
ATOM      1  C   UNL     1      -0.044  10.496  19.075  0.00  0.00    +0.000 C 
ATOM      2  C   UNL     1      -0.320  11.996  19.019  0.00  0.00    +0.000 C 
ATOM      3  O   UNL     1      -0.256  12.672  18.010  0.00  0.00    +0.000 OA
ATOM      4  N   UNL     1      -0.713  12.475  20.224  0.00  0.00    +0.000 N 
ATOM      5  C   UNL     1      -0.695  11.425  21.148  0.00  0.00    +0.000 A 
ATOM      6  C   UNL     1      -0.973  11.485  22.517  0.00  0.00    +0.000 A 
ATOM      7  C   UNL     1      -0.857  10.313  23.274  0.00  0.00    +0.000 A 
ATOM      8  C   UNL     1      -0.460   9.106  22.662  0.00  0.00    +0.000 A 
ATOM      9  C   UNL     1      -0.175   9.067  21.285  0.00  0.00    +0.000 A 
ATOM     10  C   UNL     1      -0.302  10.245  20.545  0.00  0.00    +0.000 A 
ENDROOT
BRANCH   4  11
ATOM     11  C   UNL     1      -1.137  13.812  20.478  0.00  0.00    +0.000 A 
ATOM     12  C   UNL     1      -0.187  14.830  20.662  0.00  0.00    +0.000 A 
ATOM     13  C   UNL     1      -0.604  16.135  20.955  0.00  0.00    +0.000 A 
ATOM     14  C   UNL     1      -1.965  16.429  21.054  0.00  0.00    +0.000 A 
ATOM     15  C   UNL     1      -2.915  15.421  20.860  0.00  0.00    +0.000 A 
ATOM     16  C   UNL     1      -2.504  14.115  20.583  0.00  0.00    +0.000 A 
ENDBRANCH   4  11
BRANCH   1  17
ATOM     17  C   UNL     1       1.430  10.193  18.686  0.00  0.00    +0.000 C 
BRANCH  17  18
ATOM     18  C   UNL     1       1.574   9.102  17.599  0.00  0.00    +0.000 C 
BRANCH  18  19
ATOM     19  C   UNL     1       2.574   8.025  18.027  0.00  0.00    +0.000 C 
BRANCH  19  20
ATOM     20  C   UNL     1       2.320   7.552  19.460  0.00  0.00    +0.000 C 
BRANCH  20  21
ATOM     21  C   UNL     1       2.249   6.045  19.532  0.00  0.00    +0.000 C 
ATOM     22  O   UNL     1       2.796   5.389  18.665  0.00  0.00    +0.000 OA
BRANCH  21  23
ATOM     23  O   UNL     1       1.620   5.430  20.569  0.00  0.00    +0.000 OA
BRANCH  23  25
ATOM     24  C   UNL     1       1.903   3.231  21.530  0.00  0.00    +0.000 C 
ATOM     25  C   UNL     1       1.182   4.118  20.514  0.00  0.00    +0.000 C 
ENDBRANCH  23  25
ENDBRANCH  21  23
ENDBRANCH  20  21
ENDBRANCH  19  20
ENDBRANCH  18  19
ENDBRANCH  17  18
ENDBRANCH   1  17
BRANCH   1  26
ATOM     26  C   UNL     1      -1.024   9.660  18.166  0.00  0.00    +0.000 C 
BRANCH  26  27
ATOM     27  C   UNL     1      -2.253  10.393  17.633  0.00  0.00    +0.000 A 
ATOM     28  C   UNL     1      -2.466  10.542  16.252  0.00  0.00    +0.000 A 
ATOM     29  C   UNL     1      -3.590  11.211  15.780  0.00  0.00    +0.000 A 
ATOM     30  N   UNL     1      -4.509  11.695  16.651  0.00  0.00    +0.000 NA
ATOM     31  C   UNL     1      -4.364  11.543  17.995  0.00  0.00    +0.000 A 
ATOM     32  C   UNL     1      -3.230  10.897  18.511  0.00  0.00    +0.000 A 
ENDBRANCH  26  27
ENDBRANCH   1  26
TORSDOF 10
ENDMDL
MODEL 5
REMARK VINA RESULT:      -7.8      4.487      8.499
REMARK  Name = 
REMARK  11 active torsions:
REMARK  status: ('A' for Active; 'I' for Inactive)
REMARK    1  A    between atoms: C_1  and  C_2
REMARK    2  A    between atoms: C_2  and  O_3
REMARK    3  A    between atoms: O_3  and  C_4
REMARK    4  A    between atoms: C_4  and  C_6
REMARK    5  A    between atoms: C_6  and  C_7
REMARK    6  A    between atoms: C_7  and  C_8
REMARK    7  A    between atoms: C_8  and  C_9
REMARK    8  A    between atoms: C_9  and  C_10
REMARK    9  A    between atoms: C_10  and  C_11
REMARK   10  A    between atoms: C_11  and  C_12
REMARK   11  A    between atoms: N_20  and  C_21
REMARK                            x       y       z     vdW  Elec       q    Type
REMARK                         _______ _______ _______ _____ _____    ______ ____
ROOT
ATOM      1  C   UNL     1      -0.169  10.542  19.016  0.00  0.00    +0.000 C 
ATOM      2  C   UNL     1      -0.541  12.021  18.991  0.00  0.00    +0.000 C 
ATOM      3  O   UNL     1      -0.557  12.712  17.991  0.00  0.00    +0.000 OA
ATOM      4  N   UNL     1      -0.919  12.459  20.217  0.00  0.00    +0.000 N 
ATOM      5  C   UNL     1      -0.801  11.402  21.125  0.00  0.00    +0.000 A 
ATOM      6  C   UNL     1      -1.033  11.429  22.503  0.00  0.00    +0.000 A 
ATOM      7  C   UNL     1      -0.814  10.258  23.239  0.00  0.00    +0.000 A 
ATOM      8  C   UNL     1      -0.365   9.086  22.596  0.00  0.00    +0.000 A 
ATOM      9  C   UNL     1      -0.128   9.081  21.210  0.00  0.00    +0.000 A 
ATOM     10  C   UNL     1      -0.356  10.256  20.491  0.00  0.00    +0.000 A 
ENDROOT
BRANCH   4  11
ATOM     11  C   UNL     1      -1.418  13.764  20.505  0.00  0.00    +0.000 A 
ATOM     12  C   UNL     1      -2.796  13.969  20.682  0.00  0.00    +0.000 A 
ATOM     13  C   UNL     1      -3.290  15.257  20.922  0.00  0.00    +0.000 A 
ATOM     14  C   UNL     1      -2.412  16.340  20.997  0.00  0.00    +0.000 A 
ATOM     15  C   UNL     1      -1.037  16.139  20.834  0.00  0.00    +0.000 A 
ATOM     16  C   UNL     1      -0.541  14.858  20.578  0.00  0.00    +0.000 A 
ENDBRANCH   4  11
BRANCH   1  17
ATOM     17  C   UNL     1       1.306  10.337  18.572  0.00  0.00    +0.000 C 
BRANCH  17  18
ATOM     18  C   UNL     1       1.506   9.138  17.615  0.00  0.00    +0.000 C 
BRANCH  18  19
ATOM     19  C   UNL     1       2.707   8.289  18.038  0.00  0.00    +0.000 C 
BRANCH  19  20
ATOM     20  C   UNL     1       2.363   7.360  19.205  0.00  0.00    +0.000 C 
BRANCH  20  21
ATOM     21  C   UNL     1       2.922   5.975  18.981  0.00  0.00    +0.000 C 
ATOM     22  O   UNL     1       3.554   5.444  19.876  0.00  0.00    +0.000 OA
BRANCH  21  23
ATOM     23  O   UNL     1       2.688   5.314  17.815  0.00  0.00    +0.000 OA
BRANCH  23  25
ATOM     24  C   UNL     1       4.666   4.535  16.666  0.00  0.00    +0.000 C 
ATOM     25  C   UNL     1       3.392   4.184  17.436  0.00  0.00    +0.000 C 
ENDBRANCH  23  25
ENDBRANCH  21  23
ENDBRANCH  20  21
ENDBRANCH  19  20
ENDBRANCH  18  19
ENDBRANCH  17  18
ENDBRANCH   1  17
BRANCH   1  26
ATOM     26  C   UNL     1      -1.127   9.655  18.132  0.00  0.00    +0.000 C 
BRANCH  26  27
ATOM     27  C   UNL     1      -2.368  10.344  17.569  0.00  0.00    +0.000 A 
ATOM     28  C   UNL     1      -3.379  10.823  18.417  0.00  0.00    +0.000 A 
ATOM     29  C   UNL     1      -4.504  11.449  17.891  0.00  0.00    +0.000 A 
ATOM     30  N   UNL     1      -4.617  11.632  16.553  0.00  0.00    +0.000 NA
ATOM     31  C   UNL     1      -3.647  11.217  15.695  0.00  0.00    +0.000 A 
ATOM     32  C   UNL     1      -2.509  10.558  16.185  0.00  0.00    +0.000 A 
ENDBRANCH  26  27
ENDBRANCH   1  26
TORSDOF 10
ENDMDL
MODEL 6
REMARK VINA RESULT:      -7.8      4.500      8.394
REMARK  Name = 
REMARK  11 active torsions:
REMARK  status: ('A' for Active; 'I' for Inactive)
REMARK    1  A    between atoms: C_1  and  C_2
REMARK    2  A    between atoms: C_2  and  O_3
REMARK    3  A    between atoms: O_3  and  C_4
REMARK    4  A    between atoms: C_4  and  C_6
REMARK    5  A    between atoms: C_6  and  C_7
REMARK    6  A    between atoms: C_7  and  C_8
REMARK    7  A    between atoms: C_8  and  C_9
REMARK    8  A    between atoms: C_9  and  C_10
REMARK    9  A    between atoms: C_10  and  C_11
REMARK   10  A    between atoms: C_11  and  C_12
REMARK   11  A    between atoms: N_20  and  C_21
REMARK                            x       y       z     vdW  Elec       q    Type
REMARK                         _______ _______ _______ _____ _____    ______ ____
ROOT
ATOM      1  C   UNL     1      -0.108  10.658  19.016  0.00  0.00    +0.000 C 
ATOM      2  C   UNL     1      -0.574  12.111  19.021  0.00  0.00    +0.000 C 
ATOM      3  O   UNL     1      -0.609  12.827  18.039  0.00  0.00    +0.000 OA
ATOM      4  N   UNL     1      -1.009  12.490  20.247  0.00  0.00    +0.000 N 
ATOM      5  C   UNL     1      -0.846  11.417  21.129  0.00  0.00    +0.000 A 
ATOM      6  C   UNL     1      -1.112  11.389  22.502  0.00  0.00    +0.000 A 
ATOM      7  C   UNL     1      -0.837  10.214  23.211  0.00  0.00    +0.000 A 
ATOM      8  C   UNL     1      -0.298   9.091  22.549  0.00  0.00    +0.000 A 
ATOM      9  C   UNL     1      -0.028   9.141  21.170  0.00  0.00    +0.000 A 
ATOM     10  C   UNL     1      -0.313  10.320  20.477  0.00  0.00    +0.000 A 
ENDROOT
BRANCH   4  11
ATOM     11  C   UNL     1      -1.596  13.751  20.557  0.00  0.00    +0.000 A 
ATOM     12  C   UNL     1      -2.992  13.875  20.651  0.00  0.00    +0.000 A 
ATOM     13  C   UNL     1      -3.571  15.124  20.912  0.00  0.00    +0.000 A 
ATOM     14  C   UNL     1      -2.761  16.246  21.091  0.00  0.00    +0.000 A 
ATOM     15  C   UNL     1      -1.369  16.126  21.011  0.00  0.00    +0.000 A 
ATOM     16  C   UNL     1      -0.788  14.886  20.735  0.00  0.00    +0.000 A 
ENDBRANCH   4  11
BRANCH   1  17
ATOM     17  C   UNL     1       1.386  10.559  18.604  0.00  0.00    +0.000 C 
BRANCH  17  18
ATOM     18  C   UNL     1       1.706   9.337  17.712  0.00  0.00    +0.000 C 
BRANCH  18  19
ATOM     19  C   UNL     1       2.332   8.205  18.531  0.00  0.00    +0.000 C 
BRANCH  19  20
ATOM     20  C   UNL     1       3.352   7.409  17.713  0.00  0.00    +0.000 C 
BRANCH  20  21
ATOM     21  C   UNL     1       3.148   5.922  17.885  0.00  0.00    +0.000 C 
ATOM     22  O   UNL     1       2.209   5.532  18.555  0.00  0.00    +0.000 OA
BRANCH  21  23
ATOM     23  O   UNL     1       3.972   5.034  17.268  0.00  0.00    +0.000 OA
BRANCH  23  25
ATOM     24  C   UNL     1       5.486   4.965  15.386  0.00  0.00    +0.000 C 
ATOM     25  C   UNL     1       5.249   5.361  16.844  0.00  0.00    +0.000 C 
ENDBRANCH  23  25
ENDBRANCH  21  23
ENDBRANCH  20  21
ENDBRANCH  19  20
ENDBRANCH  18  19
ENDBRANCH  17  18
ENDBRANCH   1  17
BRANCH   1  26
ATOM     26  C   UNL     1      -0.986   9.738  18.083  0.00  0.00    +0.000 C 
BRANCH  26  27
ATOM     27  C   UNL     1      -2.272  10.352  17.534  0.00  0.00    +0.000 A 
ATOM     28  C   UNL     1      -2.438  10.578  16.157  0.00  0.00    +0.000 A 
ATOM     29  C   UNL     1      -3.614  11.137  15.670  0.00  0.00    +0.000 A 
ATOM     30  N   UNL     1      -4.627  11.436  16.519  0.00  0.00    +0.000 NA
ATOM     31  C   UNL     1      -4.527  11.201  17.856  0.00  0.00    +0.000 A 
ATOM     32  C   UNL     1      -3.346  10.663  18.389  0.00  0.00    +0.000 A 
ENDBRANCH  26  27
ENDBRANCH   1  26
TORSDOF 10
ENDMDL
MODEL 7
REMARK VINA RESULT:      -7.7      4.398      8.252
REMARK  Name = 
REMARK  11 active torsions:
REMARK  status: ('A' for Active; 'I' for Inactive)
REMARK    1  A    between atoms: C_1  and  C_2
REMARK    2  A    between atoms: C_2  and  O_3
REMARK    3  A    between atoms: O_3  and  C_4
REMARK    4  A    between atoms: C_4  and  C_6
REMARK    5  A    between atoms: C_6  and  C_7
REMARK    6  A    between atoms: C_7  and  C_8
REMARK    7  A    between atoms: C_8  and  C_9
REMARK    8  A    between atoms: C_9  and  C_10
REMARK    9  A    between atoms: C_10  and  C_11
REMARK   10  A    between atoms: C_11  and  C_12
REMARK   11  A    between atoms: N_20  and  C_21
REMARK                            x       y       z     vdW  Elec       q    Type
REMARK                         _______ _______ _______ _____ _____    ______ ____
ROOT
ATOM      1  C   UNL     1      -0.073  10.501  18.890  0.00  0.00    +0.000 C 
ATOM      2  C   UNL     1      -0.523  11.958  18.934  0.00  0.00    +0.000 C 
ATOM      3  O   UNL     1      -0.587  12.690  17.965  0.00  0.00    +0.000 OA
ATOM      4  N   UNL     1      -0.911  12.321  20.181  0.00  0.00    +0.000 N 
ATOM      5  C   UNL     1      -0.727  11.233  21.039  0.00  0.00    +0.000 A 
ATOM      6  C   UNL     1      -0.944  11.186  22.420  0.00  0.00    +0.000 A 
ATOM      7  C   UNL     1      -0.656   9.997  23.101  0.00  0.00    +0.000 A 
ATOM      8  C   UNL     1      -0.152   8.880  22.403  0.00  0.00    +0.000 A 
ATOM      9  C   UNL     1       0.069   8.949  21.015  0.00  0.00    +0.000 A 
ATOM     10  C   UNL     1      -0.229  10.142  20.352  0.00  0.00    +0.000 A 
ENDROOT
BRANCH   4  11
ATOM     11  C   UNL     1      -1.474  13.583  20.531  0.00  0.00    +0.000 A 
ATOM     12  C   UNL     1      -0.637  14.673  20.821  0.00  0.00    +0.000 A 
ATOM     13  C   UNL     1      -1.190  15.901  21.208  0.00  0.00    +0.000 A 
ATOM     14  C   UNL     1      -2.576  16.047  21.294  0.00  0.00    +0.000 A 
ATOM     15  C   UNL     1      -3.415  14.968  20.994  0.00  0.00    +0.000 A 
ATOM     16  C   UNL     1      -2.867  13.737  20.624  0.00  0.00    +0.000 A 
ENDBRANCH   4  11
BRANCH   1  17
ATOM     17  C   UNL     1       1.405  10.395  18.423  0.00  0.00    +0.000 C 
BRANCH  17  18
ATOM     18  C   UNL     1       1.705   9.127  17.590  0.00  0.00    +0.000 C 
BRANCH  18  19
ATOM     19  C   UNL     1       2.740   8.241  18.286  0.00  0.00    +0.000 C 
BRANCH  19  20
ATOM     20  C   UNL     1       2.183   6.848  18.589  0.00  0.00    +0.000 C 
BRANCH  20  21
ATOM     21  C   UNL     1       3.133   5.769  18.126  0.00  0.00    +0.000 C 
ATOM     22  O   UNL     1       2.675   4.744  17.654  0.00  0.00    +0.000 OA
BRANCH  21  23
ATOM     23  O   UNL     1       4.478   5.955  18.195  0.00  0.00    +0.000 OA
BRANCH  23  25
ATOM     24  C   UNL     1       5.121   6.509  15.932  0.00  0.00    +0.000 C 
ATOM     25  C   UNL     1       5.339   5.626  17.161  0.00  0.00    +0.000 C 
ENDBRANCH  23  25
ENDBRANCH  21  23
ENDBRANCH  20  21
ENDBRANCH  19  20
ENDBRANCH  18  19
ENDBRANCH  17  18
ENDBRANCH   1  17
BRANCH   1  26
ATOM     26  C   UNL     1      -0.993   9.604  17.975  0.00  0.00    +0.000 C 
BRANCH  26  27
ATOM     27  C   UNL     1      -2.287  10.242  17.474  0.00  0.00    +0.000 A 
ATOM     28  C   UNL     1      -3.317  10.589  18.363  0.00  0.00    +0.000 A 
ATOM     29  C   UNL     1      -4.490  11.169  17.893  0.00  0.00    +0.000 A 
ATOM     30  N   UNL     1      -4.634  11.437  16.573  0.00  0.00    +0.000 NA
ATOM     31  C   UNL     1      -3.649  11.153  15.678  0.00  0.00    +0.000 A 
ATOM     32  C   UNL     1      -2.461  10.542  16.109  0.00  0.00    +0.000 A 
ENDBRANCH  26  27
ENDBRANCH   1  26
TORSDOF 10
ENDMDL
MODEL 8
REMARK VINA RESULT:      -7.7      4.419      8.183
REMARK  Name = 
REMARK  11 active torsions:
REMARK  status: ('A' for Active; 'I' for Inactive)
REMARK    1  A    between atoms: C_1  and  C_2
REMARK    2  A    between atoms: C_2  and  O_3
REMARK    3  A    between atoms: O_3  and  C_4
REMARK    4  A    between atoms: C_4  and  C_6
REMARK    5  A    between atoms: C_6  and  C_7
REMARK    6  A    between atoms: C_7  and  C_8
REMARK    7  A    between atoms: C_8  and  C_9
REMARK    8  A    between atoms: C_9  and  C_10
REMARK    9  A    between atoms: C_10  and  C_11
REMARK   10  A    between atoms: C_11  and  C_12
REMARK   11  A    between atoms: N_20  and  C_21
REMARK                            x       y       z     vdW  Elec       q    Type
REMARK                         _______ _______ _______ _____ _____    ______ ____
ROOT
ATOM      1  C   UNL     1      -0.073  10.557  18.957  0.00  0.00    +0.000 C 
ATOM      2  C   UNL     1      -0.475  12.029  18.963  0.00  0.00    +0.000 C 
ATOM      3  O   UNL     1      -0.493  12.743  17.978  0.00  0.00    +0.000 OA
ATOM      4  N   UNL     1      -0.876  12.430  20.193  0.00  0.00    +0.000 N 
ATOM      5  C   UNL     1      -0.747  11.354  21.077  0.00  0.00    +0.000 A 
ATOM      6  C   UNL     1      -0.994  11.343  22.454  0.00  0.00    +0.000 A 
ATOM      7  C   UNL     1      -0.760  10.159  23.164  0.00  0.00    +0.000 A 
ATOM      8  C   UNL     1      -0.280   9.012  22.499  0.00  0.00    +0.000 A 
ATOM      9  C   UNL     1      -0.028   9.045  21.115  0.00  0.00    +0.000 A 
ATOM     10  C   UNL     1      -0.272  10.233  20.422  0.00  0.00    +0.000 A 
ENDROOT
BRANCH   4  11
ATOM     11  C   UNL     1      -1.403  13.717  20.507  0.00  0.00    +0.000 A 
ATOM     12  C   UNL     1      -0.536  14.798  20.738  0.00  0.00    +0.000 A 
ATOM     13  C   UNL     1      -1.053  16.051  21.089  0.00  0.00    +0.000 A 
ATOM     14  C   UNL     1      -2.433  16.233  21.197  0.00  0.00    +0.000 A 
ATOM     15  C   UNL     1      -3.302  15.163  20.955  0.00  0.00    +0.000 A 
ATOM     16  C   UNL     1      -2.790  13.907  20.621  0.00  0.00    +0.000 A 
ENDBRANCH   4  11
BRANCH   1  17
ATOM     17  C   UNL     1       1.410  10.392  18.525  0.00  0.00    +0.000 C 
BRANCH  17  18
ATOM     18  C   UNL     1       1.681   9.104  17.712  0.00  0.00    +0.000 C 
BRANCH  18  19
ATOM     19  C   UNL     1       2.460   8.081  18.543  0.00  0.00    +0.000 C 
BRANCH  19  20
ATOM     20  C   UNL     1       2.280   6.659  18.005  0.00  0.00    +0.000 C 
BRANCH  20  21
ATOM     21  C   UNL     1       3.615   5.985  17.791  0.00  0.00    +0.000 C 
ATOM     22  O   UNL     1       3.637   4.806  17.491  0.00  0.00    +0.000 OA
BRANCH  21  23
ATOM     23  O   UNL     1       4.772   6.694  17.890  0.00  0.00    +0.000 OA
BRANCH  23  25
ATOM     24  C   UNL     1       7.129   6.853  17.383  0.00  0.00    +0.000 C 
ATOM     25  C   UNL     1       5.693   6.778  16.861  0.00  0.00    +0.000 C 
ENDBRANCH  23  25
ENDBRANCH  21  23
ENDBRANCH  20  21
ENDBRANCH  19  20
ENDBRANCH  18  19
ENDBRANCH  17  18
ENDBRANCH   1  17
BRANCH   1  26
ATOM     26  C   UNL     1      -1.004   9.673  18.041  0.00  0.00    +0.000 C 
BRANCH  26  27
ATOM     27  C   UNL     1      -2.275  10.336  17.516  0.00  0.00    +0.000 A 
ATOM     28  C   UNL     1      -2.480  10.526  16.140  0.00  0.00    +0.000 A 
ATOM     29  C   UNL     1      -3.643  11.131  15.676  0.00  0.00    +0.000 A 
ATOM     30  N   UNL     1      -4.606  11.512  16.550  0.00  0.00    +0.000 NA
ATOM     31  C   UNL     1      -4.469  11.316  17.889  0.00  0.00    +0.000 A 
ATOM     32  C   UNL     1      -3.298  10.733  18.398  0.00  0.00    +0.000 A 
ENDBRANCH  26  27
ENDBRANCH   1  26
TORSDOF 10
ENDMDL
MODEL 9
REMARK VINA RESULT:      -7.7      0.695      1.100
REMARK  Name = 
REMARK  11 active torsions:
REMARK  status: ('A' for Active; 'I' for Inactive)
REMARK    1  A    between atoms: C_1  and  C_2
REMARK    2  A    between atoms: C_2  and  O_3
REMARK    3  A    between atoms: O_3  and  C_4
REMARK    4  A    between atoms: C_4  and  C_6
REMARK    5  A    between atoms: C_6  and  C_7
REMARK    6  A    between atoms: C_7  and  C_8
REMARK    7  A    between atoms: C_8  and  C_9
REMARK    8  A    between atoms: C_9  and  C_10
REMARK    9  A    between atoms: C_10  and  C_11
REMARK   10  A    between atoms: C_11  and  C_12
REMARK   11  A    between atoms: N_20  and  C_21
REMARK                            x       y       z     vdW  Elec       q    Type
REMARK                         _______ _______ _______ _____ _____    ______ ____
ROOT
ATOM      1  C   UNL     1       4.586   4.524  16.833  0.00  0.00    +0.000 C 
ATOM      2  C   UNL     1       4.135   5.943  17.167  0.00  0.00    +0.000 C 
ATOM      3  O   UNL     1       4.559   6.947  16.627  0.00  0.00    +0.000 OA
ATOM      4  N   UNL     1       3.149   5.946  18.097  0.00  0.00    +0.000 N 
ATOM      5  C   UNL     1       2.895   4.625  18.482  0.00  0.00    +0.000 A 
ATOM      6  C   UNL     1       1.999   4.175  19.456  0.00  0.00    +0.000 A 
ATOM      7  C   UNL     1       1.929   2.801  19.714  0.00  0.00    +0.000 A 
ATOM      8  C   UNL     1       2.753   1.900  19.008  0.00  0.00    +0.000 A 
ATOM      9  C   UNL     1       3.656   2.373  18.039  0.00  0.00    +0.000 A 
ATOM     10  C   UNL     1       3.709   3.746  17.790  0.00  0.00    +0.000 A 
ENDROOT
BRANCH   4  11
ATOM     11  C   UNL     1       2.449   7.102  18.549  0.00  0.00    +0.000 A 
ATOM     12  C   UNL     1       2.041   8.084  17.630  0.00  0.00    +0.000 A 
ATOM     13  C   UNL     1       1.392   9.241  18.079  0.00  0.00    +0.000 A 
ATOM     14  C   UNL     1       1.138   9.416  19.441  0.00  0.00    +0.000 A 
ATOM     15  C   UNL     1       1.532   8.436  20.359  0.00  0.00    +0.000 A 
ATOM     16  C   UNL     1       2.194   7.288  19.917  0.00  0.00    +0.000 A 
ENDBRANCH   4  11
BRANCH   1  17
ATOM     17  C   UNL     1       6.095   4.337  17.151  0.00  0.00    +0.000 C 
BRANCH  17  18
ATOM     18  C   UNL     1       6.424   4.398  18.661  0.00  0.00    +0.000 C 
BRANCH  18  19
ATOM     19  C   UNL     1       6.602   5.844  19.129  0.00  0.00    +0.000 C 
BRANCH  19  20
ATOM     20  C   UNL     1       7.989   6.388  18.778  0.00  0.00    +0.000 C 
BRANCH  20  21
ATOM     21  C   UNL     1       7.895   7.512  17.774  0.00  0.00    +0.000 C 
ATOM     22  O   UNL     1       7.820   7.238  16.590  0.00  0.00    +0.000 OA
BRANCH  21  23
ATOM     23  O   UNL     1       7.852   8.807  18.186  0.00  0.00    +0.000 OA
BRANCH  23  25
ATOM     24  C   UNL     1       9.153  10.839  18.319  0.00  0.00    +0.000 C 
ATOM     25  C   UNL     1       8.903   9.424  18.843  0.00  0.00    +0.000 C 
ENDBRANCH  23  25
ENDBRANCH  21  23
ENDBRANCH  20  21
ENDBRANCH  19  20
ENDBRANCH  18  19
ENDBRANCH  17  18
ENDBRANCH   1  17
BRANCH   1  26
ATOM     26  C   UNL     1       4.297   4.127  15.335  0.00  0.00    +0.000 C 
BRANCH  26  27
ATOM     27  C   UNL     1       5.458   4.272  14.354  0.00  0.00    +0.000 A 
ATOM     28  C   UNL     1       6.553   5.103  14.642  0.00  0.00    +0.000 A 
ATOM     29  C   UNL     1       7.604   5.225  13.740  0.00  0.00    +0.000 A 
ATOM     30  N   UNL     1       7.596   4.512  12.587  0.00  0.00    +0.000 NA
ATOM     31  C   UNL     1       6.575   3.667  12.281  0.00  0.00    +0.000 A 
ATOM     32  C   UNL     1       5.483   3.537  13.153  0.00  0.00    +0.000 A 
ENDBRANCH  26  27
ENDBRANCH   1  26
TORSDOF 10
ENDMDL
