MODEL 1
REMARK VINA RESULT:      -7.4      0.000      0.000
REMARK  Name = 
REMARK  7 active torsions:
REMARK  status: ('A' for Active; 'I' for Inactive)
REMARK    1  A    between atoms: C_1  and  C_2
REMARK    2  A    between atoms: C_2  and  C_3
REMARK    3  A    between atoms: C_8  and  O_9
REMARK    4  A    between atoms: O_9  and  C_10
REMARK    5  A    between atoms: C_13  and  C_14
REMARK    6  A    between atoms: C_14  and  C_15
REMARK    7  A    between atoms: N_19  and  C_20
REMARK                            x       y       z     vdW  Elec       q    Type
REMARK                         _______ _______ _______ _____ _____    ______ ____
ROOT
ATOM      1  C   UNL     1       7.037   5.409  16.581  0.00  0.00    +0.000 A 
ATOM      2  N   UNL     1       7.689   5.814  15.441  0.00  0.00    +0.000 N 
ATOM      3  C   UNL     1       7.222   5.124  14.346  0.00  0.00    +0.000 A 
ATOM      4  C   UNL     1       7.598   5.192  12.999  0.00  0.00    +0.000 A 
ATOM      5  C   UNL     1       6.960   4.333  12.093  0.00  0.00    +0.000 A 
ATOM      6  C   UNL     1       5.993   3.426  12.524  0.00  0.00    +0.000 A 
ATOM      7  C   UNL     1       5.643   3.373  13.878  0.00  0.00    +0.000 A 
ATOM      8  C   UNL     1       6.239   4.251  14.806  0.00  0.00    +0.000 A 
ATOM      9  C   UNL     1       6.071   4.482  16.209  0.00  0.00    +0.000 A 
ATOM     10  H   UNL     1       8.437   6.491  15.408  0.00  0.00    +0.000 HD
ENDROOT
BRANCH   1  12
ATOM     11  C   UNL     1       7.729   7.429  17.867  0.00  0.00    +0.000 C 
ATOM     12  C   UNL     1       7.424   5.938  17.925  0.00  0.00    +0.000 C 
ENDBRANCH   1  12
BRANCH   6  13
ATOM     13  O   UNL     1       5.311   2.536  11.739  0.00  0.00    +0.000 OA
ATOM     14  C   UNL     1       4.102   2.985  11.142  0.00  0.00    +0.000 C 
ENDBRANCH   6  13
BRANCH   9  15
ATOM     15  C   UNL     1       5.086   3.789  17.112  0.00  0.00    +0.000 C 
BRANCH  15  16
ATOM     16  C   UNL     1       3.635   4.311  16.995  0.00  0.00    +0.000 C 
ATOM     17  C   UNL     1       2.578   3.223  17.226  0.00  0.00    +0.000 C 
ATOM     18  C   UNL     1       1.426   3.898  17.959  0.00  0.00    +0.000 C 
ATOM     19  C   UNL     1       1.848   5.343  18.129  0.00  0.00    +0.000 C 
ATOM     20  N   UNL     1       3.310   5.301  18.046  0.00  0.00    +0.000 NA
ATOM     21  C   UNL     1       3.857   6.627  17.781  0.00  0.00    +0.000 C 
ENDBRANCH  15  16
ENDBRANCH   9  15
TORSDOF 4
ENDMDL
MODEL 2
REMARK VINA RESULT:      -7.4      0.929      1.402
REMARK  Name = 
REMARK  7 active torsions:
REMARK  status: ('A' for Active; 'I' for Inactive)
REMARK    1  A    between atoms: C_1  and  C_2
REMARK    2  A    between atoms: C_2  and  C_3
REMARK    3  A    between atoms: C_8  and  O_9
REMARK    4  A    between atoms: O_9  and  C_10
REMARK    5  A    between atoms: C_13  and  C_14
REMARK    6  A    between atoms: C_14  and  C_15
REMARK    7  A    between atoms: N_19  and  C_20
REMARK                            x       y       z     vdW  Elec       q    Type
REMARK                         _______ _______ _______ _____ _____    ______ ____
ROOT
ATOM      1  C   UNL     1       6.903   5.233  16.522  0.00  0.00    +0.000 A 
ATOM      2  N   UNL     1       7.653   5.597  15.429  0.00  0.00    +0.000 N 
ATOM      3  C   UNL     1       7.185   4.978  14.294  0.00  0.00    +0.000 A 
ATOM      4  C   UNL     1       7.641   5.037  12.971  0.00  0.00    +0.000 A 
ATOM      5  C   UNL     1       6.976   4.262  12.010  0.00  0.00    +0.000 A 
ATOM      6  C   UNL     1       5.905   3.443  12.365  0.00  0.00    +0.000 A 
ATOM      7  C   UNL     1       5.477   3.396  13.696  0.00  0.00    +0.000 A 
ATOM      8  C   UNL     1       6.100   4.193  14.678  0.00  0.00    +0.000 A 
ATOM      9  C   UNL     1       5.876   4.410  16.075  0.00  0.00    +0.000 A 
ATOM     10  H   UNL     1       8.462   6.200  15.454  0.00  0.00    +0.000 HD
ENDROOT
BRANCH   1  12
ATOM     11  C   UNL     1       7.677   7.159  17.900  0.00  0.00    +0.000 C 
ATOM     12  C   UNL     1       7.261   5.694  17.899  0.00  0.00    +0.000 C 
ENDBRANCH   1  12
BRANCH   6  13
ATOM     13  O   UNL     1       5.187   2.639  11.522  0.00  0.00    +0.000 OA
ATOM     14  C   UNL     1       3.900   3.092  11.126  0.00  0.00    +0.000 C 
ENDBRANCH   6  13
BRANCH   9  15
ATOM     15  C   UNL     1       4.781   3.796  16.905  0.00  0.00    +0.000 C 
BRANCH  15  16
ATOM     16  C   UNL     1       4.266   4.696  18.052  0.00  0.00    +0.000 C 
ATOM     17  C   UNL     1       3.541   5.954  17.557  0.00  0.00    +0.000 C 
ATOM     18  C   UNL     1       2.405   6.205  18.541  0.00  0.00    +0.000 C 
ATOM     19  C   UNL     1       2.506   5.094  19.565  0.00  0.00    +0.000 C 
ATOM     20  N   UNL     1       3.227   4.027  18.866  0.00  0.00    +0.000 NA
ATOM     21  C   UNL     1       3.767   3.055  19.810  0.00  0.00    +0.000 C 
ENDBRANCH  15  16
ENDBRANCH   9  15
TORSDOF 4
ENDMDL
MODEL 3
REMARK VINA RESULT:      -7.1      3.431      7.087
REMARK  Name = 
REMARK  7 active torsions:
REMARK  status: ('A' for Active; 'I' for Inactive)
REMARK    1  A    between atoms: C_1  and  C_2
REMARK    2  A    between atoms: C_2  and  C_3
REMARK    3  A    between atoms: C_8  and  O_9
REMARK    4  A    between atoms: O_9  and  C_10
REMARK    5  A    between atoms: C_13  and  C_14
REMARK    6  A    between atoms: C_14  and  C_15
REMARK    7  A    between atoms: N_19  and  C_20
REMARK                            x       y       z     vdW  Elec       q    Type
REMARK                         _______ _______ _______ _____ _____    ______ ____
ROOT
ATOM      1  C   UNL     1       2.693   4.712  20.179  0.00  0.00    +0.000 A 
ATOM      2  N   UNL     1       2.030   5.631  20.956  0.00  0.00    +0.000 N 
ATOM      3  C   UNL     1       1.885   6.820  20.280  0.00  0.00    +0.000 A 
ATOM      4  C   UNL     1       1.296   8.027  20.678  0.00  0.00    +0.000 A 
ATOM      5  C   UNL     1       1.321   9.100  19.776  0.00  0.00    +0.000 A 
ATOM      6  C   UNL     1       1.931   8.975  18.528  0.00  0.00    +0.000 A 
ATOM      7  C   UNL     1       2.520   7.760  18.162  0.00  0.00    +0.000 A 
ATOM      8  C   UNL     1       2.477   6.651  19.031  0.00  0.00    +0.000 A 
ATOM      9  C   UNL     1       2.925   5.294  18.939  0.00  0.00    +0.000 A 
ATOM     10  H   UNL     1       1.725   5.478  21.907  0.00  0.00    +0.000 HD
ENDROOT
BRANCH   1  12
ATOM     11  C   UNL     1       1.904   2.735  21.476  0.00  0.00    +0.000 C 
ATOM     12  C   UNL     1       3.063   3.365  20.714  0.00  0.00    +0.000 C 
ENDBRANCH   1  12
BRANCH   6  13
ATOM     13  O   UNL     1       2.026   9.949  17.573  0.00  0.00    +0.000 OA
ATOM     14  C   UNL     1       2.194  11.287  18.019  0.00  0.00    +0.000 C 
ENDBRANCH   6  13
BRANCH   9  15
ATOM     15  C   UNL     1       3.589   4.657  17.748  0.00  0.00    +0.000 C 
BRANCH  15  16
ATOM     16  C   UNL     1       5.007   5.194  17.443  0.00  0.00    +0.000 C 
ATOM     17  C   UNL     1       5.877   5.356  18.696  0.00  0.00    +0.000 C 
ATOM     18  C   UNL     1       7.295   4.987  18.280  0.00  0.00    +0.000 C 
ATOM     19  C   UNL     1       7.202   4.625  16.812  0.00  0.00    +0.000 C 
ATOM     20  N   UNL     1       5.799   4.251  16.624  0.00  0.00    +0.000 NA
ATOM     21  C   UNL     1       5.439   4.268  15.210  0.00  0.00    +0.000 C 
ENDBRANCH  15  16
ENDBRANCH   9  15
TORSDOF 4
ENDMDL
MODEL 4
REMARK VINA RESULT:      -7.0      2.746      6.287
REMARK  Name = 
REMARK  7 active torsions:
REMARK  status: ('A' for Active; 'I' for Inactive)
REMARK    1  A    between atoms: C_1  and  C_2
REMARK    2  A    between atoms: C_2  and  C_3
REMARK    3  A    between atoms: C_8  and  O_9
REMARK    4  A    between atoms: O_9  and  C_10
REMARK    5  A    between atoms: C_13  and  C_14
REMARK    6  A    between atoms: C_14  and  C_15
REMARK    7  A    between atoms: N_19  and  C_20
REMARK                            x       y       z     vdW  Elec       q    Type
REMARK                         _______ _______ _______ _____ _____    ______ ____
ROOT
ATOM      1  C   UNL     1       2.600   7.798  18.386  0.00  0.00    +0.000 A 
ATOM      2  N   UNL     1       1.982   7.359  19.533  0.00  0.00    +0.000 N 
ATOM      3  C   UNL     1       2.321   6.052  19.795  0.00  0.00    +0.000 A 
ATOM      4  C   UNL     1       1.924   5.199  20.832  0.00  0.00    +0.000 A 
ATOM      5  C   UNL     1       2.414   3.886  20.829  0.00  0.00    +0.000 A 
ATOM      6  C   UNL     1       3.257   3.437  19.813  0.00  0.00    +0.000 A 
ATOM      7  C   UNL     1       3.630   4.309  18.783  0.00  0.00    +0.000 A 
ATOM      8  C   UNL     1       3.185   5.646  18.781  0.00  0.00    +0.000 A 
ATOM      9  C   UNL     1       3.419   6.773  17.928  0.00  0.00    +0.000 A 
ATOM     10  H   UNL     1       1.334   7.900  20.087  0.00  0.00    +0.000 HD
ENDROOT
BRANCH   1  12
ATOM     11  C   UNL     1       0.931   9.640  18.206  0.00  0.00    +0.000 C 
ATOM     12  C   UNL     1       2.325   9.157  17.827  0.00  0.00    +0.000 C 
ENDBRANCH   1  12
BRANCH   6  13
ATOM     13  O   UNL     1       3.789   2.182  19.698  0.00  0.00    +0.000 OA
ATOM     14  C   UNL     1       3.563   1.486  18.480  0.00  0.00    +0.000 C 
ENDBRANCH   6  13
BRANCH   9  15
ATOM     15  C   UNL     1       4.321   6.803  16.724  0.00  0.00    +0.000 C 
BRANCH  15  16
ATOM     16  C   UNL     1       5.320   5.625  16.643  0.00  0.00    +0.000 C 
ATOM     17  C   UNL     1       5.029   4.660  15.487  0.00  0.00    +0.000 C 
ATOM     18  C   UNL     1       6.384   4.199  14.966  0.00  0.00    +0.000 C 
ATOM     19  C   UNL     1       7.409   4.906  15.829  0.00  0.00    +0.000 C 
ATOM     20  N   UNL     1       6.696   6.078  16.343  0.00  0.00    +0.000 NA
ATOM     21  C   UNL     1       7.385   6.644  17.498  0.00  0.00    +0.000 C 
ENDBRANCH  15  16
ENDBRANCH   9  15
TORSDOF 4
ENDMDL
MODEL 5
REMARK VINA RESULT:      -7.0      2.863      6.232
REMARK  Name = 
REMARK  7 active torsions:
REMARK  status: ('A' for Active; 'I' for Inactive)
REMARK    1  A    between atoms: C_1  and  C_2
REMARK    2  A    between atoms: C_2  and  C_3
REMARK    3  A    between atoms: C_8  and  O_9
REMARK    4  A    between atoms: O_9  and  C_10
REMARK    5  A    between atoms: C_13  and  C_14
REMARK    6  A    between atoms: C_14  and  C_15
REMARK    7  A    between atoms: N_19  and  C_20
REMARK                            x       y       z     vdW  Elec       q    Type
REMARK                         _______ _______ _______ _____ _____    ______ ____
ROOT
ATOM      1  C   UNL     1       2.883   7.515  18.259  0.00  0.00    +0.000 A 
ATOM      2  N   UNL     1       2.284   7.140  19.438  0.00  0.00    +0.000 N 
ATOM      3  C   UNL     1       2.553   5.820  19.718  0.00  0.00    +0.000 A 
ATOM      4  C   UNL     1       2.145   5.017  20.790  0.00  0.00    +0.000 A 
ATOM      5  C   UNL     1       2.553   3.676  20.800  0.00  0.00    +0.000 A 
ATOM      6  C   UNL     1       3.327   3.154  19.764  0.00  0.00    +0.000 A 
ATOM      7  C   UNL     1       3.712   3.978  18.701  0.00  0.00    +0.000 A 
ATOM      8  C   UNL     1       3.350   5.340  18.682  0.00  0.00    +0.000 A 
ATOM      9  C   UNL     1       3.619   6.431  17.795  0.00  0.00    +0.000 A 
ATOM     10  H   UNL     1       1.693   7.732  20.003  0.00  0.00    +0.000 HD
ENDROOT
BRANCH   1  12
ATOM     11  C   UNL     1       1.270   9.394  17.980  0.00  0.00    +0.000 C 
ATOM     12  C   UNL     1       2.670   8.876  17.677  0.00  0.00    +0.000 C 
ENDBRANCH   1  12
BRANCH   6  13
ATOM     13  O   UNL     1       3.776   1.865  19.659  0.00  0.00    +0.000 OA
ATOM     14  C   UNL     1       3.718   1.256  18.378  0.00  0.00    +0.000 C 
ENDBRANCH   6  13
BRANCH   9  15
ATOM     15  C   UNL     1       4.474   6.379  16.557  0.00  0.00    +0.000 C 
BRANCH  15  16
ATOM     16  C   UNL     1       5.979   6.148  16.828  0.00  0.00    +0.000 C 
ATOM     17  C   UNL     1       6.411   6.563  18.240  0.00  0.00    +0.000 C 
ATOM     18  C   UNL     1       7.466   5.554  18.676  0.00  0.00    +0.000 C 
ATOM     19  C   UNL     1       7.609   4.594  17.513  0.00  0.00    +0.000 C 
ATOM     20  N   UNL     1       6.340   4.714  16.792  0.00  0.00    +0.000 NA
ATOM     21  C   UNL     1       6.455   4.179  15.439  0.00  0.00    +0.000 C 
ENDBRANCH  15  16
ENDBRANCH   9  15
TORSDOF 4
ENDMDL
MODEL 6
REMARK VINA RESULT:      -7.0      1.262      1.819
REMARK  Name = 
REMARK  7 active torsions:
REMARK  status: ('A' for Active; 'I' for Inactive)
REMARK    1  A    between atoms: C_1  and  C_2
REMARK    2  A    between atoms: C_2  and  C_3
REMARK    3  A    between atoms: C_8  and  O_9
REMARK    4  A    between atoms: O_9  and  C_10
REMARK    5  A    between atoms: C_13  and  C_14
REMARK    6  A    between atoms: C_14  and  C_15
REMARK    7  A    between atoms: N_19  and  C_20
REMARK                            x       y       z     vdW  Elec       q    Type
REMARK                         _______ _______ _______ _____ _____    ______ ____
ROOT
ATOM      1  C   UNL     1       6.422   5.726  16.520  0.00  0.00    +0.000 A 
ATOM      2  N   UNL     1       7.404   5.792  15.560  0.00  0.00    +0.000 N 
ATOM      3  C   UNL     1       7.035   5.081  14.442  0.00  0.00    +0.000 A 
ATOM      4  C   UNL     1       7.717   4.859  13.239  0.00  0.00    +0.000 A 
ATOM      5  C   UNL     1       7.100   4.055  12.270  0.00  0.00    +0.000 A 
ATOM      6  C   UNL     1       5.852   3.479  12.506  0.00  0.00    +0.000 A 
ATOM      7  C   UNL     1       5.198   3.710  13.721  0.00  0.00    +0.000 A 
ATOM      8  C   UNL     1       5.776   4.545  14.698  0.00  0.00    +0.000 A 
ATOM      9  C   UNL     1       5.356   5.013  15.985  0.00  0.00    +0.000 A 
ATOM     10  H   UNL     1       8.293   6.258  15.669  0.00  0.00    +0.000 HD
ENDROOT
BRANCH   1  12
ATOM     11  C   UNL     1       7.668   5.586  18.673  0.00  0.00    +0.000 C 
ATOM     12  C   UNL     1       6.613   6.337  17.871  0.00  0.00    +0.000 C 
ENDBRANCH   1  12
BRANCH   6  13
ATOM     13  O   UNL     1       5.157   2.673  11.645  0.00  0.00    +0.000 OA
ATOM     14  C   UNL     1       3.926   3.168  11.138  0.00  0.00    +0.000 C 
ENDBRANCH   6  13
BRANCH   9  15
ATOM     15  C   UNL     1       4.039   4.715  16.652  0.00  0.00    +0.000 C 
BRANCH  15  16
ATOM     16  C   UNL     1       4.157   4.266  18.128  0.00  0.00    +0.000 C 
ATOM     17  C   UNL     1       3.741   5.352  19.127  0.00  0.00    +0.000 C 
ATOM     18  C   UNL     1       3.050   4.630  20.277  0.00  0.00    +0.000 C 
ATOM     19  C   UNL     1       3.086   3.161  19.909  0.00  0.00    +0.000 C 
ATOM     20  N   UNL     1       3.229   3.160  18.451  0.00  0.00    +0.000 NA
ATOM     21  C   UNL     1       3.686   1.860  17.972  0.00  0.00    +0.000 C 
ENDBRANCH  15  16
ENDBRANCH   9  15
TORSDOF 4
ENDMDL
MODEL 7
REMARK VINA RESULT:      -7.0      1.105      1.679
REMARK  Name = 
REMARK  7 active torsions:
REMARK  status: ('A' for Active; 'I' for Inactive)
REMARK    1  A    between atoms: C_1  and  C_2
REMARK    2  A    between atoms: C_2  and  C_3
REMARK    3  A    between atoms: C_8  and  O_9
REMARK    4  A    between atoms: O_9  and  C_10
REMARK    5  A    between atoms: C_13  and  C_14
REMARK    6  A    between atoms: C_14  and  C_15
REMARK    7  A    between atoms: N_19  and  C_20
REMARK                            x       y       z     vdW  Elec       q    Type
REMARK                         _______ _______ _______ _____ _____    ______ ____
ROOT
ATOM      1  C   UNL     1       6.675   5.990  16.529  0.00  0.00    +0.000 A 
ATOM      2  N   UNL     1       7.602   5.856  15.524  0.00  0.00    +0.000 N 
ATOM      3  C   UNL     1       7.083   5.124  14.482  0.00  0.00    +0.000 A 
ATOM      4  C   UNL     1       7.662   4.729  13.269  0.00  0.00    +0.000 A 
ATOM      5  C   UNL     1       6.892   3.949  12.395  0.00  0.00    +0.000 A 
ATOM      6  C   UNL     1       5.595   3.563  12.732  0.00  0.00    +0.000 A 
ATOM      7  C   UNL     1       5.045   3.964  13.954  0.00  0.00    +0.000 A 
ATOM      8  C   UNL     1       5.781   4.782  14.836  0.00  0.00    +0.000 A 
ATOM      9  C   UNL     1       5.497   5.391  16.101  0.00  0.00    +0.000 A 
ATOM     10  H   UNL     1       8.549   6.206  15.556  0.00  0.00    +0.000 HD
ENDROOT
BRANCH   1  12
ATOM     11  C   UNL     1       7.783   5.728  18.746  0.00  0.00    +0.000 C 
ATOM     12  C   UNL     1       7.019   6.665  17.819  0.00  0.00    +0.000 C 
ENDBRANCH   1  12
BRANCH   6  13
ATOM     13  O   UNL     1       4.755   2.799  11.969  0.00  0.00    +0.000 OA
ATOM     14  C   UNL     1       3.894   3.478  11.066  0.00  0.00    +0.000 C 
ENDBRANCH   6  13
BRANCH   9  15
ATOM     15  C   UNL     1       4.192   5.320  16.849  0.00  0.00    +0.000 C 
BRANCH  15  16
ATOM     16  C   UNL     1       3.917   3.958  17.528  0.00  0.00    +0.000 C 
ATOM     17  C   UNL     1       5.042   3.513  18.472  0.00  0.00    +0.000 C 
ATOM     18  C   UNL     1       4.363   2.808  19.639  0.00  0.00    +0.000 C 
ATOM     19  C   UNL     1       2.880   2.868  19.338  0.00  0.00    +0.000 C 
ATOM     20  N   UNL     1       2.745   4.008  18.428  0.00  0.00    +0.000 NA
ATOM     21  C   UNL     1       1.469   3.964  17.722  0.00  0.00    +0.000 C 
ENDBRANCH  15  16
ENDBRANCH   9  15
TORSDOF 4
ENDMDL
MODEL 8
REMARK VINA RESULT:      -6.9      3.454      6.168
REMARK  Name = 
REMARK  7 active torsions:
REMARK  status: ('A' for Active; 'I' for Inactive)
REMARK    1  A    between atoms: C_1  and  C_2
REMARK    2  A    between atoms: C_2  and  C_3
REMARK    3  A    between atoms: C_8  and  O_9
REMARK    4  A    between atoms: O_9  and  C_10
REMARK    5  A    between atoms: C_13  and  C_14
REMARK    6  A    between atoms: C_14  and  C_15
REMARK    7  A    between atoms: N_19  and  C_20
REMARK                            x       y       z     vdW  Elec       q    Type
REMARK                         _______ _______ _______ _____ _____    ______ ____
ROOT
ATOM      1  C   UNL     1       4.832   5.060  17.322  0.00  0.00    +0.000 A 
ATOM      2  N   UNL     1       4.394   6.285  16.878  0.00  0.00    +0.000 N 
ATOM      3  C   UNL     1       3.559   6.864  17.805  0.00  0.00    +0.000 A 
ATOM      4  C   UNL     1       2.874   8.086  17.774  0.00  0.00    +0.000 A 
ATOM      5  C   UNL     1       2.056   8.409  18.866  0.00  0.00    +0.000 A 
ATOM      6  C   UNL     1       1.914   7.532  19.940  0.00  0.00    +0.000 A 
ATOM      7  C   UNL     1       2.602   6.313  19.939  0.00  0.00    +0.000 A 
ATOM      8  C   UNL     1       3.463   5.978  18.874  0.00  0.00    +0.000 A 
ATOM      9  C   UNL     1       4.325   4.868  18.601  0.00  0.00    +0.000 A 
ATOM     10  H   UNL     1       4.615   6.691  15.980  0.00  0.00    +0.000 HD
ENDROOT
BRANCH   1  12
ATOM     11  C   UNL     1       5.397   4.413  14.983  0.00  0.00    +0.000 C 
ATOM     12  C   UNL     1       5.680   4.179  16.461  0.00  0.00    +0.000 C 
ENDBRANCH   1  12
BRANCH   6  13
ATOM     13  O   UNL     1       1.141   7.732  21.051  0.00  0.00    +0.000 OA
ATOM     14  C   UNL     1       1.248   8.989  21.704  0.00  0.00    +0.000 C 
ENDBRANCH   6  13
BRANCH   9  15
ATOM     15  C   UNL     1       4.566   3.687  19.504  0.00  0.00    +0.000 C 
BRANCH  15  16
ATOM     16  C   UNL     1       3.319   2.808  19.754  0.00  0.00    +0.000 C 
ATOM     17  C   UNL     1       2.538   3.207  21.012  0.00  0.00    +0.000 C 
ATOM     18  C   UNL     1       1.065   2.997  20.683  0.00  0.00    +0.000 C 
ATOM     19  C   UNL     1       1.040   2.489  19.256  0.00  0.00    +0.000 C 
ATOM     20  N   UNL     1       2.305   2.959  18.687  0.00  0.00    +0.000 NA
ATOM     21  C   UNL     1       2.633   2.227  17.468  0.00  0.00    +0.000 C 
ENDBRANCH  15  16
ENDBRANCH   9  15
TORSDOF 4
ENDMDL
MODEL 9
REMARK VINA RESULT:      -6.9      2.729      5.010
REMARK  Name = 
REMARK  7 active torsions:
REMARK  status: ('A' for Active; 'I' for Inactive)
REMARK    1  A    between atoms: C_1  and  C_2
REMARK    2  A    between atoms: C_2  and  C_3
REMARK    3  A    between atoms: C_8  and  O_9
REMARK    4  A    between atoms: O_9  and  C_10
REMARK    5  A    between atoms: C_13  and  C_14
REMARK    6  A    between atoms: C_14  and  C_15
REMARK    7  A    between atoms: N_19  and  C_20
REMARK                            x       y       z     vdW  Elec       q    Type
REMARK                         _______ _______ _______ _____ _____    ______ ____
ROOT
ATOM      1  C   UNL     1       2.717   3.994  17.983  0.00  0.00    +0.000 A 
ATOM      2  N   UNL     1       3.336   3.465  16.876  0.00  0.00    +0.000 N 
ATOM      3  C   UNL     1       4.502   4.141  16.604  0.00  0.00    +0.000 A 
ATOM      4  C   UNL     1       5.439   3.963  15.578  0.00  0.00    +0.000 A 
ATOM      5  C   UNL     1       6.536   4.835  15.531  0.00  0.00    +0.000 A 
ATOM      6  C   UNL     1       6.680   5.859  16.466  0.00  0.00    +0.000 A 
ATOM      7  C   UNL     1       5.723   6.019  17.474  0.00  0.00    +0.000 A 
ATOM      8  C   UNL     1       4.630   5.134  17.572  0.00  0.00    +0.000 A 
ATOM      9  C   UNL     1       3.538   4.996  18.487  0.00  0.00    +0.000 A 
ATOM     10  H   UNL     1       2.970   2.712  16.310  0.00  0.00    +0.000 HD
ENDROOT
BRANCH   1  12
ATOM     11  C   UNL     1       1.512   2.593  19.654  0.00  0.00    +0.000 C 
ATOM     12  C   UNL     1       1.381   3.500  18.438  0.00  0.00    +0.000 C 
ENDBRANCH   1  12
BRANCH   6  13
ATOM     13  O   UNL     1       7.698   6.772  16.516  0.00  0.00    +0.000 OA
ATOM     14  C   UNL     1       7.658   7.738  17.556  0.00  0.00    +0.000 C 
ENDBRANCH   6  13
BRANCH   9  15
ATOM     15  C   UNL     1       3.296   5.835  19.714  0.00  0.00    +0.000 C 
BRANCH  15  16
ATOM     16  C   UNL     1       2.044   6.740  19.633  0.00  0.00    +0.000 C 
ATOM     17  C   UNL     1       1.361   6.952  20.991  0.00  0.00    +0.000 C 
ATOM     18  C   UNL     1       0.849   8.387  20.988  0.00  0.00    +0.000 C 
ATOM     19  C   UNL     1       1.250   8.955  19.642  0.00  0.00    +0.000 C 
ATOM     20  N   UNL     1       2.378   8.121  19.222  0.00  0.00    +0.000 NA
ATOM     21  C   UNL     1       2.624   8.256  17.791  0.00  0.00    +0.000 C 
ENDBRANCH  15  16
ENDBRANCH   9  15
TORSDOF 4
ENDMDL
