MODEL 1
REMARK VINA RESULT:      -8.3      0.000      0.000
REMARK  Name = 
REMARK  6 active torsions:
REMARK  status: ('A' for Active; 'I' for Inactive)
REMARK    1  A    between atoms: C_1  and  C_2
REMARK    2  A    between atoms: C_5  and  C_6
REMARK    3  A    between atoms: C_6  and  C_8
REMARK    4  A    between atoms: C_9  and  C_10
REMARK    5  A    between atoms: C_17  and  C_18
REMARK    6  A    between atoms: C_19  and  C_20
REMARK                            x       y       z     vdW  Elec       q    Type
REMARK                         _______ _______ _______ _____ _____    ______ ____
ROOT
ATOM      1  C   UNL     1       3.841   4.755  19.674  0.00  0.00    +0.000 A 
ATOM      2  C   UNL     1       2.729   5.594  19.800  0.00  0.00    +0.000 A 
ATOM      3  S   UNL     1       1.455   4.805  20.647  0.00  0.00    +0.000 S 
ATOM      4  C   UNL     1       2.324   3.353  20.804  0.00  0.00    +0.000 A 
ATOM      5  C   UNL     1       1.704   2.195  21.524  0.00  0.00    +0.000 C 
ATOM      6  C   UNL     1       3.562   3.416  20.195  0.00  0.00    +0.000 A 
ATOM      7  C   UNL     1       4.522   2.267  20.098  0.00  0.00    +0.000 C 
ENDROOT
BRANCH   2   8
ATOM      8  C   UNL     1       2.518   6.994  19.355  0.00  0.00    +0.000 A 
ATOM      9  C   UNL     1       1.829   7.903  20.174  0.00  0.00    +0.000 A 
ATOM     10  C   UNL     1       1.347   9.110  19.659  0.00  0.00    +0.000 A 
ATOM     11  C   UNL     1       1.640   9.479  18.351  0.00  0.00    +0.000 A 
ATOM     12  C   UNL     1       2.431   8.647  17.561  0.00  0.00    +0.000 A 
ATOM     13  C   UNL     1       2.854   7.409  18.055  0.00  0.00    +0.000 A 
ENDBRANCH   2   8
BRANCH   1  14
ATOM     14  C   UNL     1       5.143   5.100  19.042  0.00  0.00    +0.000 C 
ATOM     15  O   UNL     1       6.071   5.546  19.707  0.00  0.00    +0.000 OA
BRANCH  14  20
ATOM     16  C   UNL     1       6.431   3.991  13.508  0.00  0.00    +0.000 C 
ATOM     17  C   UNL     1       6.065   4.351  14.917  0.00  0.00    +0.000 A 
ATOM     18  C   UNL     1       6.961   5.040  15.743  0.00  0.00    +0.000 A 
ATOM     19  C   UNL     1       6.619   5.323  17.069  0.00  0.00    +0.000 A 
ATOM     20  C   UNL     1       5.378   4.914  17.583  0.00  0.00    +0.000 A 
ATOM     21  C   UNL     1       4.462   4.279  16.746  0.00  0.00    +0.000 A 
ATOM     22  C   UNL     1       4.818   3.968  15.431  0.00  0.00    +0.000 A 
ENDBRANCH  14  20
ENDBRANCH   1  14
TORSDOF 3
ENDMDL
MODEL 2
REMARK VINA RESULT:      -8.3      0.227      1.038
REMARK  Name = 
REMARK  6 active torsions:
REMARK  status: ('A' for Active; 'I' for Inactive)
REMARK    1  A    between atoms: C_1  and  C_2
REMARK    2  A    between atoms: C_5  and  C_6
REMARK    3  A    between atoms: C_6  and  C_8
REMARK    4  A    between atoms: C_9  and  C_10
REMARK    5  A    between atoms: C_17  and  C_18
REMARK    6  A    between atoms: C_19  and  C_20
REMARK                            x       y       z     vdW  Elec       q    Type
REMARK                         _______ _______ _______ _____ _____    ______ ____
ROOT
ATOM      1  C   UNL     1       3.857   4.695  19.691  0.00  0.00    +0.000 A 
ATOM      2  C   UNL     1       2.748   5.542  19.783  0.00  0.00    +0.000 A 
ATOM      3  S   UNL     1       1.451   4.771  20.611  0.00  0.00    +0.000 S 
ATOM      4  C   UNL     1       2.307   3.315  20.804  0.00  0.00    +0.000 A 
ATOM      5  C   UNL     1       1.664   2.170  21.524  0.00  0.00    +0.000 C 
ATOM      6  C   UNL     1       3.559   3.364  20.222  0.00  0.00    +0.000 A 
ATOM      7  C   UNL     1       4.513   2.208  20.160  0.00  0.00    +0.000 C 
ENDROOT
BRANCH   2   8
ATOM      8  C   UNL     1       2.555   6.937  19.317  0.00  0.00    +0.000 A 
ATOM      9  C   UNL     1       1.851   7.860  20.108  0.00  0.00    +0.000 A 
ATOM     10  C   UNL     1       1.389   9.063  19.568  0.00  0.00    +0.000 A 
ATOM     11  C   UNL     1       1.716   9.415  18.263  0.00  0.00    +0.000 A 
ATOM     12  C   UNL     1       2.522   8.571  17.503  0.00  0.00    +0.000 A 
ATOM     13  C   UNL     1       2.926   7.336  18.021  0.00  0.00    +0.000 A 
ENDBRANCH   2   8
BRANCH   1  14
ATOM     14  C   UNL     1       5.175   5.025  19.085  0.00  0.00    +0.000 C 
ATOM     15  O   UNL     1       6.028   5.637  19.717  0.00  0.00    +0.000 OA
BRANCH  14  20
ATOM     16  C   UNL     1       6.253   3.924  13.504  0.00  0.00    +0.000 C 
ATOM     17  C   UNL     1       5.988   4.128  14.966  0.00  0.00    +0.000 A 
ATOM     18  C   UNL     1       4.696   4.002  15.490  0.00  0.00    +0.000 A 
ATOM     19  C   UNL     1       4.461   4.246  16.847  0.00  0.00    +0.000 A 
ATOM     20  C   UNL     1       5.517   4.623  17.692  0.00  0.00    +0.000 A 
ATOM     21  C   UNL     1       6.814   4.692  17.184  0.00  0.00    +0.000 A 
ATOM     22  C   UNL     1       7.041   4.481  15.821  0.00  0.00    +0.000 A 
ENDBRANCH  14  20
ENDBRANCH   1  14
TORSDOF 3
ENDMDL
MODEL 3
REMARK VINA RESULT:      -7.4      1.585      5.515
REMARK  Name = 
REMARK  6 active torsions:
REMARK  status: ('A' for Active; 'I' for Inactive)
REMARK    1  A    between atoms: C_1  and  C_2
REMARK    2  A    between atoms: C_5  and  C_6
REMARK    3  A    between atoms: C_6  and  C_8
REMARK    4  A    between atoms: C_9  and  C_10
REMARK    5  A    between atoms: C_17  and  C_18
REMARK    6  A    between atoms: C_19  and  C_20
REMARK                            x       y       z     vdW  Elec       q    Type
REMARK                         _______ _______ _______ _____ _____    ______ ____
ROOT
ATOM      1  C   UNL     1       3.025   4.714  18.753  0.00  0.00    +0.000 A 
ATOM      2  C   UNL     1       3.601   4.056  17.661  0.00  0.00    +0.000 A 
ATOM      3  S   UNL     1       2.721   2.632  17.265  0.00  0.00    +0.000 S 
ATOM      4  C   UNL     1       1.622   2.835  18.544  0.00  0.00    +0.000 A 
ATOM      5  C   UNL     1       0.514   1.844  18.731  0.00  0.00    +0.000 C 
ATOM      6  C   UNL     1       1.914   3.945  19.313  0.00  0.00    +0.000 A 
ATOM      7  C   UNL     1       1.170   4.338  20.555  0.00  0.00    +0.000 C 
ENDROOT
BRANCH   2   8
ATOM      8  C   UNL     1       4.780   4.411  16.831  0.00  0.00    +0.000 A 
ATOM      9  C   UNL     1       4.661   4.512  15.435  0.00  0.00    +0.000 A 
ATOM     10  C   UNL     1       5.794   4.529  14.617  0.00  0.00    +0.000 A 
ATOM     11  C   UNL     1       7.064   4.557  15.183  0.00  0.00    +0.000 A 
ATOM     12  C   UNL     1       7.201   4.586  16.569  0.00  0.00    +0.000 A 
ATOM     13  C   UNL     1       6.068   4.499  17.386  0.00  0.00    +0.000 A 
ENDBRANCH   2   8
BRANCH   1  14
ATOM     14  C   UNL     1       3.480   5.996  19.354  0.00  0.00    +0.000 C 
ATOM     15  O   UNL     1       4.535   6.066  19.974  0.00  0.00    +0.000 OA
BRANCH  14  20
ATOM     16  C   UNL     1       0.019  10.568  18.549  0.00  0.00    +0.000 C 
ATOM     17  C   UNL     1       0.977   9.436  18.777  0.00  0.00    +0.000 A 
ATOM     18  C   UNL     1       1.757   8.928  17.732  0.00  0.00    +0.000 A 
ATOM     19  C   UNL     1       2.607   7.841  17.954  0.00  0.00    +0.000 A 
ATOM     20  C   UNL     1       2.682   7.247  19.224  0.00  0.00    +0.000 A 
ATOM     21  C   UNL     1       1.950   7.789  20.280  0.00  0.00    +0.000 A 
ATOM     22  C   UNL     1       1.076   8.855  20.049  0.00  0.00    +0.000 A 
ENDBRANCH  14  20
ENDBRANCH   1  14
TORSDOF 3
ENDMDL
MODEL 4
REMARK VINA RESULT:      -7.3      1.563      5.368
REMARK  Name = 
REMARK  6 active torsions:
REMARK  status: ('A' for Active; 'I' for Inactive)
REMARK    1  A    between atoms: C_1  and  C_2
REMARK    2  A    between atoms: C_5  and  C_6
REMARK    3  A    between atoms: C_6  and  C_8
REMARK    4  A    between atoms: C_9  and  C_10
REMARK    5  A    between atoms: C_17  and  C_18
REMARK    6  A    between atoms: C_19  and  C_20
REMARK                            x       y       z     vdW  Elec       q    Type
REMARK                         _______ _______ _______ _____ _____    ______ ____
ROOT
ATOM      1  C   UNL     1       3.102   4.579  18.755  0.00  0.00    +0.000 A 
ATOM      2  C   UNL     1       3.663   3.831  17.714  0.00  0.00    +0.000 A 
ATOM      3  S   UNL     1       2.722   2.428  17.387  0.00  0.00    +0.000 S 
ATOM      4  C   UNL     1       1.613   2.758  18.632  0.00  0.00    +0.000 A 
ATOM      5  C   UNL     1       0.457   1.833  18.856  0.00  0.00    +0.000 C 
ATOM      6  C   UNL     1       1.946   3.897  19.339  0.00  0.00    +0.000 A 
ATOM      7  C   UNL     1       1.203   4.398  20.543  0.00  0.00    +0.000 C 
ENDROOT
BRANCH   2   8
ATOM      8  C   UNL     1       4.869   4.080  16.886  0.00  0.00    +0.000 A 
ATOM      9  C   UNL     1       6.141   4.120  17.479  0.00  0.00    +0.000 A 
ATOM     10  C   UNL     1       7.236   4.656  16.795  0.00  0.00    +0.000 A 
ATOM     11  C   UNL     1       7.103   5.059  15.471  0.00  0.00    +0.000 A 
ATOM     12  C   UNL     1       5.879   4.909  14.824  0.00  0.00    +0.000 A 
ATOM     13  C   UNL     1       4.767   4.437  15.530  0.00  0.00    +0.000 A 
ENDBRANCH   2   8
BRANCH   1  14
ATOM     14  C   UNL     1       3.607   5.872  19.288  0.00  0.00    +0.000 C 
ATOM     15  O   UNL     1       4.700   5.946  19.839  0.00  0.00    +0.000 OA
BRANCH  14  20
ATOM     16  C   UNL     1       0.184  10.476  18.515  0.00  0.00    +0.000 C 
ATOM     17  C   UNL     1       1.132   9.335  18.738  0.00  0.00    +0.000 A 
ATOM     18  C   UNL     1       1.938   8.853  17.701  0.00  0.00    +0.000 A 
ATOM     19  C   UNL     1       2.779   7.756  17.916  0.00  0.00    +0.000 A 
ATOM     20  C   UNL     1       2.817   7.129  19.171  0.00  0.00    +0.000 A 
ATOM     21  C   UNL     1       2.059   7.645  20.221  0.00  0.00    +0.000 A 
ATOM     22  C   UNL     1       1.195   8.720  19.995  0.00  0.00    +0.000 A 
ENDBRANCH  14  20
ENDBRANCH   1  14
TORSDOF 3
ENDMDL
MODEL 5
REMARK VINA RESULT:      -7.3      0.235      1.051
REMARK  Name = 
REMARK  6 active torsions:
REMARK  status: ('A' for Active; 'I' for Inactive)
REMARK    1  A    between atoms: C_1  and  C_2
REMARK    2  A    between atoms: C_5  and  C_6
REMARK    3  A    between atoms: C_6  and  C_8
REMARK    4  A    between atoms: C_9  and  C_10
REMARK    5  A    between atoms: C_17  and  C_18
REMARK    6  A    between atoms: C_19  and  C_20
REMARK                            x       y       z     vdW  Elec       q    Type
REMARK                         _______ _______ _______ _____ _____    ______ ____
ROOT
ATOM      1  C   UNL     1       3.755   4.692  19.646  0.00  0.00    +0.000 A 
ATOM      2  C   UNL     1       2.579   5.447  19.712  0.00  0.00    +0.000 A 
ATOM      3  S   UNL     1       1.361   4.614  20.595  0.00  0.00    +0.000 S 
ATOM      4  C   UNL     1       2.338   3.247  20.849  0.00  0.00    +0.000 A 
ATOM      5  C   UNL     1       1.801   2.090  21.635  0.00  0.00    +0.000 C 
ATOM      6  C   UNL     1       3.575   3.371  20.247  0.00  0.00    +0.000 A 
ATOM      7  C   UNL     1       4.623   2.297  20.229  0.00  0.00    +0.000 C 
ENDROOT
BRANCH   2   8
ATOM      8  C   UNL     1       2.265   6.796  19.179  0.00  0.00    +0.000 A 
ATOM      9  C   UNL     1       2.658   7.156  17.880  0.00  0.00    +0.000 A 
ATOM     10  C   UNL     1       2.659   8.494  17.475  0.00  0.00    +0.000 A 
ATOM     11  C   UNL     1       2.165   9.481  18.320  0.00  0.00    +0.000 A 
ATOM     12  C   UNL     1       1.651   9.127  19.566  0.00  0.00    +0.000 A 
ATOM     13  C   UNL     1       1.714   7.798  19.997  0.00  0.00    +0.000 A 
ENDBRANCH   2   8
BRANCH   1  14
ATOM     14  C   UNL     1       5.033   5.100  19.005  0.00  0.00    +0.000 C 
ATOM     15  O   UNL     1       5.933   5.618  19.657  0.00  0.00    +0.000 OA
BRANCH  14  20
ATOM     16  C   UNL     1       6.423   3.978  13.497  0.00  0.00    +0.000 C 
ATOM     17  C   UNL     1       6.019   4.334  14.897  0.00  0.00    +0.000 A 
ATOM     18  C   UNL     1       6.803   5.190  15.679  0.00  0.00    +0.000 A 
ATOM     19  C   UNL     1       6.435   5.470  16.999  0.00  0.00    +0.000 A 
ATOM     20  C   UNL     1       5.280   4.892  17.550  0.00  0.00    +0.000 A 
ATOM     21  C   UNL     1       4.467   4.087  16.754  0.00  0.00    +0.000 A 
ATOM     22  C   UNL     1       4.854   3.781  15.447  0.00  0.00    +0.000 A 
ENDBRANCH  14  20
ENDBRANCH   1  14
TORSDOF 3
ENDMDL
MODEL 6
REMARK VINA RESULT:      -7.3      1.596      5.438
REMARK  Name = 
REMARK  6 active torsions:
REMARK  status: ('A' for Active; 'I' for Inactive)
REMARK    1  A    between atoms: C_1  and  C_2
REMARK    2  A    between atoms: C_5  and  C_6
REMARK    3  A    between atoms: C_6  and  C_8
REMARK    4  A    between atoms: C_9  and  C_10
REMARK    5  A    between atoms: C_17  and  C_18
REMARK    6  A    between atoms: C_19  and  C_20
REMARK                            x       y       z     vdW  Elec       q    Type
REMARK                         _______ _______ _______ _____ _____    ______ ____
ROOT
ATOM      1  C   UNL     1       3.045   4.616  18.694  0.00  0.00    +0.000 A 
ATOM      2  C   UNL     1       3.649   3.841  17.698  0.00  0.00    +0.000 A 
ATOM      3  S   UNL     1       2.770   2.386  17.432  0.00  0.00    +0.000 S 
ATOM      4  C   UNL     1       1.634   2.732  18.648  0.00  0.00    +0.000 A 
ATOM      5  C   UNL     1       0.513   1.772  18.906  0.00  0.00    +0.000 C 
ATOM      6  C   UNL     1       1.911   3.917  19.300  0.00  0.00    +0.000 A 
ATOM      7  C   UNL     1       1.134   4.447  20.469  0.00  0.00    +0.000 C 
ENDROOT
BRANCH   2   8
ATOM      8  C   UNL     1       4.854   4.097  16.871  0.00  0.00    +0.000 A 
ATOM      9  C   UNL     1       6.122   4.177  17.469  0.00  0.00    +0.000 A 
ATOM     10  C   UNL     1       7.208   4.722  16.779  0.00  0.00    +0.000 A 
ATOM     11  C   UNL     1       7.075   5.092  15.445  0.00  0.00    +0.000 A 
ATOM     12  C   UNL     1       5.857   4.902  14.796  0.00  0.00    +0.000 A 
ATOM     13  C   UNL     1       4.752   4.421  15.507  0.00  0.00    +0.000 A 
ENDBRANCH   2   8
BRANCH   1  14
ATOM     14  C   UNL     1       3.492   5.954  19.167  0.00  0.00    +0.000 C 
ATOM     15  O   UNL     1       4.579   6.102  19.713  0.00  0.00    +0.000 OA
BRANCH  14  20
ATOM     16  C   UNL     1       0.569  10.938  18.803  0.00  0.00    +0.000 C 
ATOM     17  C   UNL     1       1.257   9.607  18.872  0.00  0.00    +0.000 A 
ATOM     18  C   UNL     1       1.263   8.858  20.055  0.00  0.00    +0.000 A 
ATOM     19  C   UNL     1       1.952   7.643  20.114  0.00  0.00    +0.000 A 
ATOM     20  C   UNL     1       2.647   7.168  18.990  0.00  0.00    +0.000 A 
ATOM     21  C   UNL     1       2.593   7.883  17.795  0.00  0.00    +0.000 A 
ATOM     22  C   UNL     1       1.932   9.114  17.748  0.00  0.00    +0.000 A 
ENDBRANCH  14  20
ENDBRANCH   1  14
TORSDOF 3
ENDMDL
MODEL 7
REMARK VINA RESULT:      -7.3      1.767      2.501
REMARK  Name = 
REMARK  6 active torsions:
REMARK  status: ('A' for Active; 'I' for Inactive)
REMARK    1  A    between atoms: C_1  and  C_2
REMARK    2  A    between atoms: C_5  and  C_6
REMARK    3  A    between atoms: C_6  and  C_8
REMARK    4  A    between atoms: C_9  and  C_10
REMARK    5  A    between atoms: C_17  and  C_18
REMARK    6  A    between atoms: C_19  and  C_20
REMARK                            x       y       z     vdW  Elec       q    Type
REMARK                         _______ _______ _______ _____ _____    ______ ____
ROOT
ATOM      1  C   UNL     1       3.346   4.520  18.972  0.00  0.00    +0.000 A 
ATOM      2  C   UNL     1       2.538   5.481  19.589  0.00  0.00    +0.000 A 
ATOM      3  S   UNL     1       1.729   4.820  20.955  0.00  0.00    +0.000 S 
ATOM      4  C   UNL     1       2.382   3.269  20.718  0.00  0.00    +0.000 A 
ATOM      5  C   UNL     1       2.038   2.168  21.673  0.00  0.00    +0.000 C 
ATOM      6  C   UNL     1       3.183   3.206  19.594  0.00  0.00    +0.000 A 
ATOM      7  C   UNL     1       3.833   1.955  19.083  0.00  0.00    +0.000 C 
ENDROOT
BRANCH   2   8
ATOM      8  C   UNL     1       2.317   6.912  19.263  0.00  0.00    +0.000 A 
ATOM      9  C   UNL     1       1.873   7.805  20.251  0.00  0.00    +0.000 A 
ATOM     10  C   UNL     1       1.361   9.060  19.908  0.00  0.00    +0.000 A 
ATOM     11  C   UNL     1       1.386   9.487  18.585  0.00  0.00    +0.000 A 
ATOM     12  C   UNL     1       1.941   8.665  17.606  0.00  0.00    +0.000 A 
ATOM     13  C   UNL     1       2.389   7.382  17.940  0.00  0.00    +0.000 A 
ENDBRANCH   2   8
BRANCH   1  14
ATOM     14  C   UNL     1       4.227   4.730  17.792  0.00  0.00    +0.000 C 
ATOM     15  O   UNL     1       3.961   4.229  16.705  0.00  0.00    +0.000 OA
BRANCH  14  20
ATOM     16  C   UNL     1       8.709   8.354  18.338  0.00  0.00    +0.000 C 
ATOM     17  C   UNL     1       7.592   7.372  18.140  0.00  0.00    +0.000 A 
ATOM     18  C   UNL     1       6.598   7.593  17.180  0.00  0.00    +0.000 A 
ATOM     19  C   UNL     1       5.538   6.691  17.046  0.00  0.00    +0.000 A 
ATOM     20  C   UNL     1       5.460   5.561  17.874  0.00  0.00    +0.000 A 
ATOM     21  C   UNL     1       6.480   5.308  18.791  0.00  0.00    +0.000 A 
ATOM     22  C   UNL     1       7.521   6.228  18.947  0.00  0.00    +0.000 A 
ENDBRANCH  14  20
ENDBRANCH   1  14
TORSDOF 3
ENDMDL
MODEL 8
REMARK VINA RESULT:      -7.3      1.602      5.605
REMARK  Name = 
REMARK  6 active torsions:
REMARK  status: ('A' for Active; 'I' for Inactive)
REMARK    1  A    between atoms: C_1  and  C_2
REMARK    2  A    between atoms: C_5  and  C_6
REMARK    3  A    between atoms: C_6  and  C_8
REMARK    4  A    between atoms: C_9  and  C_10
REMARK    5  A    between atoms: C_17  and  C_18
REMARK    6  A    between atoms: C_19  and  C_20
REMARK                            x       y       z     vdW  Elec       q    Type
REMARK                         _______ _______ _______ _____ _____    ______ ____
ROOT
ATOM      1  C   UNL     1       3.050   4.748  18.654  0.00  0.00    +0.000 A 
ATOM      2  C   UNL     1       3.662   4.053  17.605  0.00  0.00    +0.000 A 
ATOM      3  S   UNL     1       2.857   2.563  17.301  0.00  0.00    +0.000 S 
ATOM      4  C   UNL     1       1.745   2.789  18.566  0.00  0.00    +0.000 A 
ATOM      5  C   UNL     1       0.689   1.757  18.815  0.00  0.00    +0.000 C 
ATOM      6  C   UNL     1       1.978   3.960  19.262  0.00  0.00    +0.000 A 
ATOM      7  C   UNL     1       1.212   4.392  20.478  0.00  0.00    +0.000 C 
ENDROOT
BRANCH   2   8
ATOM      8  C   UNL     1       4.822   4.414  16.754  0.00  0.00    +0.000 A 
ATOM      9  C   UNL     1       4.704   4.413  15.354  0.00  0.00    +0.000 A 
ATOM     10  C   UNL     1       5.838   4.437  14.538  0.00  0.00    +0.000 A 
ATOM     11  C   UNL     1       7.102   4.573  15.101  0.00  0.00    +0.000 A 
ATOM     12  C   UNL     1       7.231   4.703  16.481  0.00  0.00    +0.000 A 
ATOM     13  C   UNL     1       6.102   4.610  17.302  0.00  0.00    +0.000 A 
ENDBRANCH   2   8
BRANCH   1  14
ATOM     14  C   UNL     1       3.436   6.087  19.173  0.00  0.00    +0.000 C 
ATOM     15  O   UNL     1       4.512   6.263  19.733  0.00  0.00    +0.000 OA
BRANCH  14  20
ATOM     16  C   UNL     1       0.315  10.957  18.934  0.00  0.00    +0.000 C 
ATOM     17  C   UNL     1       1.056   9.654  18.971  0.00  0.00    +0.000 A 
ATOM     18  C   UNL     1       1.098   8.879  20.136  0.00  0.00    +0.000 A 
ATOM     19  C   UNL     1       1.836   7.692  20.165  0.00  0.00    +0.000 A 
ATOM     20  C   UNL     1       2.543   7.270  19.028  0.00  0.00    +0.000 A 
ATOM     21  C   UNL     1       2.455   8.009  17.849  0.00  0.00    +0.000 A 
ATOM     22  C   UNL     1       1.745   9.213  17.833  0.00  0.00    +0.000 A 
ENDBRANCH  14  20
ENDBRANCH   1  14
TORSDOF 3
ENDMDL
MODEL 9
REMARK VINA RESULT:      -7.3      0.341      1.488
REMARK  Name = 
REMARK  6 active torsions:
REMARK  status: ('A' for Active; 'I' for Inactive)
REMARK    1  A    between atoms: C_1  and  C_2
REMARK    2  A    between atoms: C_5  and  C_6
REMARK    3  A    between atoms: C_6  and  C_8
REMARK    4  A    between atoms: C_9  and  C_10
REMARK    5  A    between atoms: C_17  and  C_18
REMARK    6  A    between atoms: C_19  and  C_20
REMARK                            x       y       z     vdW  Elec       q    Type
REMARK                         _______ _______ _______ _____ _____    ______ ____
ROOT
ATOM      1  C   UNL     1       3.804   4.615  19.679  0.00  0.00    +0.000 A 
ATOM      2  C   UNL     1       2.635   5.383  19.683  0.00  0.00    +0.000 A 
ATOM      3  S   UNL     1       1.375   4.581  20.536  0.00  0.00    +0.000 S 
ATOM      4  C   UNL     1       2.326   3.210  20.857  0.00  0.00    +0.000 A 
ATOM      5  C   UNL     1       1.747   2.077  21.646  0.00  0.00    +0.000 C 
ATOM      6  C   UNL     1       3.587   3.308  20.300  0.00  0.00    +0.000 A 
ATOM      7  C   UNL     1       4.623   2.224  20.346  0.00  0.00    +0.000 C 
ENDROOT
BRANCH   2   8
ATOM      8  C   UNL     1       2.357   6.723  19.109  0.00  0.00    +0.000 A 
ATOM      9  C   UNL     1       2.860   7.074  17.847  0.00  0.00    +0.000 A 
ATOM     10  C   UNL     1       2.885   8.408  17.429  0.00  0.00    +0.000 A 
ATOM     11  C   UNL     1       2.307   9.398  18.215  0.00  0.00    +0.000 A 
ATOM     12  C   UNL     1       1.688   9.051  19.414  0.00  0.00    +0.000 A 
ATOM     13  C   UNL     1       1.726   7.727  19.864  0.00  0.00    +0.000 A 
ENDBRANCH   2   8
BRANCH   1  14
ATOM     14  C   UNL     1       5.111   4.995  19.078  0.00  0.00    +0.000 C 
ATOM     15  O   UNL     1       5.935   5.643  19.713  0.00  0.00    +0.000 OA
BRANCH  14  20
ATOM     16  C   UNL     1       6.228   3.893  13.505  0.00  0.00    +0.000 C 
ATOM     17  C   UNL     1       5.962   4.100  14.967  0.00  0.00    +0.000 A 
ATOM     18  C   UNL     1       4.702   3.839  15.516  0.00  0.00    +0.000 A 
ATOM     19  C   UNL     1       4.460   4.086  16.871  0.00  0.00    +0.000 A 
ATOM     20  C   UNL     1       5.477   4.602  17.689  0.00  0.00    +0.000 A 
ATOM     21  C   UNL     1       6.750   4.808  17.157  0.00  0.00    +0.000 A 
ATOM     22  C   UNL     1       6.980   4.592  15.796  0.00  0.00    +0.000 A 
ENDBRANCH  14  20
ENDBRANCH   1  14
TORSDOF 3
ENDMDL
