MODEL 1
REMARK VINA RESULT:      -7.3      0.000      0.000
REMARK  Name = 
REMARK  13 active torsions:
REMARK  status: ('A' for Active; 'I' for Inactive)
REMARK    1  A    between atoms: C_1  and  C_2
REMARK    2  A    between atoms: C_2  and  C_3
REMARK    3  A    between atoms: C_2  and  C_4
REMARK    4  A    between atoms: C_2  and  N_5
REMARK    5  A    between atoms: N_8  and  C_9
REMARK    6  A    between atoms: C_9  and  C_10
REMARK    7  A    between atoms: C_9  and  C_16
REMARK    8  A    between atoms: C_10  and  C_11
REMARK    9  A    between atoms: C_11  and  C_12
REMARK   10  A    between atoms: C_12  and  C_13
REMARK   11  A    between atoms: C_13  and  C_14
REMARK   12  A    between atoms: C_14  and  S_15
REMARK   13  A    between atoms: N_18  and  C_19
REMARK                            x       y       z     vdW  Elec       q    Type
REMARK                         _______ _______ _______ _____ _____    ______ ____
ROOT
ATOM      1  C   UNL     1       6.676   6.558  17.439  0.00  0.00    +0.000 C 
ENDROOT
BRANCH   1   5
ATOM      2  N   UNL     1       4.015   5.419  19.667  0.00  0.00    +0.000 N 
ATOM      3  C   UNL     1       4.557   5.905  18.503  0.00  0.00    +0.000 C 
ATOM      4  O   UNL     1       3.913   6.225  17.510  0.00  0.00    +0.000 OA
ATOM      5  N   UNL     1       5.922   6.020  18.566  0.00  0.00    +0.000 N 
ATOM      6  H   UNL     1       4.604   5.515  20.481  0.00  0.00    +0.000 HD
ATOM      7  H   UNL     1       6.435   5.552  19.300  0.00  0.00    +0.000 HD
BRANCH   2   9
ATOM      8  C   UNL     1       1.892   4.528  18.739  0.00  0.00    +0.000 C 
ATOM      9  C   UNL     1       2.566   5.282  19.897  0.00  0.00    +0.000 C 
ATOM     10  C   UNL     1       1.900   6.656  20.092  0.00  0.00    +0.000 C 
ATOM     11  C   UNL     1       2.347   4.462  21.185  0.00  0.00    +0.000 C 
ENDBRANCH   2   9
ENDBRANCH   1   5
BRANCH   1  12
ATOM     12  C   UNL     1       7.057   5.395  16.505  0.00  0.00    +0.000 C 
ATOM     13  O   UNL     1       7.865   4.530  16.835  0.00  0.00    +0.000 OA
ATOM     14  N   UNL     1       6.398   5.396  15.291  0.00  0.00    +0.000 N 
ATOM     15  H   UNL     1       5.781   6.167  15.068  0.00  0.00    +0.000 HD
BRANCH  14  16
ATOM     16  C   UNL     1       6.676   4.422  14.256  0.00  0.00    +0.000 C 
ATOM     17  C   UNL     1       5.408   3.906  13.586  0.00  0.00    +0.000 C 
ATOM     18  C   UNL     1       5.915   3.292  12.289  0.00  0.00    +0.000 C 
ATOM     19  C   UNL     1       7.145   4.110  11.898  0.00  0.00    +0.000 C 
ATOM     20  C   UNL     1       7.455   5.020  13.086  0.00  0.00    +0.000 C 
ENDBRANCH  14  16
ENDBRANCH   1  12
BRANCH   1  21
ATOM     21  C   UNL     1       7.938   7.276  17.940  0.00  0.00    +0.000 C 
BRANCH  21  22
ATOM     22  C   UNL     1       7.895   8.807  17.821  0.00  0.00    +0.000 C 
BRANCH  22  23
ATOM     23  C   UNL     1       8.821   9.564  18.779  0.00  0.00    +0.000 C 
BRANCH  23  24
ATOM     24  C   UNL     1       9.470  10.789  18.130  0.00  0.00    +0.000 C 
BRANCH  24  25
ATOM     25  C   UNL     1       9.338  12.026  19.013  0.00  0.00    +0.000 C 
BRANCH  25  26
ATOM     26  S   UNL     1       9.499  13.530  18.007  0.00  0.00    +0.000 S 
ATOM     27  H   UNL     1       9.487  12.914  16.814  0.00  0.00    +0.000 HD
ENDBRANCH  25  26
ENDBRANCH  24  25
ENDBRANCH  23  24
ENDBRANCH  22  23
ENDBRANCH  21  22
ENDBRANCH   1  21
TORSDOF 10
ENDMDL
MODEL 2
REMARK VINA RESULT:      -6.9      1.150      1.191
REMARK  Name = 
REMARK  13 active torsions:
REMARK  status: ('A' for Active; 'I' for Inactive)
REMARK    1  A    between atoms: C_1  and  C_2
REMARK    2  A    between atoms: C_2  and  C_3
REMARK    3  A    between atoms: C_2  and  C_4
REMARK    4  A    between atoms: C_2  and  N_5
REMARK    5  A    between atoms: N_8  and  C_9
REMARK    6  A    between atoms: C_9  and  C_10
REMARK    7  A    between atoms: C_9  and  C_16
REMARK    8  A    between atoms: C_10  and  C_11
REMARK    9  A    between atoms: C_11  and  C_12
REMARK   10  A    between atoms: C_12  and  C_13
REMARK   11  A    between atoms: C_13  and  C_14
REMARK   12  A    between atoms: C_14  and  S_15
REMARK   13  A    between atoms: N_18  and  C_19
REMARK                            x       y       z     vdW  Elec       q    Type
REMARK                         _______ _______ _______ _____ _____    ______ ____
ROOT
ATOM      1  C   UNL     1       6.260   5.795  17.668  0.00  0.00    +0.000 C 
ENDROOT
BRANCH   1   5
ATOM      2  N   UNL     1       3.777   4.130  19.767  0.00  0.00    +0.000 N 
ATOM      3  C   UNL     1       4.228   4.975  18.783  0.00  0.00    +0.000 C 
ATOM      4  O   UNL     1       3.513   5.707  18.108  0.00  0.00    +0.000 OA
ATOM      5  N   UNL     1       5.591   4.934  18.638  0.00  0.00    +0.000 N 
ATOM      6  H   UNL     1       4.476   3.853  20.440  0.00  0.00    +0.000 HD
ATOM      7  H   UNL     1       6.120   4.176  19.045  0.00  0.00    +0.000 HD
BRANCH   2   9
ATOM      8  C   UNL     1       1.493   3.456  19.069  0.00  0.00    +0.000 C 
ATOM      9  C   UNL     1       2.368   4.045  20.188  0.00  0.00    +0.000 C 
ATOM     10  C   UNL     1       1.828   5.423  20.611  0.00  0.00    +0.000 C 
ATOM     11  C   UNL     1       2.273   3.104  21.406  0.00  0.00    +0.000 C 
ENDBRANCH   2   9
ENDBRANCH   1   5
BRANCH   1  12
ATOM     12  C   UNL     1       6.856   4.910  16.558  0.00  0.00    +0.000 C 
ATOM     13  O   UNL     1       7.942   4.348  16.682  0.00  0.00    +0.000 OA
ATOM     14  N   UNL     1       6.059   4.784  15.436  0.00  0.00    +0.000 N 
ATOM     15  H   UNL     1       5.199   5.315  15.384  0.00  0.00    +0.000 HD
BRANCH  14  16
ATOM     16  C   UNL     1       6.482   4.050  14.262  0.00  0.00    +0.000 C 
ATOM     17  C   UNL     1       5.313   3.662  13.365  0.00  0.00    +0.000 C 
ATOM     18  C   UNL     1       5.976   3.337  12.035  0.00  0.00    +0.000 C 
ATOM     19  C   UNL     1       7.206   4.240  11.956  0.00  0.00    +0.000 C 
ATOM     20  C   UNL     1       7.354   4.890  13.331  0.00  0.00    +0.000 C 
ENDBRANCH  14  16
ENDBRANCH   1  12
BRANCH   1  21
ATOM     21  C   UNL     1       7.368   6.606  18.357  0.00  0.00    +0.000 C 
BRANCH  21  22
ATOM     22  C   UNL     1       7.666   7.966  17.706  0.00  0.00    +0.000 C 
BRANCH  22  23
ATOM     23  C   UNL     1       8.881   8.709  18.271  0.00  0.00    +0.000 C 
BRANCH  23  24
ATOM     24  C   UNL     1       8.579  10.174  18.597  0.00  0.00    +0.000 C 
BRANCH  24  25
ATOM     25  C   UNL     1       9.746  10.839  19.320  0.00  0.00    +0.000 C 
BRANCH  25  26
ATOM     26  S   UNL     1       9.209  11.443  20.945  0.00  0.00    +0.000 S 
ATOM     27  H   UNL     1       8.243  12.257  20.491  0.00  0.00    +0.000 HD
ENDBRANCH  25  26
ENDBRANCH  24  25
ENDBRANCH  23  24
ENDBRANCH  22  23
ENDBRANCH  21  22
ENDBRANCH   1  21
TORSDOF 10
ENDMDL
MODEL 3
REMARK VINA RESULT:      -6.8      3.885      8.760
REMARK  Name = 
REMARK  13 active torsions:
REMARK  status: ('A' for Active; 'I' for Inactive)
REMARK    1  A    between atoms: C_1  and  C_2
REMARK    2  A    between atoms: C_2  and  C_3
REMARK    3  A    between atoms: C_2  and  C_4
REMARK    4  A    between atoms: C_2  and  N_5
REMARK    5  A    between atoms: N_8  and  C_9
REMARK    6  A    between atoms: C_9  and  C_10
REMARK    7  A    between atoms: C_9  and  C_16
REMARK    8  A    between atoms: C_10  and  C_11
REMARK    9  A    between atoms: C_11  and  C_12
REMARK   10  A    between atoms: C_12  and  C_13
REMARK   11  A    between atoms: C_13  and  C_14
REMARK   12  A    between atoms: C_14  and  S_15
REMARK   13  A    between atoms: N_18  and  C_19
REMARK                            x       y       z     vdW  Elec       q    Type
REMARK                         _______ _______ _______ _____ _____    ______ ____
ROOT
ATOM      1  C   UNL     1       2.351   5.975  19.680  0.00  0.00    +0.000 C 
ENDROOT
BRANCH   1   5
ATOM      2  N   UNL     1       5.835   5.556  18.665  0.00  0.00    +0.000 N 
ATOM      3  C   UNL     1       4.482   5.706  18.483  0.00  0.00    +0.000 C 
ATOM      4  O   UNL     1       3.917   5.704  17.395  0.00  0.00    +0.000 OA
ATOM      5  N   UNL     1       3.804   5.844  19.667  0.00  0.00    +0.000 N 
ATOM      6  H   UNL     1       6.106   5.251  19.588  0.00  0.00    +0.000 HD
ATOM      7  H   UNL     1       4.307   6.060  20.516  0.00  0.00    +0.000 HD
BRANCH   2   9
ATOM      8  C   UNL     1       7.251   6.619  16.926  0.00  0.00    +0.000 C 
ATOM      9  C   UNL     1       6.783   5.301  17.567  0.00  0.00    +0.000 C 
ATOM     10  C   UNL     1       6.163   4.385  16.497  0.00  0.00    +0.000 C 
ATOM     11  C   UNL     1       8.023   4.589  18.141  0.00  0.00    +0.000 C 
ENDBRANCH   2   9
ENDBRANCH   1   5
BRANCH   1  12
ATOM     12  C   UNL     1       1.994   7.459  19.874  0.00  0.00    +0.000 C 
ATOM     13  O   UNL     1       2.248   8.310  19.024  0.00  0.00    +0.000 OA
ATOM     14  N   UNL     1       1.348   7.742  21.063  0.00  0.00    +0.000 N 
ATOM     15  H   UNL     1       1.215   7.000  21.737  0.00  0.00    +0.000 HD
BRANCH  14  16
ATOM     16  C   UNL     1       0.996   9.091  21.453  0.00  0.00    +0.000 C 
ATOM     17  C   UNL     1      -0.081   9.694  20.560  0.00  0.00    +0.000 C 
ATOM     18  C   UNL     1      -0.613  10.860  21.379  0.00  0.00    +0.000 C 
ATOM     19  C   UNL     1      -0.465  10.439  22.841  0.00  0.00    +0.000 C 
ATOM     20  C   UNL     1       0.355   9.149  22.838  0.00  0.00    +0.000 C 
ENDBRANCH  14  16
ENDBRANCH   1  12
BRANCH   1  21
ATOM     21  C   UNL     1       1.753   5.129  20.815  0.00  0.00    +0.000 C 
BRANCH  21  22
ATOM     22  C   UNL     1       0.913   3.930  20.348  0.00  0.00    +0.000 C 
BRANCH  22  23
ATOM     23  C   UNL     1       1.196   3.449  18.921  0.00  0.00    +0.000 C 
BRANCH  23  24
ATOM     24  C   UNL     1       1.794   2.040  18.880  0.00  0.00    +0.000 C 
BRANCH  24  25
ATOM     25  C   UNL     1       3.266   2.068  18.480  0.00  0.00    +0.000 C 
BRANCH  25  26
ATOM     26  S   UNL     1       4.310   2.248  19.954  0.00  0.00    +0.000 S 
ATOM     27  H   UNL     1       5.314   1.469  19.523  0.00  0.00    +0.000 HD
ENDBRANCH  25  26
ENDBRANCH  24  25
ENDBRANCH  23  24
ENDBRANCH  22  23
ENDBRANCH  21  22
ENDBRANCH   1  21
TORSDOF 10
ENDMDL
MODEL 4
REMARK VINA RESULT:      -6.7      1.180      1.515
REMARK  Name = 
REMARK  13 active torsions:
REMARK  status: ('A' for Active; 'I' for Inactive)
REMARK    1  A    between atoms: C_1  and  C_2
REMARK    2  A    between atoms: C_2  and  C_3
REMARK    3  A    between atoms: C_2  and  C_4
REMARK    4  A    between atoms: C_2  and  N_5
REMARK    5  A    between atoms: N_8  and  C_9
REMARK    6  A    between atoms: C_9  and  C_10
REMARK    7  A    between atoms: C_9  and  C_16
REMARK    8  A    between atoms: C_10  and  C_11
REMARK    9  A    between atoms: C_11  and  C_12
REMARK   10  A    between atoms: C_12  and  C_13
REMARK   11  A    between atoms: C_13  and  C_14
REMARK   12  A    between atoms: C_14  and  S_15
REMARK   13  A    between atoms: N_18  and  C_19
REMARK                            x       y       z     vdW  Elec       q    Type
REMARK                         _______ _______ _______ _____ _____    ______ ____
ROOT
ATOM      1  C   UNL     1       5.976   6.560  17.502  0.00  0.00    +0.000 C 
ENDROOT
BRANCH   1   5
ATOM      2  N   UNL     1       3.743   4.533  19.564  0.00  0.00    +0.000 N 
ATOM      3  C   UNL     1       4.079   5.526  18.676  0.00  0.00    +0.000 C 
ATOM      4  O   UNL     1       3.289   6.326  18.190  0.00  0.00    +0.000 OA
ATOM      5  N   UNL     1       5.421   5.548  18.394  0.00  0.00    +0.000 N 
ATOM      6  H   UNL     1       4.511   4.182  20.116  0.00  0.00    +0.000 HD
ATOM      7  H   UNL     1       6.000   4.755  18.632  0.00  0.00    +0.000 HD
BRANCH   2   9
ATOM      8  C   UNL     1       1.816   5.668  20.639  0.00  0.00    +0.000 C 
ATOM      9  C   UNL     1       2.385   4.344  20.102  0.00  0.00    +0.000 C 
ATOM     10  C   UNL     1       2.368   3.275  21.209  0.00  0.00    +0.000 C 
ATOM     11  C   UNL     1       1.465   3.862  18.963  0.00  0.00    +0.000 C 
ENDBRANCH   2   9
ENDBRANCH   1   5
BRANCH   1  12
ATOM     12  C   UNL     1       5.990   5.996  16.070  0.00  0.00    +0.000 C 
ATOM     13  O   UNL     1       5.364   6.522  15.153  0.00  0.00    +0.000 OA
ATOM     14  N   UNL     1       6.781   4.874  15.904  0.00  0.00    +0.000 N 
ATOM     15  H   UNL     1       7.229   4.467  16.715  0.00  0.00    +0.000 HD
BRANCH  14  16
ATOM     16  C   UNL     1       6.864   4.163  14.647  0.00  0.00    +0.000 C 
ATOM     17  C   UNL     1       5.495   3.913  14.026  0.00  0.00    +0.000 C 
ATOM     18  C   UNL     1       5.814   3.597  12.572  0.00  0.00    +0.000 C 
ATOM     19  C   UNL     1       7.072   4.399  12.242  0.00  0.00    +0.000 C 
ATOM     20  C   UNL     1       7.580   4.971  13.565  0.00  0.00    +0.000 C 
ENDBRANCH  14  16
ENDBRANCH   1  12
BRANCH   1  21
ATOM     21  C   UNL     1       7.400   6.932  17.944  0.00  0.00    +0.000 C 
BRANCH  21  22
ATOM     22  C   UNL     1       7.831   8.361  17.582  0.00  0.00    +0.000 C 
BRANCH  22  23
ATOM     23  C   UNL     1       8.689   9.071  18.635  0.00  0.00    +0.000 C 
BRANCH  23  24
ATOM     24  C   UNL     1       9.008  10.520  18.257  0.00  0.00    +0.000 C 
BRANCH  24  25
ATOM     25  C   UNL     1      10.147  11.081  19.101  0.00  0.00    +0.000 C 
BRANCH  25  26
ATOM     26  S   UNL     1      11.275  12.051  18.060  0.00  0.00    +0.000 S 
ATOM     27  H   UNL     1      11.055  13.232  18.659  0.00  0.00    +0.000 HD
ENDBRANCH  25  26
ENDBRANCH  24  25
ENDBRANCH  23  24
ENDBRANCH  22  23
ENDBRANCH  21  22
ENDBRANCH   1  21
TORSDOF 10
ENDMDL
MODEL 5
REMARK VINA RESULT:      -6.7      1.204      1.586
REMARK  Name = 
REMARK  13 active torsions:
REMARK  status: ('A' for Active; 'I' for Inactive)
REMARK    1  A    between atoms: C_1  and  C_2
REMARK    2  A    between atoms: C_2  and  C_3
REMARK    3  A    between atoms: C_2  and  C_4
REMARK    4  A    between atoms: C_2  and  N_5
REMARK    5  A    between atoms: N_8  and  C_9
REMARK    6  A    between atoms: C_9  and  C_10
REMARK    7  A    between atoms: C_9  and  C_16
REMARK    8  A    between atoms: C_10  and  C_11
REMARK    9  A    between atoms: C_11  and  C_12
REMARK   10  A    between atoms: C_12  and  C_13
REMARK   11  A    between atoms: C_13  and  C_14
REMARK   12  A    between atoms: C_14  and  S_15
REMARK   13  A    between atoms: N_18  and  C_19
REMARK                            x       y       z     vdW  Elec       q    Type
REMARK                         _______ _______ _______ _____ _____    ______ ____
ROOT
ATOM      1  C   UNL     1       6.162   6.353  17.621  0.00  0.00    +0.000 C 
ENDROOT
BRANCH   1   5
ATOM      2  N   UNL     1       3.746   4.178  19.287  0.00  0.00    +0.000 N 
ATOM      3  C   UNL     1       4.179   5.298  18.621  0.00  0.00    +0.000 C 
ATOM      4  O   UNL     1       3.477   6.266  18.350  0.00  0.00    +0.000 OA
ATOM      5  N   UNL     1       5.510   5.236  18.297  0.00  0.00    +0.000 N 
ATOM      6  H   UNL     1       4.477   3.635  19.720  0.00  0.00    +0.000 HD
ATOM      7  H   UNL     1       5.998   4.353  18.335  0.00  0.00    +0.000 HD
BRANCH   2   9
ATOM      8  C   UNL     1       1.363   3.813  18.696  0.00  0.00    +0.000 C 
ATOM      9  C   UNL     1       2.384   4.025  19.827  0.00  0.00    +0.000 C 
ATOM     10  C   UNL     1       1.982   5.242  20.680  0.00  0.00    +0.000 C 
ATOM     11  C   UNL     1       2.350   2.778  20.733  0.00  0.00    +0.000 C 
ENDBRANCH   2   9
ENDBRANCH   1   5
BRANCH   1  12
ATOM     12  C   UNL     1       5.838   6.273  16.119  0.00  0.00    +0.000 C 
ATOM     13  O   UNL     1       4.997   6.999  15.591  0.00  0.00    +0.000 OA
ATOM     14  N   UNL     1       6.584   5.343  15.420  0.00  0.00    +0.000 N 
ATOM     15  H   UNL     1       7.224   4.747  15.929  0.00  0.00    +0.000 HD
BRANCH  14  16
ATOM     16  C   UNL     1       6.373   5.076  14.013  0.00  0.00    +0.000 C 
ATOM     17  C   UNL     1       7.675   5.051  13.222  0.00  0.00    +0.000 C 
ATOM     18  C   UNL     1       7.299   4.328  11.938  0.00  0.00    +0.000 C 
ATOM     19  C   UNL     1       6.196   3.344  12.326  0.00  0.00    +0.000 C 
ATOM     20  C   UNL     1       5.802   3.681  13.764  0.00  0.00    +0.000 C 
ENDBRANCH  14  16
ENDBRANCH   1  12
BRANCH   1  21
ATOM     21  C   UNL     1       7.682   6.291  17.843  0.00  0.00    +0.000 C 
BRANCH  21  22
ATOM     22  C   UNL     1       8.265   7.482  18.618  0.00  0.00    +0.000 C 
BRANCH  22  23
ATOM     23  C   UNL     1       8.172   8.836  17.906  0.00  0.00    +0.000 C 
BRANCH  23  24
ATOM     24  C   UNL     1       8.715   9.988  18.755  0.00  0.00    +0.000 C 
BRANCH  24  25
ATOM     25  C   UNL     1       9.683  10.860  17.961  0.00  0.00    +0.000 C 
BRANCH  25  26
ATOM     26  S   UNL     1       9.217  12.608  18.113  0.00  0.00    +0.000 S 
ATOM     27  H   UNL     1      10.465  13.087  18.228  0.00  0.00    +0.000 HD
ENDBRANCH  25  26
ENDBRANCH  24  25
ENDBRANCH  23  24
ENDBRANCH  22  23
ENDBRANCH  21  22
ENDBRANCH   1  21
TORSDOF 10
ENDMDL
MODEL 6
REMARK VINA RESULT:      -6.6      1.351      1.906
REMARK  Name = 
REMARK  13 active torsions:
REMARK  status: ('A' for Active; 'I' for Inactive)
REMARK    1  A    between atoms: C_1  and  C_2
REMARK    2  A    between atoms: C_2  and  C_3
REMARK    3  A    between atoms: C_2  and  C_4
REMARK    4  A    between atoms: C_2  and  N_5
REMARK    5  A    between atoms: N_8  and  C_9
REMARK    6  A    between atoms: C_9  and  C_10
REMARK    7  A    between atoms: C_9  and  C_16
REMARK    8  A    between atoms: C_10  and  C_11
REMARK    9  A    between atoms: C_11  and  C_12
REMARK   10  A    between atoms: C_12  and  C_13
REMARK   11  A    between atoms: C_13  and  C_14
REMARK   12  A    between atoms: C_14  and  S_15
REMARK   13  A    between atoms: N_18  and  C_19
REMARK                            x       y       z     vdW  Elec       q    Type
REMARK                         _______ _______ _______ _____ _____    ______ ____
ROOT
ATOM      1  C   UNL     1       4.972   5.748  17.253  0.00  0.00    +0.000 C 
ENDROOT
BRANCH   1   5
ATOM      2  N   UNL     1       3.280   3.885  19.900  0.00  0.00    +0.000 N 
ATOM      3  C   UNL     1       3.421   4.462  18.662  0.00  0.00    +0.000 C 
ATOM      4  O   UNL     1       2.555   4.479  17.795  0.00  0.00    +0.000 OA
ATOM      5  N   UNL     1       4.649   5.048  18.491  0.00  0.00    +0.000 N 
ATOM      6  H   UNL     1       3.920   4.227  20.601  0.00  0.00    +0.000 HD
ATOM      7  H   UNL     1       5.405   4.830  19.125  0.00  0.00    +0.000 HD
BRANCH   2   9
ATOM      8  C   UNL     1       0.850   4.246  20.259  0.00  0.00    +0.000 C 
ATOM      9  C   UNL     1       2.030   3.266  20.375  0.00  0.00    +0.000 C 
ATOM     10  C   UNL     1       2.168   2.776  21.828  0.00  0.00    +0.000 C 
ATOM     11  C   UNL     1       1.717   2.044  19.489  0.00  0.00    +0.000 C 
ENDBRANCH   2   9
ENDBRANCH   1   5
BRANCH   1  12
ATOM     12  C   UNL     1       5.809   4.811  16.364  0.00  0.00    +0.000 C 
ATOM     13  O   UNL     1       6.710   4.110  16.820  0.00  0.00    +0.000 OA
ATOM     14  N   UNL     1       5.445   4.808  15.031  0.00  0.00    +0.000 N 
ATOM     15  H   UNL     1       4.725   5.447  14.719  0.00  0.00    +0.000 HD
BRANCH  14  16
ATOM     16  C   UNL     1       6.161   4.044  14.033  0.00  0.00    +0.000 C 
ATOM     17  C   UNL     1       5.246   3.525  12.929  0.00  0.00    +0.000 C 
ATOM     18  C   UNL     1       6.208   3.177  11.803  0.00  0.00    +0.000 C 
ATOM     19  C   UNL     1       7.371   4.159  11.934  0.00  0.00    +0.000 C 
ATOM     20  C   UNL     1       7.170   4.892  13.261  0.00  0.00    +0.000 C 
ENDBRANCH  14  16
ENDBRANCH   1  12
BRANCH   1  21
ATOM     21  C   UNL     1       5.756   7.034  17.560  0.00  0.00    +0.000 C 
BRANCH  21  22
ATOM     22  C   UNL     1       7.274   6.923  17.357  0.00  0.00    +0.000 C 
BRANCH  22  23
ATOM     23  C   UNL     1       8.126   7.766  18.312  0.00  0.00    +0.000 C 
BRANCH  23  24
ATOM     24  C   UNL     1       8.209   9.235  17.889  0.00  0.00    +0.000 C 
BRANCH  24  25
ATOM     25  C   UNL     1       9.124  10.033  18.813  0.00  0.00    +0.000 C 
BRANCH  25  26
ATOM     26  S   UNL     1       9.221  11.758  18.256  0.00  0.00    +0.000 S 
ATOM     27  H   UNL     1       9.787  12.245  19.371  0.00  0.00    +0.000 HD
ENDBRANCH  25  26
ENDBRANCH  24  25
ENDBRANCH  23  24
ENDBRANCH  22  23
ENDBRANCH  21  22
ENDBRANCH   1  21
TORSDOF 10
ENDMDL
MODEL 7
REMARK VINA RESULT:      -6.6      1.080      1.359
REMARK  Name = 
REMARK  13 active torsions:
REMARK  status: ('A' for Active; 'I' for Inactive)
REMARK    1  A    between atoms: C_1  and  C_2
REMARK    2  A    between atoms: C_2  and  C_3
REMARK    3  A    between atoms: C_2  and  C_4
REMARK    4  A    between atoms: C_2  and  N_5
REMARK    5  A    between atoms: N_8  and  C_9
REMARK    6  A    between atoms: C_9  and  C_10
REMARK    7  A    between atoms: C_9  and  C_16
REMARK    8  A    between atoms: C_10  and  C_11
REMARK    9  A    between atoms: C_11  and  C_12
REMARK   10  A    between atoms: C_12  and  C_13
REMARK   11  A    between atoms: C_13  and  C_14
REMARK   12  A    between atoms: C_14  and  S_15
REMARK   13  A    between atoms: N_18  and  C_19
REMARK                            x       y       z     vdW  Elec       q    Type
REMARK                         _______ _______ _______ _____ _____    ______ ____
ROOT
ATOM      1  C   UNL     1       6.014   6.738  17.413  0.00  0.00    +0.000 C 
ENDROOT
BRANCH   1   5
ATOM      2  N   UNL     1       3.803   4.730  19.516  0.00  0.00    +0.000 N 
ATOM      3  C   UNL     1       4.124   5.649  18.547  0.00  0.00    +0.000 C 
ATOM      4  O   UNL     1       3.309   6.305  17.908  0.00  0.00    +0.000 OA
ATOM      5  N   UNL     1       5.478   5.778  18.372  0.00  0.00    +0.000 N 
ATOM      6  H   UNL     1       4.547   4.523  20.166  0.00  0.00    +0.000 HD
ATOM      7  H   UNL     1       6.104   5.080  18.747  0.00  0.00    +0.000 HD
BRANCH   2   9
ATOM      8  C   UNL     1       2.403   3.404  21.079  0.00  0.00    +0.000 C 
ATOM      9  C   UNL     1       2.425   4.463  19.963  0.00  0.00    +0.000 C 
ATOM     10  C   UNL     1       1.536   4.012  18.790  0.00  0.00    +0.000 C 
ATOM     11  C   UNL     1       1.830   5.765  20.536  0.00  0.00    +0.000 C 
ENDBRANCH   2   9
ENDBRANCH   1   5
BRANCH   1  12
ATOM     12  C   UNL     1       5.996   6.095  16.015  0.00  0.00    +0.000 C 
ATOM     13  O   UNL     1       5.290   6.525  15.106  0.00  0.00    +0.000 OA
ATOM     14  N   UNL     1       6.855   5.022  15.867  0.00  0.00    +0.000 N 
ATOM     15  H   UNL     1       7.371   4.692  16.673  0.00  0.00    +0.000 HD
BRANCH  14  16
ATOM     16  C   UNL     1       6.926   4.247  14.647  0.00  0.00    +0.000 C 
ATOM     17  C   UNL     1       5.548   3.873  14.113  0.00  0.00    +0.000 C 
ATOM     18  C   UNL     1       5.816   3.496  12.663  0.00  0.00    +0.000 C 
ATOM     19  C   UNL     1       7.000   4.359  12.225  0.00  0.00    +0.000 C 
ATOM     20  C   UNL     1       7.531   5.037  13.488  0.00  0.00    +0.000 C 
ENDBRANCH  14  16
ENDBRANCH   1  12
BRANCH   1  21
ATOM     21  C   UNL     1       7.448   7.130  17.802  0.00  0.00    +0.000 C 
BRANCH  21  22
ATOM     22  C   UNL     1       7.760   8.629  17.676  0.00  0.00    +0.000 C 
BRANCH  22  23
ATOM     23  C   UNL     1       8.753   9.179  18.705  0.00  0.00    +0.000 C 
BRANCH  23  24
ATOM     24  C   UNL     1       9.238  10.590  18.362  0.00  0.00    +0.000 C 
BRANCH  24  25
ATOM     25  C   UNL     1       9.948  11.241  19.544  0.00  0.00    +0.000 C 
BRANCH  25  26
ATOM     26  S   UNL     1       9.835  13.049  19.421  0.00  0.00    +0.000 S 
ATOM     27  H   UNL     1      10.849  13.321  20.258  0.00  0.00    +0.000 HD
ENDBRANCH  25  26
ENDBRANCH  24  25
ENDBRANCH  23  24
ENDBRANCH  22  23
ENDBRANCH  21  22
ENDBRANCH   1  21
TORSDOF 10
ENDMDL
MODEL 8
REMARK VINA RESULT:      -6.5      1.418      1.906
REMARK  Name = 
REMARK  13 active torsions:
REMARK  status: ('A' for Active; 'I' for Inactive)
REMARK    1  A    between atoms: C_1  and  C_2
REMARK    2  A    between atoms: C_2  and  C_3
REMARK    3  A    between atoms: C_2  and  C_4
REMARK    4  A    between atoms: C_2  and  N_5
REMARK    5  A    between atoms: N_8  and  C_9
REMARK    6  A    between atoms: C_9  and  C_10
REMARK    7  A    between atoms: C_9  and  C_16
REMARK    8  A    between atoms: C_10  and  C_11
REMARK    9  A    between atoms: C_11  and  C_12
REMARK   10  A    between atoms: C_12  and  C_13
REMARK   11  A    between atoms: C_13  and  C_14
REMARK   12  A    between atoms: C_14  and  S_15
REMARK   13  A    between atoms: N_18  and  C_19
REMARK                            x       y       z     vdW  Elec       q    Type
REMARK                         _______ _______ _______ _____ _____    ______ ____
ROOT
ATOM      1  C   UNL     1       6.203   5.091  17.872  0.00  0.00    +0.000 C 
ENDROOT
BRANCH   1   5
ATOM      2  N   UNL     1       3.550   3.777  20.012  0.00  0.00    +0.000 N 
ATOM      3  C   UNL     1       4.088   4.514  18.986  0.00  0.00    +0.000 C 
ATOM      4  O   UNL     1       3.449   5.252  18.244  0.00  0.00    +0.000 OA
ATOM      5  N   UNL     1       5.446   4.356  18.879  0.00  0.00    +0.000 N 
ATOM      6  H   UNL     1       4.210   3.492  20.719  0.00  0.00    +0.000 HD
ATOM      7  H   UNL     1       5.903   3.588  19.351  0.00  0.00    +0.000 HD
BRANCH   2   9
ATOM      8  C   UNL     1       1.876   3.021  21.681  0.00  0.00    +0.000 C 
ATOM      9  C   UNL     1       2.130   3.832  20.400  0.00  0.00    +0.000 C 
ATOM     10  C   UNL     1       1.222   3.325  19.265  0.00  0.00    +0.000 C 
ATOM     11  C   UNL     1       1.754   5.300  20.688  0.00  0.00    +0.000 C 
ENDBRANCH   2   9
ENDBRANCH   1   5
BRANCH   1  12
ATOM     12  C   UNL     1       6.198   4.278  16.566  0.00  0.00    +0.000 C 
ATOM     13  O   UNL     1       5.607   3.205  16.465  0.00  0.00    +0.000 OA
ATOM     14  N   UNL     1       6.886   4.867  15.522  0.00  0.00    +0.000 N 
ATOM     15  H   UNL     1       7.389   5.729  15.691  0.00  0.00    +0.000 HD
BRANCH  14  16
ATOM     16  C   UNL     1       7.051   4.220  14.238  0.00  0.00    +0.000 C 
ATOM     17  C   UNL     1       5.718   3.888  13.577  0.00  0.00    +0.000 C 
ATOM     18  C   UNL     1       6.088   3.662  12.119  0.00  0.00    +0.000 C 
ATOM     19  C   UNL     1       7.283   4.576  11.850  0.00  0.00    +0.000 C 
ATOM     20  C   UNL     1       7.718   5.130  13.207  0.00  0.00    +0.000 C 
ENDBRANCH  14  16
ENDBRANCH   1  12
BRANCH   1  21
ATOM     21  C   UNL     1       7.644   5.319  18.355  0.00  0.00    +0.000 C 
BRANCH  21  22
ATOM     22  C   UNL     1       8.011   6.789  18.610  0.00  0.00    +0.000 C 
BRANCH  22  23
ATOM     23  C   UNL     1       7.363   7.799  17.657  0.00  0.00    +0.000 C 
BRANCH  23  24
ATOM     24  C   UNL     1       8.158   9.103  17.550  0.00  0.00    +0.000 C 
BRANCH  24  25
ATOM     25  C   UNL     1       8.810   9.473  18.879  0.00  0.00    +0.000 C 
BRANCH  25  26
ATOM     26  S   UNL     1       9.560  11.122  18.769  0.00  0.00    +0.000 S 
ATOM     27  H   UNL     1       8.444  11.814  19.053  0.00  0.00    +0.000 HD
ENDBRANCH  25  26
ENDBRANCH  24  25
ENDBRANCH  23  24
ENDBRANCH  22  23
ENDBRANCH  21  22
ENDBRANCH   1  21
TORSDOF 10
ENDMDL
MODEL 9
REMARK VINA RESULT:      -6.5      1.639      5.954
REMARK  Name = 
REMARK  13 active torsions:
REMARK  status: ('A' for Active; 'I' for Inactive)
REMARK    1  A    between atoms: C_1  and  C_2
REMARK    2  A    between atoms: C_2  and  C_3
REMARK    3  A    between atoms: C_2  and  C_4
REMARK    4  A    between atoms: C_2  and  N_5
REMARK    5  A    between atoms: N_8  and  C_9
REMARK    6  A    between atoms: C_9  and  C_10
REMARK    7  A    between atoms: C_9  and  C_16
REMARK    8  A    between atoms: C_10  and  C_11
REMARK    9  A    between atoms: C_11  and  C_12
REMARK   10  A    between atoms: C_12  and  C_13
REMARK   11  A    between atoms: C_13  and  C_14
REMARK   12  A    between atoms: C_14  and  S_15
REMARK   13  A    between atoms: N_18  and  C_19
REMARK                            x       y       z     vdW  Elec       q    Type
REMARK                         _______ _______ _______ _____ _____    ______ ____
ROOT
ATOM      1  C   UNL     1       6.272   4.797  17.156  0.00  0.00    +0.000 C 
ENDROOT
BRANCH   1   5
ATOM      2  N   UNL     1       6.393   3.253  13.848  0.00  0.00    +0.000 N 
ATOM      3  C   UNL     1       6.292   4.282  14.752  0.00  0.00    +0.000 C 
ATOM      4  O   UNL     1       6.111   5.458  14.457  0.00  0.00    +0.000 OA
ATOM      5  N   UNL     1       6.396   3.853  16.051  0.00  0.00    +0.000 N 
ATOM      6  H   UNL     1       6.210   2.336  14.228  0.00  0.00    +0.000 HD
ATOM      7  H   UNL     1       6.758   2.932  16.251  0.00  0.00    +0.000 HD
BRANCH   2   9
ATOM      8  C   UNL     1       7.169   4.515  11.857  0.00  0.00    +0.000 C 
ATOM      9  C   UNL     1       6.228   3.424  12.394  0.00  0.00    +0.000 C 
ATOM     10  C   UNL     1       4.769   3.762  12.035  0.00  0.00    +0.000 C 
ATOM     11  C   UNL     1       6.594   2.099  11.697  0.00  0.00    +0.000 C 
ENDBRANCH   2   9
ENDBRANCH   1   5
BRANCH   1  12
ATOM     12  C   UNL     1       4.788   4.889  17.557  0.00  0.00    +0.000 C 
ATOM     13  O   UNL     1       4.060   5.799  17.165  0.00  0.00    +0.000 OA
ATOM     14  N   UNL     1       4.348   3.857  18.363  0.00  0.00    +0.000 N 
ATOM     15  H   UNL     1       5.016   3.168  18.686  0.00  0.00    +0.000 HD
BRANCH  14  16
ATOM     16  C   UNL     1       3.004   3.809  18.898  0.00  0.00    +0.000 C 
ATOM     17  C   UNL     1       2.040   3.061  17.985  0.00  0.00    +0.000 C 
ATOM     18  C   UNL     1       0.867   2.732  18.897  0.00  0.00    +0.000 C 
ATOM     19  C   UNL     1       1.465   2.556  20.292  0.00  0.00    +0.000 C 
ATOM     20  C   UNL     1       2.921   3.012  20.199  0.00  0.00    +0.000 C 
ENDBRANCH  14  16
ENDBRANCH   1  12
BRANCH   1  21
ATOM     21  C   UNL     1       6.797   6.179  16.734  0.00  0.00    +0.000 C 
BRANCH  21  22
ATOM     22  C   UNL     1       7.552   6.941  17.834  0.00  0.00    +0.000 C 
BRANCH  22  23
ATOM     23  C   UNL     1       7.785   8.430  17.556  0.00  0.00    +0.000 C 
BRANCH  23  24
ATOM     24  C   UNL     1       8.750   9.073  18.556  0.00  0.00    +0.000 C 
BRANCH  24  25
ATOM     25  C   UNL     1       8.661  10.596  18.518  0.00  0.00    +0.000 C 
BRANCH  25  26
ATOM     26  S   UNL     1      10.258  11.301  18.020  0.00  0.00    +0.000 S 
ATOM     27  H   UNL     1      10.566  10.354  17.120  0.00  0.00    +0.000 HD
ENDBRANCH  25  26
ENDBRANCH  24  25
ENDBRANCH  23  24
ENDBRANCH  22  23
ENDBRANCH  21  22
ENDBRANCH   1  21
TORSDOF 10
ENDMDL
