MODEL 1
REMARK VINA RESULT:      -8.8      0.000      0.000
REMARK  Name = 
REMARK  10 active torsions:
REMARK  status: ('A' for Active; 'I' for Inactive)
REMARK    1  A    between atoms: C_1  and  C_2
REMARK    2  A    between atoms: C_2  and  O_3
REMARK    3  A    between atoms: O_3  and  C_4
REMARK    4  A    between atoms: C_4  and  C_6
REMARK    5  A    between atoms: C_11  and  N_12
REMARK    6  A    between atoms: C_13  and  C_15
REMARK    7  A    between atoms: C_15  and  O_16
REMARK    8  A    between atoms: O_16  and  C_17
REMARK    9  A    between atoms: C_22  and  C_23
REMARK   10  A    between atoms: C_26  and  C_27
REMARK                            x       y       z     vdW  Elec       q    Type
REMARK                         _______ _______ _______ _____ _____    ______ ____
ROOT
ATOM      1  O   UNL     1       2.904   6.358  18.746  0.00  0.00    +0.000 OA
ENDROOT
BRANCH   1   2
ATOM      2  C   UNL     1       2.668   5.062  19.146  0.00  0.00    +0.000 A 
ATOM      3  C   UNL     1       1.556   4.716  19.940  0.00  0.00    +0.000 A 
ATOM      4  C   UNL     1       1.342   3.403  20.360  0.00  0.00    +0.000 A 
ATOM      5  C   UNL     1       2.243   2.412  20.008  0.00  0.00    +0.000 A 
ATOM      6  C   UNL     1       3.359   2.743  19.243  0.00  0.00    +0.000 A 
ATOM      7  C   UNL     1       3.597   4.064  18.795  0.00  0.00    +0.000 A 
BRANCH   7   8
ATOM      8  C   UNL     1       4.797   4.253  17.975  0.00  0.00    +0.000 A 
ATOM      9  N   UNL     1       6.043   4.368  18.397  0.00  0.00    +0.000 NA
ATOM     10  N   UNL     1       6.839   4.437  17.283  0.00  0.00    +0.000 NA
ATOM     11  C   UNL     1       6.033   4.373  16.243  0.00  0.00    +0.000 A 
ATOM     12  O   UNL     1       4.709   4.262  16.603  0.00  0.00    +0.000 OA
BRANCH  11  13
ATOM     13  C   UNL     1       6.380   4.387  14.829  0.00  0.00    +0.000 A 
ATOM     14  C   UNL     1       5.651   3.572  13.943  0.00  0.00    +0.000 A 
ATOM     15  C   UNL     1       5.971   3.519  12.586  0.00  0.00    +0.000 A 
ATOM     16  C   UNL     1       7.027   4.281  12.094  0.00  0.00    +0.000 A 
ATOM     17  C   UNL     1       7.752   5.104  12.955  0.00  0.00    +0.000 A 
ATOM     18  C   UNL     1       7.428   5.161  14.316  0.00  0.00    +0.000 A 
ENDBRANCH  11  13
ENDBRANCH   7   8
ENDBRANCH   1   2
BRANCH   1  19
ATOM     19  C   UNL     1       2.429   7.384  19.616  0.00  0.00    +0.000 C 
BRANCH  19  21
ATOM     20  N   UNL     1       0.762   9.172  19.675  0.00  0.00    +0.000 N 
ATOM     21  C   UNL     1       1.758   8.579  18.923  0.00  0.00    +0.000 C 
ATOM     22  O   UNL     1       2.130   8.929  17.807  0.00  0.00    +0.000 OA
ATOM     23  H   UNL     1       0.731   8.921  20.663  0.00  0.00    +0.000 HD
BRANCH  20  29
ATOM     24  C   UNL     1      -0.385  11.331  20.053  0.00  0.00    +0.000 A 
ATOM     25  C   UNL     1      -1.277  12.321  19.586  0.00  0.00    +0.000 A 
ATOM     26  C   UNL     1      -1.941  12.178  18.373  0.00  0.00    +0.000 A 
ATOM     27  C   UNL     1      -1.733  11.038  17.612  0.00  0.00    +0.000 A 
ATOM     28  C   UNL     1      -0.846  10.053  18.053  0.00  0.00    +0.000 A 
ATOM     29  C   UNL     1      -0.142  10.185  19.261  0.00  0.00    +0.000 A 
BRANCH  24  30
ATOM     30  C   UNL     1       0.304  11.674  21.332  0.00  0.00    +0.000 C 
ATOM     31  O   UNL     1       0.785  12.776  21.557  0.00  0.00    +0.000 OA
BRANCH  30  32
ATOM     32  O   UNL     1       0.416  10.598  22.146  0.00  0.00    +0.000 OA
BRANCH  32  34
ATOM     33  C   UNL     1      -1.476  11.572  23.221  0.00  0.00    +0.000 C 
ATOM     34  C   UNL     1      -0.778  10.268  22.872  0.00  0.00    +0.000 C 
ENDBRANCH  32  34
ENDBRANCH  30  32
ENDBRANCH  24  30
ENDBRANCH  20  29
ENDBRANCH  19  21
ENDBRANCH   1  19
TORSDOF 9
ENDMDL
MODEL 2
REMARK VINA RESULT:      -8.7      0.945      1.537
REMARK  Name = 
REMARK  10 active torsions:
REMARK  status: ('A' for Active; 'I' for Inactive)
REMARK    1  A    between atoms: C_1  and  C_2
REMARK    2  A    between atoms: C_2  and  O_3
REMARK    3  A    between atoms: O_3  and  C_4
REMARK    4  A    between atoms: C_4  and  C_6
REMARK    5  A    between atoms: C_11  and  N_12
REMARK    6  A    between atoms: C_13  and  C_15
REMARK    7  A    between atoms: C_15  and  O_16
REMARK    8  A    between atoms: O_16  and  C_17
REMARK    9  A    between atoms: C_22  and  C_23
REMARK   10  A    between atoms: C_26  and  C_27
REMARK                            x       y       z     vdW  Elec       q    Type
REMARK                         _______ _______ _______ _____ _____    ______ ____
ROOT
ATOM      1  O   UNL     1       2.734   6.347  18.184  0.00  0.00    +0.000 OA
ENDROOT
BRANCH   1   2
ATOM      2  C   UNL     1       2.598   5.092  18.731  0.00  0.00    +0.000 A 
ATOM      3  C   UNL     1       1.494   4.744  19.537  0.00  0.00    +0.000 A 
ATOM      4  C   UNL     1       1.380   3.476  20.107  0.00  0.00    +0.000 A 
ATOM      5  C   UNL     1       2.372   2.535  19.897  0.00  0.00    +0.000 A 
ATOM      6  C   UNL     1       3.480   2.870  19.122  0.00  0.00    +0.000 A 
ATOM      7  C   UNL     1       3.618   4.145  18.523  0.00  0.00    +0.000 A 
BRANCH   7   8
ATOM      8  C   UNL     1       4.824   4.342  17.712  0.00  0.00    +0.000 A 
ATOM      9  N   UNL     1       6.061   4.503  18.146  0.00  0.00    +0.000 NA
ATOM     10  N   UNL     1       6.869   4.560  17.040  0.00  0.00    +0.000 NA
ATOM     11  C   UNL     1       6.078   4.443  15.993  0.00  0.00    +0.000 A 
ATOM     12  O   UNL     1       4.753   4.307  16.340  0.00  0.00    +0.000 OA
BRANCH  11  13
ATOM     13  C   UNL     1       6.443   4.424  14.583  0.00  0.00    +0.000 A 
ATOM     14  C   UNL     1       5.762   3.549  13.717  0.00  0.00    +0.000 A 
ATOM     15  C   UNL     1       6.102   3.464  12.367  0.00  0.00    +0.000 A 
ATOM     16  C   UNL     1       7.130   4.253  11.861  0.00  0.00    +0.000 A 
ATOM     17  C   UNL     1       7.809   5.135  12.702  0.00  0.00    +0.000 A 
ATOM     18  C   UNL     1       7.464   5.224  14.056  0.00  0.00    +0.000 A 
ENDBRANCH  11  13
ENDBRANCH   7   8
ENDBRANCH   1   2
BRANCH   1  19
ATOM     19  C   UNL     1       2.554   7.447  19.073  0.00  0.00    +0.000 C 
BRANCH  19  21
ATOM     20  N   UNL     1       0.852   9.190  19.282  0.00  0.00    +0.000 N 
ATOM     21  C   UNL     1       1.845   8.671  18.474  0.00  0.00    +0.000 C 
ATOM     22  O   UNL     1       2.188   9.104  17.378  0.00  0.00    +0.000 OA
ATOM     23  H   UNL     1       0.845   8.873  20.251  0.00  0.00    +0.000 HD
BRANCH  20  29
ATOM     24  C   UNL     1      -0.120  11.435  19.657  0.00  0.00    +0.000 A 
ATOM     25  C   UNL     1      -1.052  12.424  19.277  0.00  0.00    +0.000 A 
ATOM     26  C   UNL     1      -1.951  12.206  18.239  0.00  0.00    +0.000 A 
ATOM     27  C   UNL     1      -1.941  10.991  17.572  0.00  0.00    +0.000 A 
ATOM     28  C   UNL     1      -1.018  10.004  17.927  0.00  0.00    +0.000 A 
ATOM     29  C   UNL     1      -0.081  10.209  18.953  0.00  0.00    +0.000 A 
BRANCH  24  30
ATOM     30  C   UNL     1       0.824  11.856  20.734  0.00  0.00    +0.000 C 
ATOM     31  O   UNL     1       1.257  11.087  21.581  0.00  0.00    +0.000 OA
BRANCH  30  32
ATOM     32  O   UNL     1       1.049  13.191  20.710  0.00  0.00    +0.000 OA
BRANCH  32  34
ATOM     33  C   UNL     1       3.298  13.938  20.980  0.00  0.00    +0.000 C 
ATOM     34  C   UNL     1       2.216  13.589  19.972  0.00  0.00    +0.000 C 
ENDBRANCH  32  34
ENDBRANCH  30  32
ENDBRANCH  24  30
ENDBRANCH  20  29
ENDBRANCH  19  21
ENDBRANCH   1  19
TORSDOF 9
ENDMDL
MODEL 3
REMARK VINA RESULT:      -8.7      1.444      2.657
REMARK  Name = 
REMARK  10 active torsions:
REMARK  status: ('A' for Active; 'I' for Inactive)
REMARK    1  A    between atoms: C_1  and  C_2
REMARK    2  A    between atoms: C_2  and  O_3
REMARK    3  A    between atoms: O_3  and  C_4
REMARK    4  A    between atoms: C_4  and  C_6
REMARK    5  A    between atoms: C_11  and  N_12
REMARK    6  A    between atoms: C_13  and  C_15
REMARK    7  A    between atoms: C_15  and  O_16
REMARK    8  A    between atoms: O_16  and  C_17
REMARK    9  A    between atoms: C_22  and  C_23
REMARK   10  A    between atoms: C_26  and  C_27
REMARK                            x       y       z     vdW  Elec       q    Type
REMARK                         _______ _______ _______ _____ _____    ______ ____
ROOT
ATOM      1  O   UNL     1       2.385   5.784  18.177  0.00  0.00    +0.000 OA
ENDROOT
BRANCH   1   2
ATOM      2  C   UNL     1       2.266   4.434  18.414  0.00  0.00    +0.000 A 
ATOM      3  C   UNL     1       1.142   3.886  19.066  0.00  0.00    +0.000 A 
ATOM      4  C   UNL     1       1.045   2.518  19.323  0.00  0.00    +0.000 A 
ATOM      5  C   UNL     1       2.075   1.673  18.950  0.00  0.00    +0.000 A 
ATOM      6  C   UNL     1       3.202   2.202  18.326  0.00  0.00    +0.000 A 
ATOM      7  C   UNL     1       3.324   3.583  18.043  0.00  0.00    +0.000 A 
BRANCH   7   8
ATOM      8  C   UNL     1       4.555   3.988  17.357  0.00  0.00    +0.000 A 
ATOM      9  N   UNL     1       5.705   4.325  17.912  0.00  0.00    +0.000 NA
ATOM     10  N   UNL     1       6.595   4.540  16.891  0.00  0.00    +0.000 NA
ATOM     11  C   UNL     1       5.935   4.333  15.771  0.00  0.00    +0.000 A 
ATOM     12  O   UNL     1       4.621   3.983  15.984  0.00  0.00    +0.000 OA
BRANCH  11  13
ATOM     13  C   UNL     1       6.430   4.412  14.403  0.00  0.00    +0.000 A 
ATOM     14  C   UNL     1       5.856   3.581  13.424  0.00  0.00    +0.000 A 
ATOM     15  C   UNL     1       6.323   3.590  12.109  0.00  0.00    +0.000 A 
ATOM     16  C   UNL     1       7.372   4.431  11.753  0.00  0.00    +0.000 A 
ATOM     17  C   UNL     1       7.945   5.272  12.708  0.00  0.00    +0.000 A 
ATOM     18  C   UNL     1       7.474   5.266  14.026  0.00  0.00    +0.000 A 
ENDBRANCH  11  13
ENDBRANCH   7   8
ENDBRANCH   1   2
BRANCH   1  19
ATOM     19  C   UNL     1       2.907   6.571  19.247  0.00  0.00    +0.000 C 
BRANCH  19  21
ATOM     20  N   UNL     1       1.551   8.433  20.067  0.00  0.00    +0.000 N 
ATOM     21  C   UNL     1       1.868   7.100  20.246  0.00  0.00    +0.000 C 
ATOM     22  O   UNL     1       1.393   6.349  21.093  0.00  0.00    +0.000 OA
ATOM     23  H   UNL     1       1.846   8.853  19.186  0.00  0.00    +0.000 HD
BRANCH  20  29
ATOM     24  C   UNL     1       0.052  10.371  20.411  0.00  0.00    +0.000 A 
ATOM     25  C   UNL     1      -0.745  11.138  21.288  0.00  0.00    +0.000 A 
ATOM     26  C   UNL     1      -0.831  10.828  22.641  0.00  0.00    +0.000 A 
ATOM     27  C   UNL     1      -0.114   9.752  23.141  0.00  0.00    +0.000 A 
ATOM     28  C   UNL     1       0.671   8.975  22.286  0.00  0.00    +0.000 A 
ATOM     29  C   UNL     1       0.755   9.250  20.911  0.00  0.00    +0.000 A 
BRANCH  24  30
ATOM     30  C   UNL     1      -0.027  10.787  18.980  0.00  0.00    +0.000 C 
ATOM     31  O   UNL     1      -0.216   9.998  18.064  0.00  0.00    +0.000 OA
BRANCH  30  32
ATOM     32  O   UNL     1       0.236  12.106  18.826  0.00  0.00    +0.000 OA
BRANCH  32  34
ATOM     33  C   UNL     1       2.462  12.009  17.976  0.00  0.00    +0.000 C 
ATOM     34  C   UNL     1       1.589  12.487  19.124  0.00  0.00    +0.000 C 
ENDBRANCH  32  34
ENDBRANCH  30  32
ENDBRANCH  24  30
ENDBRANCH  20  29
ENDBRANCH  19  21
ENDBRANCH   1  19
TORSDOF 9
ENDMDL
MODEL 4
REMARK VINA RESULT:      -8.7      1.810      2.804
REMARK  Name = 
REMARK  10 active torsions:
REMARK  status: ('A' for Active; 'I' for Inactive)
REMARK    1  A    between atoms: C_1  and  C_2
REMARK    2  A    between atoms: C_2  and  O_3
REMARK    3  A    between atoms: O_3  and  C_4
REMARK    4  A    between atoms: C_4  and  C_6
REMARK    5  A    between atoms: C_11  and  N_12
REMARK    6  A    between atoms: C_13  and  C_15
REMARK    7  A    between atoms: C_15  and  O_16
REMARK    8  A    between atoms: O_16  and  C_17
REMARK    9  A    between atoms: C_22  and  C_23
REMARK   10  A    between atoms: C_26  and  C_27
REMARK                            x       y       z     vdW  Elec       q    Type
REMARK                         _______ _______ _______ _____ _____    ______ ____
ROOT
ATOM      1  O   UNL     1       3.542   6.609  19.033  0.00  0.00    +0.000 OA
ENDROOT
BRANCH   1   2
ATOM      2  C   UNL     1       3.338   5.341  19.528  0.00  0.00    +0.000 A 
ATOM      3  C   UNL     1       2.314   5.057  20.454  0.00  0.00    +0.000 A 
ATOM      4  C   UNL     1       2.132   3.773  20.968  0.00  0.00    +0.000 A 
ATOM      5  C   UNL     1       2.980   2.750  20.578  0.00  0.00    +0.000 A 
ATOM      6  C   UNL     1       4.010   3.020  19.681  0.00  0.00    +0.000 A 
ATOM      7  C   UNL     1       4.212   4.310  19.136  0.00  0.00    +0.000 A 
BRANCH   7   8
ATOM      8  C   UNL     1       5.319   4.434  18.183  0.00  0.00    +0.000 A 
ATOM      9  N   UNL     1       6.603   4.565  18.463  0.00  0.00    +0.000 NA
ATOM     10  N   UNL     1       7.277   4.555  17.269  0.00  0.00    +0.000 NA
ATOM     11  C   UNL     1       6.365   4.429  16.327  0.00  0.00    +0.000 A 
ATOM     12  O   UNL     1       5.086   4.353  16.831  0.00  0.00    +0.000 OA
BRANCH  11  13
ATOM     13  C   UNL     1       6.560   4.347  14.886  0.00  0.00    +0.000 A 
ATOM     14  C   UNL     1       7.539   5.158  14.285  0.00  0.00    +0.000 A 
ATOM     15  C   UNL     1       7.737   5.145  12.904  0.00  0.00    +0.000 A 
ATOM     16  C   UNL     1       6.956   4.320  12.102  0.00  0.00    +0.000 A 
ATOM     17  C   UNL     1       5.988   3.499  12.681  0.00  0.00    +0.000 A 
ATOM     18  C   UNL     1       5.794   3.508  14.068  0.00  0.00    +0.000 A 
ENDBRANCH  11  13
ENDBRANCH   7   8
ENDBRANCH   1   2
BRANCH   1  19
ATOM     19  C   UNL     1       2.456   7.190  18.315  0.00  0.00    +0.000 C 
BRANCH  19  21
ATOM     20  N   UNL     1       1.840   9.528  17.944  0.00  0.00    +0.000 N 
ATOM     21  C   UNL     1       1.925   8.516  18.881  0.00  0.00    +0.000 C 
ATOM     22  O   UNL     1       1.610   8.596  20.065  0.00  0.00    +0.000 OA
ATOM     23  H   UNL     1       1.911   9.246  16.967  0.00  0.00    +0.000 HD
BRANCH  20  29
ATOM     24  C   UNL     1       0.216  11.338  18.401  0.00  0.00    +0.000 A 
ATOM     25  C   UNL     1      -0.026  12.705  18.651  0.00  0.00    +0.000 A 
ATOM     26  C   UNL     1       1.011  13.631  18.657  0.00  0.00    +0.000 A 
ATOM     27  C   UNL     1       2.305  13.207  18.403  0.00  0.00    +0.000 A 
ATOM     28  C   UNL     1       2.566  11.856  18.164  0.00  0.00    +0.000 A 
ATOM     29  C   UNL     1       1.541  10.896  18.178  0.00  0.00    +0.000 A 
BRANCH  24  30
ATOM     30  C   UNL     1      -0.991  10.466  18.508  0.00  0.00    +0.000 C 
ATOM     31  O   UNL     1      -1.524  10.191  19.574  0.00  0.00    +0.000 OA
BRANCH  30  32
ATOM     32  O   UNL     1      -1.344   9.948  17.308  0.00  0.00    +0.000 OA
BRANCH  32  34
ATOM     33  C   UNL     1      -2.903   9.754  15.515  0.00  0.00    +0.000 C 
ATOM     34  C   UNL     1      -2.416  10.640  16.648  0.00  0.00    +0.000 C 
ENDBRANCH  32  34
ENDBRANCH  30  32
ENDBRANCH  24  30
ENDBRANCH  20  29
ENDBRANCH  19  21
ENDBRANCH   1  19
TORSDOF 9
ENDMDL
MODEL 5
REMARK VINA RESULT:      -8.5      3.040      9.342
REMARK  Name = 
REMARK  10 active torsions:
REMARK  status: ('A' for Active; 'I' for Inactive)
REMARK    1  A    between atoms: C_1  and  C_2
REMARK    2  A    between atoms: C_2  and  O_3
REMARK    3  A    between atoms: O_3  and  C_4
REMARK    4  A    between atoms: C_4  and  C_6
REMARK    5  A    between atoms: C_11  and  N_12
REMARK    6  A    between atoms: C_13  and  C_15
REMARK    7  A    between atoms: C_15  and  O_16
REMARK    8  A    between atoms: O_16  and  C_17
REMARK    9  A    between atoms: C_22  and  C_23
REMARK   10  A    between atoms: C_26  and  C_27
REMARK                            x       y       z     vdW  Elec       q    Type
REMARK                         _______ _______ _______ _____ _____    ______ ____
ROOT
ATOM      1  O   UNL     1       0.972   9.363  19.755  0.00  0.00    +0.000 OA
ENDROOT
BRANCH   1   2
ATOM      2  C   UNL     1       0.326   9.762  20.902  0.00  0.00    +0.000 A 
ATOM      3  C   UNL     1       0.126   8.888  21.990  0.00  0.00    +0.000 A 
ATOM      4  C   UNL     1      -0.554   9.298  23.138  0.00  0.00    +0.000 A 
ATOM      5  C   UNL     1      -1.061  10.583  23.215  0.00  0.00    +0.000 A 
ATOM      6  C   UNL     1      -0.892  11.451  22.139  0.00  0.00    +0.000 A 
ATOM      7  C   UNL     1      -0.198  11.067  20.967  0.00  0.00    +0.000 A 
BRANCH   7   8
ATOM      8  C   UNL     1      -0.076  12.098  19.932  0.00  0.00    +0.000 A 
ATOM      9  N   UNL     1      -0.974  12.427  19.022  0.00  0.00    +0.000 NA
ATOM     10  N   UNL     1      -0.469  13.496  18.328  0.00  0.00    +0.000 NA
ATOM     11  C   UNL     1       0.715  13.750  18.845  0.00  0.00    +0.000 A 
ATOM     12  O   UNL     1       1.043  12.894  19.872  0.00  0.00    +0.000 OA
BRANCH  11  13
ATOM     13  C   UNL     1       1.655  14.801  18.476  0.00  0.00    +0.000 A 
ATOM     14  C   UNL     1       2.927  14.437  17.999  0.00  0.00    +0.000 A 
ATOM     15  C   UNL     1       3.877  15.405  17.671  0.00  0.00    +0.000 A 
ATOM     16  C   UNL     1       3.569  16.754  17.818  0.00  0.00    +0.000 A 
ATOM     17  C   UNL     1       2.308  17.134  18.278  0.00  0.00    +0.000 A 
ATOM     18  C   UNL     1       1.353  16.162  18.602  0.00  0.00    +0.000 A 
ENDBRANCH  11  13
ENDBRANCH   7   8
ENDBRANCH   1   2
BRANCH   1  19
ATOM     19  C   UNL     1       1.756   8.175  19.852  0.00  0.00    +0.000 C 
BRANCH  19  21
ATOM     20  N   UNL     1       3.041   6.479  18.647  0.00  0.00    +0.000 N 
ATOM     21  C   UNL     1       2.391   7.693  18.539  0.00  0.00    +0.000 C 
ATOM     22  O   UNL     1       2.282   8.370  17.520  0.00  0.00    +0.000 OA
ATOM     23  H   UNL     1       2.845   5.934  19.486  0.00  0.00    +0.000 HD
BRANCH  20  29
ATOM     24  C   UNL     1       3.763   4.457  17.417  0.00  0.00    +0.000 A 
ATOM     25  C   UNL     1       4.574   3.879  16.417  0.00  0.00    +0.000 A 
ATOM     26  C   UNL     1       5.479   4.646  15.691  0.00  0.00    +0.000 A 
ATOM     27  C   UNL     1       5.594   6.001  15.960  0.00  0.00    +0.000 A 
ATOM     28  C   UNL     1       4.791   6.592  16.938  0.00  0.00    +0.000 A 
ATOM     29  C   UNL     1       3.851   5.846  17.668  0.00  0.00    +0.000 A 
BRANCH  24  30
ATOM     30  C   UNL     1       2.791   3.514  18.046  0.00  0.00    +0.000 C 
ATOM     31  O   UNL     1       1.915   2.939  17.416  0.00  0.00    +0.000 OA
BRANCH  30  32
ATOM     32  O   UNL     1       2.940   3.464  19.391  0.00  0.00    +0.000 OA
BRANCH  32  34
ATOM     33  C   UNL     1       1.924   3.132  21.522  0.00  0.00    +0.000 C 
ATOM     34  C   UNL     1       1.955   2.672  20.075  0.00  0.00    +0.000 C 
ENDBRANCH  32  34
ENDBRANCH  30  32
ENDBRANCH  24  30
ENDBRANCH  20  29
ENDBRANCH  19  21
ENDBRANCH   1  19
TORSDOF 9
ENDMDL
MODEL 6
REMARK VINA RESULT:      -8.5      1.687      2.535
REMARK  Name = 
REMARK  10 active torsions:
REMARK  status: ('A' for Active; 'I' for Inactive)
REMARK    1  A    between atoms: C_1  and  C_2
REMARK    2  A    between atoms: C_2  and  O_3
REMARK    3  A    between atoms: O_3  and  C_4
REMARK    4  A    between atoms: C_4  and  C_6
REMARK    5  A    between atoms: C_11  and  N_12
REMARK    6  A    between atoms: C_13  and  C_15
REMARK    7  A    between atoms: C_15  and  O_16
REMARK    8  A    between atoms: O_16  and  C_17
REMARK    9  A    between atoms: C_22  and  C_23
REMARK   10  A    between atoms: C_26  and  C_27
REMARK                            x       y       z     vdW  Elec       q    Type
REMARK                         _______ _______ _______ _____ _____    ______ ____
ROOT
ATOM      1  O   UNL     1       2.548   6.419  18.205  0.00  0.00    +0.000 OA
ENDROOT
BRANCH   1   2
ATOM      2  C   UNL     1       2.424   5.149  18.720  0.00  0.00    +0.000 A 
ATOM      3  C   UNL     1       1.322   4.770  19.514  0.00  0.00    +0.000 A 
ATOM      4  C   UNL     1       1.220   3.486  20.051  0.00  0.00    +0.000 A 
ATOM      5  C   UNL     1       2.223   2.561  19.819  0.00  0.00    +0.000 A 
ATOM      6  C   UNL     1       3.328   2.928  19.056  0.00  0.00    +0.000 A 
ATOM      7  C   UNL     1       3.455   4.219  18.490  0.00  0.00    +0.000 A 
BRANCH   7   8
ATOM      8  C   UNL     1       4.660   4.449  17.688  0.00  0.00    +0.000 A 
ATOM      9  N   UNL     1       5.875   4.715  18.130  0.00  0.00    +0.000 NA
ATOM     10  N   UNL     1       6.699   4.764  17.035  0.00  0.00    +0.000 NA
ATOM     11  C   UNL     1       5.937   4.537  15.985  0.00  0.00    +0.000 A 
ATOM     12  O   UNL     1       4.617   4.333  16.319  0.00  0.00    +0.000 OA
BRANCH  11  13
ATOM     13  C   UNL     1       6.329   4.462  14.584  0.00  0.00    +0.000 A 
ATOM     14  C   UNL     1       5.628   3.594  13.728  0.00  0.00    +0.000 A 
ATOM     15  C   UNL     1       5.990   3.457  12.387  0.00  0.00    +0.000 A 
ATOM     16  C   UNL     1       7.062   4.187  11.883  0.00  0.00    +0.000 A 
ATOM     17  C   UNL     1       7.762   5.062  12.714  0.00  0.00    +0.000 A 
ATOM     18  C   UNL     1       7.395   5.203  14.058  0.00  0.00    +0.000 A 
ENDBRANCH  11  13
ENDBRANCH   7   8
ENDBRANCH   1   2
BRANCH   1  19
ATOM     19  C   UNL     1       2.223   7.493  19.086  0.00  0.00    +0.000 C 
BRANCH  19  21
ATOM     20  N   UNL     1       1.555   9.838  19.271  0.00  0.00    +0.000 N 
ATOM     21  C   UNL     1       2.023   8.860  18.415  0.00  0.00    +0.000 C 
ATOM     22  O   UNL     1       2.287   9.004  17.225  0.00  0.00    +0.000 OA
ATOM     23  H   UNL     1       1.609   9.630  20.268  0.00  0.00    +0.000 HD
BRANCH  20  29
ATOM     24  C   UNL     1      -0.226  11.428  18.622  0.00  0.00    +0.000 A 
ATOM     25  C   UNL     1      -0.607  12.751  18.311  0.00  0.00    +0.000 A 
ATOM     26  C   UNL     1       0.328  13.780  18.276  0.00  0.00    +0.000 A 
ATOM     27  C   UNL     1       1.659  13.502  18.540  0.00  0.00    +0.000 A 
ATOM     28  C   UNL     1       2.053  12.200  18.861  0.00  0.00    +0.000 A 
ATOM     29  C   UNL     1       1.125  11.148  18.930  0.00  0.00    +0.000 A 
BRANCH  24  30
ATOM     30  C   UNL     1      -1.360  10.459  18.695  0.00  0.00    +0.000 C 
ATOM     31  O   UNL     1      -1.339   9.458  19.398  0.00  0.00    +0.000 OA
BRANCH  30  32
ATOM     32  O   UNL     1      -2.346  10.774  17.823  0.00  0.00    +0.000 OA
BRANCH  32  34
ATOM     33  C   UNL     1      -2.823  10.521  15.500  0.00  0.00    +0.000 C 
ATOM     34  C   UNL     1      -2.588   9.785  16.809  0.00  0.00    +0.000 C 
ENDBRANCH  32  34
ENDBRANCH  30  32
ENDBRANCH  24  30
ENDBRANCH  20  29
ENDBRANCH  19  21
ENDBRANCH   1  19
TORSDOF 9
ENDMDL
MODEL 7
REMARK VINA RESULT:      -8.4      1.304      1.824
REMARK  Name = 
REMARK  10 active torsions:
REMARK  status: ('A' for Active; 'I' for Inactive)
REMARK    1  A    between atoms: C_1  and  C_2
REMARK    2  A    between atoms: C_2  and  O_3
REMARK    3  A    between atoms: O_3  and  C_4
REMARK    4  A    between atoms: C_4  and  C_6
REMARK    5  A    between atoms: C_11  and  N_12
REMARK    6  A    between atoms: C_13  and  C_15
REMARK    7  A    between atoms: C_15  and  O_16
REMARK    8  A    between atoms: O_16  and  C_17
REMARK    9  A    between atoms: C_22  and  C_23
REMARK   10  A    between atoms: C_26  and  C_27
REMARK                            x       y       z     vdW  Elec       q    Type
REMARK                         _______ _______ _______ _____ _____    ______ ____
ROOT
ATOM      1  O   UNL     1       3.145   7.738  18.631  0.00  0.00    +0.000 OA
ENDROOT
BRANCH   1   2
ATOM      2  C   UNL     1       3.051   6.459  19.128  0.00  0.00    +0.000 A 
ATOM      3  C   UNL     1       2.116   6.111  20.124  0.00  0.00    +0.000 A 
ATOM      4  C   UNL     1       2.047   4.816  20.638  0.00  0.00    +0.000 A 
ATOM      5  C   UNL     1       2.922   3.846  20.180  0.00  0.00    +0.000 A 
ATOM      6  C   UNL     1       3.868   4.180  19.213  0.00  0.00    +0.000 A 
ATOM      7  C   UNL     1       3.954   5.482  18.666  0.00  0.00    +0.000 A 
BRANCH   7   8
ATOM      8  C   UNL     1       4.980   5.676  17.637  0.00  0.00    +0.000 A 
ATOM      9  N   UNL     1       6.094   6.377  17.741  0.00  0.00    +0.000 NA
ATOM     10  N   UNL     1       6.787   6.204  16.571  0.00  0.00    +0.000 NA
ATOM     11  C   UNL     1       6.052   5.417  15.814  0.00  0.00    +0.000 A 
ATOM     12  O   UNL     1       4.875   5.041  16.422  0.00  0.00    +0.000 OA
BRANCH  11  13
ATOM     13  C   UNL     1       6.348   4.913  14.480  0.00  0.00    +0.000 A 
ATOM     14  C   UNL     1       5.507   3.933  13.922  0.00  0.00    +0.000 A 
ATOM     15  C   UNL     1       5.771   3.389  12.664  0.00  0.00    +0.000 A 
ATOM     16  C   UNL     1       6.882   3.818  11.945  0.00  0.00    +0.000 A 
ATOM     17  C   UNL     1       7.720   4.798  12.477  0.00  0.00    +0.000 A 
ATOM     18  C   UNL     1       7.452   5.347  13.736  0.00  0.00    +0.000 A 
ENDBRANCH  11  13
ENDBRANCH   7   8
ENDBRANCH   1   2
BRANCH   1  19
ATOM     19  C   UNL     1       2.115   8.145  17.733  0.00  0.00    +0.000 C 
BRANCH  19  21
ATOM     20  N   UNL     1       0.284   9.388  18.774  0.00  0.00    +0.000 N 
ATOM     21  C   UNL     1       1.456   9.496  18.050  0.00  0.00    +0.000 C 
ATOM     22  O   UNL     1       1.984  10.539  17.676  0.00  0.00    +0.000 OA
ATOM     23  H   UNL     1       0.102   8.483  19.208  0.00  0.00    +0.000 HD
BRANCH  20  29
ATOM     24  C   UNL     1      -0.423  11.296  20.181  0.00  0.00    +0.000 A 
ATOM     25  C   UNL     1      -1.353  12.326  20.437  0.00  0.00    +0.000 A 
ATOM     26  C   UNL     1      -2.488  12.484  19.648  0.00  0.00    +0.000 A 
ATOM     27  C   UNL     1      -2.716  11.609  18.598  0.00  0.00    +0.000 A 
ATOM     28  C   UNL     1      -1.800  10.591  18.323  0.00  0.00    +0.000 A 
ATOM     29  C   UNL     1      -0.633  10.425  19.087  0.00  0.00    +0.000 A 
BRANCH  24  30
ATOM     30  C   UNL     1       0.777  11.312  21.069  0.00  0.00    +0.000 C 
ATOM     31  O   UNL     1       1.270  10.299  21.544  0.00  0.00    +0.000 OA
BRANCH  30  32
ATOM     32  O   UNL     1       1.174  12.575  21.354  0.00  0.00    +0.000 OA
BRANCH  32  34
ATOM     33  C   UNL     1       1.908  14.508  20.166  0.00  0.00    +0.000 C 
ATOM     34  C   UNL     1       2.239  13.070  20.527  0.00  0.00    +0.000 C 
ENDBRANCH  32  34
ENDBRANCH  30  32
ENDBRANCH  24  30
ENDBRANCH  20  29
ENDBRANCH  19  21
ENDBRANCH   1  19
TORSDOF 9
ENDMDL
MODEL 8
REMARK VINA RESULT:      -8.4      2.884      9.774
REMARK  Name = 
REMARK  10 active torsions:
REMARK  status: ('A' for Active; 'I' for Inactive)
REMARK    1  A    between atoms: C_1  and  C_2
REMARK    2  A    between atoms: C_2  and  O_3
REMARK    3  A    between atoms: O_3  and  C_4
REMARK    4  A    between atoms: C_4  and  C_6
REMARK    5  A    between atoms: C_11  and  N_12
REMARK    6  A    between atoms: C_13  and  C_15
REMARK    7  A    between atoms: C_15  and  O_16
REMARK    8  A    between atoms: O_16  and  C_17
REMARK    9  A    between atoms: C_22  and  C_23
REMARK   10  A    between atoms: C_26  and  C_27
REMARK                            x       y       z     vdW  Elec       q    Type
REMARK                         _______ _______ _______ _____ _____    ______ ____
ROOT
ATOM      1  O   UNL     1       0.927   9.497  19.712  0.00  0.00    +0.000 OA
ENDROOT
BRANCH   1   2
ATOM      2  C   UNL     1       0.281   9.888  20.862  0.00  0.00    +0.000 A 
ATOM      3  C   UNL     1       0.168   9.038  21.981  0.00  0.00    +0.000 A 
ATOM      4  C   UNL     1      -0.512   9.436  23.133  0.00  0.00    +0.000 A 
ATOM      5  C   UNL     1      -1.106  10.685  23.184  0.00  0.00    +0.000 A 
ATOM      6  C   UNL     1      -1.023  11.528  22.078  0.00  0.00    +0.000 A 
ATOM      7  C   UNL     1      -0.332  11.155  20.901  0.00  0.00    +0.000 A 
BRANCH   7   8
ATOM      8  C   UNL     1      -0.305  12.157  19.831  0.00  0.00    +0.000 A 
ATOM      9  N   UNL     1      -0.851  12.060  18.632  0.00  0.00    +0.000 NA
ATOM     10  N   UNL     1      -0.654  13.263  18.004  0.00  0.00    +0.000 NA
ATOM     11  C   UNL     1       0.011  14.022  18.850  0.00  0.00    +0.000 A 
ATOM     12  O   UNL     1       0.279  13.383  20.040  0.00  0.00    +0.000 OA
BRANCH  11  13
ATOM     13  C   UNL     1       0.451  15.399  18.676  0.00  0.00    +0.000 A 
ATOM     14  C   UNL     1      -0.513  16.394  18.431  0.00  0.00    +0.000 A 
ATOM     15  C   UNL     1      -0.139  17.722  18.217  0.00  0.00    +0.000 A 
ATOM     16  C   UNL     1       1.207  18.074  18.243  0.00  0.00    +0.000 A 
ATOM     17  C   UNL     1       2.176  17.103  18.497  0.00  0.00    +0.000 A 
ATOM     18  C   UNL     1       1.800  15.772  18.717  0.00  0.00    +0.000 A 
ENDBRANCH  11  13
ENDBRANCH   7   8
ENDBRANCH   1   2
BRANCH   1  19
ATOM     19  C   UNL     1       1.838   8.406  19.838  0.00  0.00    +0.000 C 
BRANCH  19  21
ATOM     20  N   UNL     1       3.111   6.680  18.664  0.00  0.00    +0.000 N 
ATOM     21  C   UNL     1       2.381   7.843  18.516  0.00  0.00    +0.000 C 
ATOM     22  O   UNL     1       2.141   8.419  17.459  0.00  0.00    +0.000 OA
ATOM     23  H   UNL     1       3.024   6.202  19.561  0.00  0.00    +0.000 HD
BRANCH  20  29
ATOM     24  C   UNL     1       3.674   4.632  17.394  0.00  0.00    +0.000 A 
ATOM     25  C   UNL     1       4.437   4.014  16.380  0.00  0.00    +0.000 A 
ATOM     26  C   UNL     1       5.394   4.724  15.664  0.00  0.00    +0.000 A 
ATOM     27  C   UNL     1       5.612   6.061  15.958  0.00  0.00    +0.000 A 
ATOM     28  C   UNL     1       4.859   6.693  16.950  0.00  0.00    +0.000 A 
ATOM     29  C   UNL     1       3.868   6.006  17.670  0.00  0.00    +0.000 A 
BRANCH  24  30
ATOM     30  C   UNL     1       2.637   3.754  18.011  0.00  0.00    +0.000 C 
ATOM     31  O   UNL     1       1.905   3.024  17.357  0.00  0.00    +0.000 OA
BRANCH  30  32
ATOM     32  O   UNL     1       2.546   3.946  19.348  0.00  0.00    +0.000 OA
BRANCH  32  34
ATOM     33  C   UNL     1       1.598   2.878  21.257  0.00  0.00    +0.000 C 
ATOM     34  C   UNL     1       2.612   2.745  20.133  0.00  0.00    +0.000 C 
ENDBRANCH  32  34
ENDBRANCH  30  32
ENDBRANCH  24  30
ENDBRANCH  20  29
ENDBRANCH  19  21
ENDBRANCH   1  19
TORSDOF 9
ENDMDL
MODEL 9
REMARK VINA RESULT:      -8.4      0.797      1.252
REMARK  Name = 
REMARK  10 active torsions:
REMARK  status: ('A' for Active; 'I' for Inactive)
REMARK    1  A    between atoms: C_1  and  C_2
REMARK    2  A    between atoms: C_2  and  O_3
REMARK    3  A    between atoms: O_3  and  C_4
REMARK    4  A    between atoms: C_4  and  C_6
REMARK    5  A    between atoms: C_11  and  N_12
REMARK    6  A    between atoms: C_13  and  C_15
REMARK    7  A    between atoms: C_15  and  O_16
REMARK    8  A    between atoms: O_16  and  C_17
REMARK    9  A    between atoms: C_22  and  C_23
REMARK   10  A    between atoms: C_26  and  C_27
REMARK                            x       y       z     vdW  Elec       q    Type
REMARK                         _______ _______ _______ _____ _____    ______ ____
ROOT
ATOM      1  O   UNL     1       3.228   6.689  19.083  0.00  0.00    +0.000 OA
ENDROOT
BRANCH   1   2
ATOM      2  C   UNL     1       3.045   5.444  19.639  0.00  0.00    +0.000 A 
ATOM      3  C   UNL     1       1.996   5.175  20.541  0.00  0.00    +0.000 A 
ATOM      4  C   UNL     1       1.836   3.914  21.117  0.00  0.00    +0.000 A 
ATOM      5  C   UNL     1       2.730   2.901  20.816  0.00  0.00    +0.000 A 
ATOM      6  C   UNL     1       3.785   3.158  19.944  0.00  0.00    +0.000 A 
ATOM      7  C   UNL     1       3.967   4.423  19.337  0.00  0.00    +0.000 A 
BRANCH   7   8
ATOM      8  C   UNL     1       5.105   4.534  18.420  0.00  0.00    +0.000 A 
ATOM      9  N   UNL     1       6.381   4.653  18.741  0.00  0.00    +0.000 NA
ATOM     10  N   UNL     1       7.093   4.633  17.570  0.00  0.00    +0.000 NA
ATOM     11  C   UNL     1       6.211   4.515  16.599  0.00  0.00    +0.000 A 
ATOM     12  O   UNL     1       4.915   4.453  17.062  0.00  0.00    +0.000 OA
BRANCH  11  13
ATOM     13  C   UNL     1       6.451   4.427  15.165  0.00  0.00    +0.000 A 
ATOM     14  C   UNL     1       7.504   5.173  14.606  0.00  0.00    +0.000 A 
ATOM     15  C   UNL     1       7.750   5.154  13.233  0.00  0.00    +0.000 A 
ATOM     16  C   UNL     1       6.944   4.388  12.396  0.00  0.00    +0.000 A 
ATOM     17  C   UNL     1       5.903   3.632  12.934  0.00  0.00    +0.000 A 
ATOM     18  C   UNL     1       5.660   3.647  14.313  0.00  0.00    +0.000 A 
ENDBRANCH  11  13
ENDBRANCH   7   8
ENDBRANCH   1   2
BRANCH   1  19
ATOM     19  C   UNL     1       2.277   7.087  18.097  0.00  0.00    +0.000 C 
BRANCH  19  21
ATOM     20  N   UNL     1       0.743   8.822  18.884  0.00  0.00    +0.000 N 
ATOM     21  C   UNL     1       1.873   8.569  18.130  0.00  0.00    +0.000 C 
ATOM     22  O   UNL     1       2.544   9.402  17.528  0.00  0.00    +0.000 OA
ATOM     23  H   UNL     1       0.439   8.074  19.507  0.00  0.00    +0.000 HD
BRANCH  20  29
ATOM     24  C   UNL     1      -0.026  10.773  20.197  0.00  0.00    +0.000 A 
ATOM     25  C   UNL     1      -0.728  11.996  20.240  0.00  0.00    +0.000 A 
ATOM     26  C   UNL     1      -1.387  12.488  19.119  0.00  0.00    +0.000 A 
ATOM     27  C   UNL     1      -1.364  11.760  17.940  0.00  0.00    +0.000 A 
ATOM     28  C   UNL     1      -0.665  10.552  17.876  0.00  0.00    +0.000 A 
ATOM     29  C   UNL     1       0.031  10.046  18.986  0.00  0.00    +0.000 A 
BRANCH  24  30
ATOM     30  C   UNL     1       0.691  10.426  21.460  0.00  0.00    +0.000 C 
ATOM     31  O   UNL     1       1.568   9.576  21.519  0.00  0.00    +0.000 OA
BRANCH  30  32
ATOM     32  O   UNL     1       0.180  11.088  22.525  0.00  0.00    +0.000 OA
BRANCH  32  34
ATOM     33  C   UNL     1      -2.036  11.453  23.327  0.00  0.00    +0.000 C 
ATOM     34  C   UNL     1      -0.923  10.430  23.168  0.00  0.00    +0.000 C 
ENDBRANCH  32  34
ENDBRANCH  30  32
ENDBRANCH  24  30
ENDBRANCH  20  29
ENDBRANCH  19  21
ENDBRANCH   1  19
TORSDOF 9
ENDMDL
