MODEL 1
REMARK VINA RESULT:      -6.5      0.000      0.000
REMARK  Name = 
REMARK  10 active torsions:
REMARK  status: ('A' for Active; 'I' for Inactive)
REMARK    1  A    between atoms: C_1  and  C_2
REMARK    2  A    between atoms: C_2  and  C_3
REMARK    3  A    between atoms: C_3  and  C_4
REMARK    4  A    between atoms: C_4  and  C_5
REMARK    5  A    between atoms: C_5  and  C_6
REMARK    6  A    between atoms: C_6  and  C_7
REMARK    7  A    between atoms: C_6  and  N_8
REMARK    8  A    between atoms: N_8  and  C_9
REMARK    9  A    between atoms: C_9  and  C_10
REMARK   10  A    between atoms: C_13  and  C_14
REMARK                            x       y       z     vdW  Elec       q    Type
REMARK                         _______ _______ _______ _____ _____    ______ ____
ROOT
ATOM      1  C   UNL     1       4.526   5.550  18.269  0.00  0.00    +0.000 A 
ATOM      2  C   UNL     1       4.604   6.317  17.129  0.00  0.00    +0.000 A 
ATOM      3  O   UNL     1       3.718   7.341  17.236  0.00  0.00    +0.000 OA
ATOM      4  C   UNL     1       3.131   7.153  18.463  0.00  0.00    +0.000 A 
ATOM      5  N   UNL     1       3.567   6.088  19.106  0.00  0.00    +0.000 NA
ENDROOT
BRANCH   4   6
ATOM      6  C   UNL     1       2.140   8.144  18.870  0.00  0.00    +0.000 A 
ATOM      7  C   UNL     1       1.668   8.213  20.190  0.00  0.00    +0.000 A 
ATOM      8  C   UNL     1       0.707   9.158  20.559  0.00  0.00    +0.000 A 
ATOM      9  C   UNL     1       0.209  10.044  19.607  0.00  0.00    +0.000 A 
ATOM     10 BR   UNL     1      -1.097  11.316  20.105  0.00  0.00    +0.000 Br
ATOM     11  C   UNL     1       0.667   9.998  18.292  0.00  0.00    +0.000 A 
ATOM     12  C   UNL     1       1.629   9.051  17.928  0.00  0.00    +0.000 A 
ENDBRANCH   4   6
BRANCH   1  13
ATOM     13  C   UNL     1       5.272   4.319  18.659  0.00  0.00    +0.000 C 
BRANCH  13  14
ATOM     14  N   UNL     1       4.829   3.172  17.858  0.00  0.00    +0.000 NA
ATOM     15  H   UNL     1       4.585   3.503  16.927  0.00  0.00    +0.000 HD
BRANCH  14  16
ATOM     16  C   UNL     1       3.654   2.486  18.423  0.00  0.00    +0.000 C 
ATOM     17  C   UNL     1       3.906   0.987  18.633  0.00  0.00    +0.000 C 
BRANCH  16  18
ATOM     18  C   UNL     1       2.471   2.727  17.453  0.00  0.00    +0.000 C 
BRANCH  18  19
ATOM     19  C   UNL     1       1.350   3.559  18.081  0.00  0.00    +0.000 C 
BRANCH  19  20
ATOM     20  C   UNL     1       0.880   2.993  19.419  0.00  0.00    +0.000 C 
BRANCH  20  22
ATOM     21  C   UNL     1       2.099   3.659  21.527  0.00  0.00    +0.000 C 
ATOM     22  C   UNL     1       1.036   4.047  20.515  0.00  0.00    +0.000 C 
ENDBRANCH  20  22
ENDBRANCH  19  20
ENDBRANCH  18  19
ENDBRANCH  16  18
ENDBRANCH  14  16
ENDBRANCH  13  14
ENDBRANCH   1  13
TORSDOF 8
ENDMDL
MODEL 2
REMARK VINA RESULT:      -6.4      3.123      4.825
REMARK  Name = 
REMARK  10 active torsions:
REMARK  status: ('A' for Active; 'I' for Inactive)
REMARK    1  A    between atoms: C_1  and  C_2
REMARK    2  A    between atoms: C_2  and  C_3
REMARK    3  A    between atoms: C_3  and  C_4
REMARK    4  A    between atoms: C_4  and  C_5
REMARK    5  A    between atoms: C_5  and  C_6
REMARK    6  A    between atoms: C_6  and  C_7
REMARK    7  A    between atoms: C_6  and  N_8
REMARK    8  A    between atoms: N_8  and  C_9
REMARK    9  A    between atoms: C_9  and  C_10
REMARK   10  A    between atoms: C_13  and  C_14
REMARK                            x       y       z     vdW  Elec       q    Type
REMARK                         _______ _______ _______ _____ _____    ______ ____
ROOT
ATOM      1  C   UNL     1       3.673   4.470  17.952  0.00  0.00    +0.000 A 
ATOM      2  C   UNL     1       2.742   4.072  18.884  0.00  0.00    +0.000 A 
ATOM      3  O   UNL     1       2.080   5.171  19.330  0.00  0.00    +0.000 OA
ATOM      4  C   UNL     1       2.643   6.211  18.633  0.00  0.00    +0.000 A 
ATOM      5  N   UNL     1       3.609   5.844  17.814  0.00  0.00    +0.000 NA
ENDROOT
BRANCH   4   6
ATOM      6  C   UNL     1       2.095   7.540  18.887  0.00  0.00    +0.000 A 
ATOM      7  C   UNL     1       2.020   8.510  17.877  0.00  0.00    +0.000 A 
ATOM      8  C   UNL     1       1.507   9.782  18.142  0.00  0.00    +0.000 A 
ATOM      9  C   UNL     1       1.065  10.095  19.425  0.00  0.00    +0.000 A 
ATOM     10 BR   UNL     1       0.379  11.819  19.785  0.00  0.00    +0.000 Br
ATOM     11  C   UNL     1       1.123   9.146  20.443  0.00  0.00    +0.000 A 
ATOM     12  C   UNL     1       1.637   7.873  20.172  0.00  0.00    +0.000 A 
ENDBRANCH   4   6
BRANCH   1  13
ATOM     13  C   UNL     1       4.654   3.671  17.163  0.00  0.00    +0.000 C 
BRANCH  13  14
ATOM     14  N   UNL     1       5.045   4.391  15.946  0.00  0.00    +0.000 NA
ATOM     15  H   UNL     1       4.734   3.852  15.138  0.00  0.00    +0.000 HD
BRANCH  14  16
ATOM     16  C   UNL     1       6.499   4.593  15.829  0.00  0.00    +0.000 C 
ATOM     17  C   UNL     1       6.960   5.877  16.531  0.00  0.00    +0.000 C 
BRANCH  16  18
ATOM     18  C   UNL     1       6.839   4.623  14.319  0.00  0.00    +0.000 C 
BRANCH  18  19
ATOM     19  C   UNL     1       5.784   3.924  13.459  0.00  0.00    +0.000 C 
BRANCH  19  20
ATOM     20  C   UNL     1       6.384   3.253  12.225  0.00  0.00    +0.000 C 
BRANCH  20  22
ATOM     21  C   UNL     1       4.050   3.278  11.262  0.00  0.00    +0.000 C 
ATOM     22  C   UNL     1       5.307   2.456  11.489  0.00  0.00    +0.000 C 
ENDBRANCH  20  22
ENDBRANCH  19  20
ENDBRANCH  18  19
ENDBRANCH  16  18
ENDBRANCH  14  16
ENDBRANCH  13  14
ENDBRANCH   1  13
TORSDOF 8
ENDMDL
MODEL 3
REMARK VINA RESULT:      -6.3      2.623      4.341
REMARK  Name = 
REMARK  10 active torsions:
REMARK  status: ('A' for Active; 'I' for Inactive)
REMARK    1  A    between atoms: C_1  and  C_2
REMARK    2  A    between atoms: C_2  and  C_3
REMARK    3  A    between atoms: C_3  and  C_4
REMARK    4  A    between atoms: C_4  and  C_5
REMARK    5  A    between atoms: C_5  and  C_6
REMARK    6  A    between atoms: C_6  and  C_7
REMARK    7  A    between atoms: C_6  and  N_8
REMARK    8  A    between atoms: N_8  and  C_9
REMARK    9  A    between atoms: C_9  and  C_10
REMARK   10  A    between atoms: C_13  and  C_14
REMARK                            x       y       z     vdW  Elec       q    Type
REMARK                         _______ _______ _______ _____ _____    ______ ____
ROOT
ATOM      1  C   UNL     1       3.787   4.564  18.938  0.00  0.00    +0.000 A 
ATOM      2  C   UNL     1       3.052   4.425  20.093  0.00  0.00    +0.000 A 
ATOM      3  O   UNL     1       2.374   5.580  20.315  0.00  0.00    +0.000 OA
ATOM      4  C   UNL     1       2.727   6.388  19.262  0.00  0.00    +0.000 A 
ATOM      5  N   UNL     1       3.582   5.832  18.426  0.00  0.00    +0.000 NA
ENDROOT
BRANCH   4   6
ATOM      6  C   UNL     1       2.110   7.710  19.218  0.00  0.00    +0.000 A 
ATOM      7  C   UNL     1       1.485   8.268  20.344  0.00  0.00    +0.000 A 
ATOM      8  C   UNL     1       0.886   9.528  20.279  0.00  0.00    +0.000 A 
ATOM      9  C   UNL     1       0.906  10.243  19.084  0.00  0.00    +0.000 A 
ATOM     10 BR   UNL     1       0.088  11.944  18.995  0.00  0.00    +0.000 Br
ATOM     11  C   UNL     1       1.527   9.712  17.955  0.00  0.00    +0.000 A 
ATOM     12  C   UNL     1       2.126   8.450  18.024  0.00  0.00    +0.000 A 
ENDBRANCH   4   6
BRANCH   1  13
ATOM     13  C   UNL     1       4.700   3.606  18.251  0.00  0.00    +0.000 C 
BRANCH  13  14
ATOM     14  N   UNL     1       6.078   4.111  18.258  0.00  0.00    +0.000 NA
ATOM     15  H   UNL     1       6.112   4.948  18.837  0.00  0.00    +0.000 HD
BRANCH  14  16
ATOM     16  C   UNL     1       6.577   4.461  16.917  0.00  0.00    +0.000 C 
ATOM     17  C   UNL     1       6.672   5.979  16.715  0.00  0.00    +0.000 C 
BRANCH  16  18
ATOM     18  C   UNL     1       5.620   3.815  15.886  0.00  0.00    +0.000 C 
BRANCH  18  19
ATOM     19  C   UNL     1       5.577   4.575  14.559  0.00  0.00    +0.000 C 
BRANCH  19  20
ATOM     20  C   UNL     1       6.783   4.274  13.672  0.00  0.00    +0.000 C 
BRANCH  20  22
ATOM     21  C   UNL     1       4.844   3.558  12.221  0.00  0.00    +0.000 C 
ATOM     22  C   UNL     1       6.343   3.470  12.448  0.00  0.00    +0.000 C 
ENDBRANCH  20  22
ENDBRANCH  19  20
ENDBRANCH  18  19
ENDBRANCH  16  18
ENDBRANCH  14  16
ENDBRANCH  13  14
ENDBRANCH   1  13
TORSDOF 8
ENDMDL
MODEL 4
REMARK VINA RESULT:      -6.3      4.987      5.765
REMARK  Name = 
REMARK  10 active torsions:
REMARK  status: ('A' for Active; 'I' for Inactive)
REMARK    1  A    between atoms: C_1  and  C_2
REMARK    2  A    between atoms: C_2  and  C_3
REMARK    3  A    between atoms: C_3  and  C_4
REMARK    4  A    between atoms: C_4  and  C_5
REMARK    5  A    between atoms: C_5  and  C_6
REMARK    6  A    between atoms: C_6  and  C_7
REMARK    7  A    between atoms: C_6  and  N_8
REMARK    8  A    between atoms: N_8  and  C_9
REMARK    9  A    between atoms: C_9  and  C_10
REMARK   10  A    between atoms: C_13  and  C_14
REMARK                            x       y       z     vdW  Elec       q    Type
REMARK                         _______ _______ _______ _____ _____    ______ ____
ROOT
ATOM      1  C   UNL     1       7.038   6.738  17.258  0.00  0.00    +0.000 A 
ATOM      2  C   UNL     1       7.747   6.345  18.370  0.00  0.00    +0.000 A 
ATOM      3  O   UNL     1       8.406   7.424  18.865  0.00  0.00    +0.000 OA
ATOM      4  C   UNL     1       8.060   8.449  18.020  0.00  0.00    +0.000 A 
ATOM      5  N   UNL     1       7.261   8.083  17.037  0.00  0.00    +0.000 NA
ENDROOT
BRANCH   4   6
ATOM      6  C   UNL     1       8.606   9.766  18.333  0.00  0.00    +0.000 A 
ATOM      7  C   UNL     1       9.452   9.968  19.435  0.00  0.00    +0.000 A 
ATOM      8  C   UNL     1       9.953  11.239  19.729  0.00  0.00    +0.000 A 
ATOM      9  C   UNL     1       9.610  12.321  18.922  0.00  0.00    +0.000 A 
ATOM     10 BR   UNL     1      10.281  14.041  19.326  0.00  0.00    +0.000 Br
ATOM     11  C   UNL     1       8.777  12.143  17.819  0.00  0.00    +0.000 A 
ATOM     12  C   UNL     1       8.279  10.869  17.528  0.00  0.00    +0.000 A 
ENDBRANCH   4   6
BRANCH   1  13
ATOM     13  C   UNL     1       6.155   5.954  16.347  0.00  0.00    +0.000 C 
BRANCH  13  14
ATOM     14  N   UNL     1       4.743   6.212  16.648  0.00  0.00    +0.000 NA
ATOM     15  H   UNL     1       4.667   7.133  17.078  0.00  0.00    +0.000 HD
BRANCH  14  16
ATOM     16  C   UNL     1       4.154   5.226  17.571  0.00  0.00    +0.000 C 
ATOM     17  C   UNL     1       4.091   3.824  16.953  0.00  0.00    +0.000 C 
BRANCH  16  18
ATOM     18  C   UNL     1       2.743   5.738  17.950  0.00  0.00    +0.000 C 
BRANCH  18  19
ATOM     19  C   UNL     1       1.773   4.605  18.293  0.00  0.00    +0.000 C 
BRANCH  19  20
ATOM     20  C   UNL     1       1.631   4.391  19.799  0.00  0.00    +0.000 C 
BRANCH  20  22
ATOM     21  C   UNL     1       1.470   2.624  21.595  0.00  0.00    +0.000 C 
ATOM     22  C   UNL     1       1.738   2.902  20.127  0.00  0.00    +0.000 C 
ENDBRANCH  20  22
ENDBRANCH  19  20
ENDBRANCH  18  19
ENDBRANCH  16  18
ENDBRANCH  14  16
ENDBRANCH  13  14
ENDBRANCH   1  13
TORSDOF 8
ENDMDL
MODEL 5
REMARK VINA RESULT:      -6.3      4.981      5.865
REMARK  Name = 
REMARK  10 active torsions:
REMARK  status: ('A' for Active; 'I' for Inactive)
REMARK    1  A    between atoms: C_1  and  C_2
REMARK    2  A    between atoms: C_2  and  C_3
REMARK    3  A    between atoms: C_3  and  C_4
REMARK    4  A    between atoms: C_4  and  C_5
REMARK    5  A    between atoms: C_5  and  C_6
REMARK    6  A    between atoms: C_6  and  C_7
REMARK    7  A    between atoms: C_6  and  N_8
REMARK    8  A    between atoms: N_8  and  C_9
REMARK    9  A    between atoms: C_9  and  C_10
REMARK   10  A    between atoms: C_13  and  C_14
REMARK                            x       y       z     vdW  Elec       q    Type
REMARK                         _______ _______ _______ _____ _____    ______ ____
ROOT
ATOM      1  C   UNL     1       7.008   6.778  17.311  0.00  0.00    +0.000 A 
ATOM      2  C   UNL     1       7.781   6.376  18.376  0.00  0.00    +0.000 A 
ATOM      3  O   UNL     1       8.455   7.454  18.852  0.00  0.00    +0.000 OA
ATOM      4  C   UNL     1       8.053   8.489  18.045  0.00  0.00    +0.000 A 
ATOM      5  N   UNL     1       7.205   8.130  17.101  0.00  0.00    +0.000 NA
ENDROOT
BRANCH   4   6
ATOM      6  C   UNL     1       8.601   9.806  18.350  0.00  0.00    +0.000 A 
ATOM      7  C   UNL     1       8.329  10.921  17.543  0.00  0.00    +0.000 A 
ATOM      8  C   UNL     1       8.876  12.172  17.841  0.00  0.00    +0.000 A 
ATOM      9  C   UNL     1       9.702  12.317  18.953  0.00  0.00    +0.000 A 
ATOM     10 BR   UNL     1      10.448  14.008  19.351  0.00  0.00    +0.000 Br
ATOM     11  C   UNL     1       9.981  11.226  19.772  0.00  0.00    +0.000 A 
ATOM     12  C   UNL     1       9.431   9.976  19.470  0.00  0.00    +0.000 A 
ENDBRANCH   4   6
BRANCH   1  13
ATOM     13  C   UNL     1       6.086   5.999  16.436  0.00  0.00    +0.000 C 
BRANCH  13  14
ATOM     14  N   UNL     1       5.598   4.804  17.135  0.00  0.00    +0.000 NA
ATOM     15  H   UNL     1       5.546   4.037  16.467  0.00  0.00    +0.000 HD
BRANCH  14  16
ATOM     16  C   UNL     1       4.264   4.982  17.732  0.00  0.00    +0.000 C 
ATOM     17  C   UNL     1       4.326   5.096  19.261  0.00  0.00    +0.000 C 
BRANCH  16  18
ATOM     18  C   UNL     1       3.399   3.776  17.293  0.00  0.00    +0.000 C 
BRANCH  18  19
ATOM     19  C   UNL     1       3.351   2.665  18.345  0.00  0.00    +0.000 C 
BRANCH  19  20
ATOM     20  C   UNL     1       1.924   2.236  18.679  0.00  0.00    +0.000 C 
BRANCH  20  22
ATOM     21  C   UNL     1       0.926   3.923  20.271  0.00  0.00    +0.000 C 
ATOM     22  C   UNL     1       1.606   2.571  20.136  0.00  0.00    +0.000 C 
ENDBRANCH  20  22
ENDBRANCH  19  20
ENDBRANCH  18  19
ENDBRANCH  16  18
ENDBRANCH  14  16
ENDBRANCH  13  14
ENDBRANCH   1  13
TORSDOF 8
ENDMDL
MODEL 6
REMARK VINA RESULT:      -6.3      3.065      4.644
REMARK  Name = 
REMARK  10 active torsions:
REMARK  status: ('A' for Active; 'I' for Inactive)
REMARK    1  A    between atoms: C_1  and  C_2
REMARK    2  A    between atoms: C_2  and  C_3
REMARK    3  A    between atoms: C_3  and  C_4
REMARK    4  A    between atoms: C_4  and  C_5
REMARK    5  A    between atoms: C_5  and  C_6
REMARK    6  A    between atoms: C_6  and  C_7
REMARK    7  A    between atoms: C_6  and  N_8
REMARK    8  A    between atoms: N_8  and  C_9
REMARK    9  A    between atoms: C_9  and  C_10
REMARK   10  A    between atoms: C_13  and  C_14
REMARK                            x       y       z     vdW  Elec       q    Type
REMARK                         _______ _______ _______ _____ _____    ______ ____
ROOT
ATOM      1  C   UNL     1       3.888   4.592  18.760  0.00  0.00    +0.000 A 
ATOM      2  C   UNL     1       3.195   4.416  19.936  0.00  0.00    +0.000 A 
ATOM      3  O   UNL     1       2.497   5.551  20.199  0.00  0.00    +0.000 OA
ATOM      4  C   UNL     1       2.796   6.384  19.149  0.00  0.00    +0.000 A 
ATOM      5  N   UNL     1       3.636   5.862  18.277  0.00  0.00    +0.000 NA
ENDROOT
BRANCH   4   6
ATOM      6  C   UNL     1       2.147   7.691  19.148  0.00  0.00    +0.000 A 
ATOM      7  C   UNL     1       1.543   8.214  20.301  0.00  0.00    +0.000 A 
ATOM      8  C   UNL     1       0.913   9.461  20.277  0.00  0.00    +0.000 A 
ATOM      9  C   UNL     1       0.880  10.196  19.095  0.00  0.00    +0.000 A 
ATOM     10 BR   UNL     1       0.019  11.878  19.061  0.00  0.00    +0.000 Br
ATOM     11  C   UNL     1       1.478   9.699  17.939  0.00  0.00    +0.000 A 
ATOM     12  C   UNL     1       2.109   8.451  17.967  0.00  0.00    +0.000 A 
ENDBRANCH   4   6
BRANCH   1  13
ATOM     13  C   UNL     1       4.800   3.667  18.028  0.00  0.00    +0.000 C 
BRANCH  13  14
ATOM     14  N   UNL     1       4.642   3.827  16.578  0.00  0.00    +0.000 NA
ATOM     15  H   UNL     1       4.059   3.068  16.230  0.00  0.00    +0.000 HD
BRANCH  14  16
ATOM     16  C   UNL     1       5.919   3.796  15.845  0.00  0.00    +0.000 C 
ATOM     17  C   UNL     1       7.027   4.558  16.583  0.00  0.00    +0.000 C 
BRANCH  16  18
ATOM     18  C   UNL     1       5.659   4.398  14.443  0.00  0.00    +0.000 C 
BRANCH  18  19
ATOM     19  C   UNL     1       6.943   4.585  13.630  0.00  0.00    +0.000 C 
BRANCH  19  20
ATOM     20  C   UNL     1       6.865   3.928  12.253  0.00  0.00    +0.000 C 
BRANCH  20  22
ATOM     21  C   UNL     1       5.748   1.845  11.366  0.00  0.00    +0.000 C 
ATOM     22  C   UNL     1       5.557   3.148  12.121  0.00  0.00    +0.000 C 
ENDBRANCH  20  22
ENDBRANCH  19  20
ENDBRANCH  18  19
ENDBRANCH  16  18
ENDBRANCH  14  16
ENDBRANCH  13  14
ENDBRANCH   1  13
TORSDOF 8
ENDMDL
MODEL 7
REMARK VINA RESULT:      -6.3      4.885      6.845
REMARK  Name = 
REMARK  10 active torsions:
REMARK  status: ('A' for Active; 'I' for Inactive)
REMARK    1  A    between atoms: C_1  and  C_2
REMARK    2  A    between atoms: C_2  and  C_3
REMARK    3  A    between atoms: C_3  and  C_4
REMARK    4  A    between atoms: C_4  and  C_5
REMARK    5  A    between atoms: C_5  and  C_6
REMARK    6  A    between atoms: C_6  and  C_7
REMARK    7  A    between atoms: C_6  and  N_8
REMARK    8  A    between atoms: N_8  and  C_9
REMARK    9  A    between atoms: C_9  and  C_10
REMARK   10  A    between atoms: C_13  and  C_14
REMARK                            x       y       z     vdW  Elec       q    Type
REMARK                         _______ _______ _______ _____ _____    ______ ____
ROOT
ATOM      1  C   UNL     1       5.688   4.966  15.455  0.00  0.00    +0.000 A 
ATOM      2  C   UNL     1       5.299   6.195  15.936  0.00  0.00    +0.000 A 
ATOM      3  O   UNL     1       4.513   6.002  17.026  0.00  0.00    +0.000 OA
ATOM      4  C   UNL     1       4.460   4.638  17.169  0.00  0.00    +0.000 A 
ATOM      5  N   UNL     1       5.129   3.979  16.245  0.00  0.00    +0.000 NA
ENDROOT
BRANCH   4   6
ATOM      6  C   UNL     1       3.696   4.130  18.304  0.00  0.00    +0.000 A 
ATOM      7  C   UNL     1       2.388   4.566  18.565  0.00  0.00    +0.000 A 
ATOM      8  C   UNL     1       1.677   4.080  19.665  0.00  0.00    +0.000 A 
ATOM      9  C   UNL     1       2.271   3.152  20.517  0.00  0.00    +0.000 A 
ATOM     10 BR   UNL     1       1.312   2.502  22.010  0.00  0.00    +0.000 Br
ATOM     11  C   UNL     1       3.566   2.700  20.274  0.00  0.00    +0.000 A 
ATOM     12  C   UNL     1       4.274   3.188  19.171  0.00  0.00    +0.000 A 
ENDBRANCH   4   6
BRANCH   1  13
ATOM     13  C   UNL     1       6.545   4.611  14.287  0.00  0.00    +0.000 C 
BRANCH  13  14
ATOM     14  N   UNL     1       5.965   3.486  13.545  0.00  0.00    +0.000 NA
ATOM     15  H   UNL     1       6.047   2.646  14.115  0.00  0.00    +0.000 HD
BRANCH  14  16
ATOM     16  C   UNL     1       6.633   3.232  12.257  0.00  0.00    +0.000 C 
ATOM     17  C   UNL     1       7.222   4.512  11.649  0.00  0.00    +0.000 C 
BRANCH  16  18
ATOM     18  C   UNL     1       5.585   2.592  11.314  0.00  0.00    +0.000 C 
BRANCH  18  19
ATOM     19  C   UNL     1       4.153   3.029  11.635  0.00  0.00    +0.000 C 
BRANCH  19  20
ATOM     20  C   UNL     1       3.267   3.089  10.393  0.00  0.00    +0.000 C 
BRANCH  20  22
ATOM     21  C   UNL     1       2.753   4.619   8.450  0.00  0.00    +0.000 C 
ATOM     22  C   UNL     1       3.132   4.537   9.918  0.00  0.00    +0.000 C 
ENDBRANCH  20  22
ENDBRANCH  19  20
ENDBRANCH  18  19
ENDBRANCH  16  18
ENDBRANCH  14  16
ENDBRANCH  13  14
ENDBRANCH   1  13
TORSDOF 8
ENDMDL
MODEL 8
REMARK VINA RESULT:      -6.2      0.844      1.515
REMARK  Name = 
REMARK  10 active torsions:
REMARK  status: ('A' for Active; 'I' for Inactive)
REMARK    1  A    between atoms: C_1  and  C_2
REMARK    2  A    between atoms: C_2  and  C_3
REMARK    3  A    between atoms: C_3  and  C_4
REMARK    4  A    between atoms: C_4  and  C_5
REMARK    5  A    between atoms: C_5  and  C_6
REMARK    6  A    between atoms: C_6  and  C_7
REMARK    7  A    between atoms: C_6  and  N_8
REMARK    8  A    between atoms: N_8  and  C_9
REMARK    9  A    between atoms: C_9  and  C_10
REMARK   10  A    between atoms: C_13  and  C_14
REMARK                            x       y       z     vdW  Elec       q    Type
REMARK                         _______ _______ _______ _____ _____    ______ ____
ROOT
ATOM      1  C   UNL     1       4.716   5.384  17.563  0.00  0.00    +0.000 A 
ATOM      2  C   UNL     1       4.818   6.300  16.542  0.00  0.00    +0.000 A 
ATOM      3  O   UNL     1       3.966   7.326  16.796  0.00  0.00    +0.000 OA
ATOM      4  C   UNL     1       3.374   6.987  17.987  0.00  0.00    +0.000 A 
ATOM      5  N   UNL     1       3.776   5.829  18.472  0.00  0.00    +0.000 NA
ENDROOT
BRANCH   4   6
ATOM      6  C   UNL     1       2.415   7.942  18.534  0.00  0.00    +0.000 A 
ATOM      7  C   UNL     1       1.875   8.974  17.751  0.00  0.00    +0.000 A 
ATOM      8  C   UNL     1       0.971   9.889  18.296  0.00  0.00    +0.000 A 
ATOM      9  C   UNL     1       0.599   9.779  19.633  0.00  0.00    +0.000 A 
ATOM     10 BR   UNL     1      -0.618  11.022  20.372  0.00  0.00    +0.000 Br
ATOM     11  C   UNL     1       1.117   8.759  20.429  0.00  0.00    +0.000 A 
ATOM     12  C   UNL     1       2.021   7.845  19.879  0.00  0.00    +0.000 A 
ENDBRANCH   4   6
BRANCH   1  13
ATOM     13  C   UNL     1       5.423   4.087  17.773  0.00  0.00    +0.000 C 
BRANCH  13  14
ATOM     14  N   UNL     1       5.376   3.698  19.187  0.00  0.00    +0.000 NA
ATOM     15  H   UNL     1       6.255   3.242  19.426  0.00  0.00    +0.000 HD
BRANCH  14  16
ATOM     16  C   UNL     1       4.278   2.767  19.500  0.00  0.00    +0.000 C 
ATOM     17  C   UNL     1       4.703   1.692  20.508  0.00  0.00    +0.000 C 
BRANCH  16  18
ATOM     18  C   UNL     1       3.817   2.135  18.164  0.00  0.00    +0.000 C 
BRANCH  18  19
ATOM     19  C   UNL     1       2.303   1.918  18.102  0.00  0.00    +0.000 C 
BRANCH  19  20
ATOM     20  C   UNL     1       1.517   3.208  18.326  0.00  0.00    +0.000 C 
BRANCH  20  22
ATOM     21  C   UNL     1       1.121   4.315  20.561  0.00  0.00    +0.000 C 
ATOM     22  C   UNL     1       0.776   3.141  19.662  0.00  0.00    +0.000 C 
ENDBRANCH  20  22
ENDBRANCH  19  20
ENDBRANCH  18  19
ENDBRANCH  16  18
ENDBRANCH  14  16
ENDBRANCH  13  14
ENDBRANCH   1  13
TORSDOF 8
ENDMDL
MODEL 9
REMARK VINA RESULT:      -6.2      0.975      1.848
REMARK  Name = 
REMARK  10 active torsions:
REMARK  status: ('A' for Active; 'I' for Inactive)
REMARK    1  A    between atoms: C_1  and  C_2
REMARK    2  A    between atoms: C_2  and  C_3
REMARK    3  A    between atoms: C_3  and  C_4
REMARK    4  A    between atoms: C_4  and  C_5
REMARK    5  A    between atoms: C_5  and  C_6
REMARK    6  A    between atoms: C_6  and  C_7
REMARK    7  A    between atoms: C_6  and  N_8
REMARK    8  A    between atoms: N_8  and  C_9
REMARK    9  A    between atoms: C_9  and  C_10
REMARK   10  A    between atoms: C_13  and  C_14
REMARK                            x       y       z     vdW  Elec       q    Type
REMARK                         _______ _______ _______ _____ _____    ______ ____
ROOT
ATOM      1  C   UNL     1       4.343   5.289  17.123  0.00  0.00    +0.000 A 
ATOM      2  C   UNL     1       4.980   6.439  16.719  0.00  0.00    +0.000 A 
ATOM      3  O   UNL     1       4.296   7.506  17.207  0.00  0.00    +0.000 OA
ATOM      4  C   UNL     1       3.254   6.949  17.905  0.00  0.00    +0.000 A 
ATOM      5  N   UNL     1       3.230   5.632  17.867  0.00  0.00    +0.000 NA
ENDROOT
BRANCH   4   6
ATOM      6  C   UNL     1       2.352   7.876  18.581  0.00  0.00    +0.000 A 
ATOM      7  C   UNL     1       1.782   8.969  17.910  0.00  0.00    +0.000 A 
ATOM      8  C   UNL     1       0.933   9.856  18.577  0.00  0.00    +0.000 A 
ATOM      9  C   UNL     1       0.646   9.656  19.925  0.00  0.00    +0.000 A 
ATOM     10 BR   UNL     1      -0.496  10.861  20.828  0.00  0.00    +0.000 Br
ATOM     11  C   UNL     1       1.195   8.574  20.610  0.00  0.00    +0.000 A 
ATOM     12  C   UNL     1       2.044   7.689  19.938  0.00  0.00    +0.000 A 
ENDBRANCH   4   6
BRANCH   1  13
ATOM     13  C   UNL     1       4.673   3.858  16.863  0.00  0.00    +0.000 C 
BRANCH  13  14
ATOM     14  N   UNL     1       4.625   3.084  18.108  0.00  0.00    +0.000 NA
ATOM     15  H   UNL     1       5.550   2.695  18.284  0.00  0.00    +0.000 HD
BRANCH  14  16
ATOM     16  C   UNL     1       3.662   1.969  18.064  0.00  0.00    +0.000 C 
ATOM     17  C   UNL     1       2.365   2.355  17.342  0.00  0.00    +0.000 C 
BRANCH  16  18
ATOM     18  C   UNL     1       3.387   1.542  19.527  0.00  0.00    +0.000 C 
BRANCH  18  19
ATOM     19  C   UNL     1       3.701   2.649  20.537  0.00  0.00    +0.000 C 
BRANCH  19  20
ATOM     20  C   UNL     1       2.581   2.846  21.557  0.00  0.00    +0.000 C 
BRANCH  20  22
ATOM     21  C   UNL     1       0.878   4.192  20.267  0.00  0.00    +0.000 C 
ATOM     22  C   UNL     1       1.225   2.834  20.851  0.00  0.00    +0.000 C 
ENDBRANCH  20  22
ENDBRANCH  19  20
ENDBRANCH  18  19
ENDBRANCH  16  18
ENDBRANCH  14  16
ENDBRANCH  13  14
ENDBRANCH   1  13
TORSDOF 8
ENDMDL
