MODEL 1
REMARK VINA RESULT:      -7.3      0.000      0.000
REMARK  Name = 
REMARK  5 active torsions:
REMARK  status: ('A' for Active; 'I' for Inactive)
REMARK    1  A    between atoms: C_1  and  O_2
REMARK    2  A    between atoms: O_2  and  C_3
REMARK    3  A    between atoms: C_9  and  N_10
REMARK    4  A    between atoms: N_10  and  S_11
REMARK    5  A    between atoms: S_11  and  C_14
REMARK                            x       y       z     vdW  Elec       q    Type
REMARK                         _______ _______ _______ _____ _____    ______ ____
ROOT
ATOM      1  N   UNL     1       5.537   3.974  17.806  0.00  0.00    +0.000 N 
ATOM      2  H   UNL     1       6.263   3.546  18.375  0.00  0.00    +0.000 HD
ENDROOT
BRANCH   1   9
ATOM      3  C   UNL     1       7.198   5.131  16.318  0.00  0.00    +0.000 A 
ATOM      4  N   UNL     1       7.656   5.391  15.069  0.00  0.00    +0.000 NA
ATOM      5  C   UNL     1       6.968   4.798  14.071  0.00  0.00    +0.000 A 
ATOM      6 CL   UNL     1       7.498   5.179  12.490  0.00  0.00    +0.000 Cl
ATOM      7  C   UNL     1       5.870   3.978  14.295  0.00  0.00    +0.000 A 
ATOM      8  N   UNL     1       5.395   3.718  15.540  0.00  0.00    +0.000 NA
ATOM      9  C   UNL     1       6.085   4.303  16.541  0.00  0.00    +0.000 A 
BRANCH   3  11
ATOM     10  C   UNL     1       7.708   7.185  17.320  0.00  0.00    +0.000 C 
ATOM     11  O   UNL     1       7.787   5.761  17.396  0.00  0.00    +0.000 OA
ENDBRANCH   3  11
ENDBRANCH   1   9
BRANCH   1  12
ATOM     12  S   UNL     1       4.939   5.300  18.668  0.00  0.00    +0.000 S 
ATOM     13  O   UNL     1       5.921   5.585  19.692  0.00  0.00    +0.000 OA
ATOM     14  O   UNL     1       4.504   6.326  17.745  0.00  0.00    +0.000 OA
BRANCH  12  15
ATOM     15  C   UNL     1       3.518   4.766  19.583  0.00  0.00    +0.000 A 
ATOM     16  S   UNL     1       2.209   5.862  19.696  0.00  0.00    +0.000 S 
ATOM     17  C   UNL     1       1.291   4.770  20.633  0.00  0.00    +0.000 A 
ATOM     18  C   UNL     1       1.972   3.598  20.873  0.00  0.00    +0.000 A 
ATOM     19 CL   UNL     1       1.322   2.303  21.788  0.00  0.00    +0.000 Cl
ATOM     20  C   UNL     1       3.268   3.598  20.273  0.00  0.00    +0.000 A 
ATOM     21 CL   UNL     1       4.370   2.288  20.401  0.00  0.00    +0.000 Cl
ENDBRANCH  12  15
ENDBRANCH   1  12
TORSDOF 4
ENDMDL
MODEL 2
REMARK VINA RESULT:      -7.2      1.225      1.225
REMARK  Name = 
REMARK  5 active torsions:
REMARK  status: ('A' for Active; 'I' for Inactive)
REMARK    1  A    between atoms: C_1  and  O_2
REMARK    2  A    between atoms: O_2  and  C_3
REMARK    3  A    between atoms: C_9  and  N_10
REMARK    4  A    between atoms: N_10  and  S_11
REMARK    5  A    between atoms: S_11  and  C_14
REMARK                            x       y       z     vdW  Elec       q    Type
REMARK                         _______ _______ _______ _____ _____    ______ ____
ROOT
ATOM      1  N   UNL     1       5.608   4.015  17.776  0.00  0.00    +0.000 N 
ATOM      2  H   UNL     1       6.358   3.818  18.433  0.00  0.00    +0.000 HD
ENDROOT
BRANCH   1   9
ATOM      3  C   UNL     1       7.240   5.247  16.318  0.00  0.00    +0.000 A 
ATOM      4  N   UNL     1       7.724   5.511  15.079  0.00  0.00    +0.000 NA
ATOM      5  C   UNL     1       7.112   4.851  14.072  0.00  0.00    +0.000 A 
ATOM      6 CL   UNL     1       7.672   5.231  12.502  0.00  0.00    +0.000 Cl
ATOM      7  C   UNL     1       6.064   3.964  14.279  0.00  0.00    +0.000 A 
ATOM      8  N   UNL     1       5.564   3.700  15.513  0.00  0.00    +0.000 NA
ATOM      9  C   UNL     1       6.177   4.352  16.523  0.00  0.00    +0.000 A 
BRANCH   3  11
ATOM     10  C   UNL     1       7.558   7.351  17.296  0.00  0.00    +0.000 C 
ATOM     11  O   UNL     1       7.747   5.939  17.399  0.00  0.00    +0.000 OA
ENDBRANCH   3  11
ENDBRANCH   1   9
BRANCH   1  12
ATOM     12  S   UNL     1       4.651   5.235  18.452  0.00  0.00    +0.000 S 
ATOM     13  O   UNL     1       5.313   5.624  19.680  0.00  0.00    +0.000 OA
ATOM     14  O   UNL     1       4.320   6.213  17.440  0.00  0.00    +0.000 OA
BRANCH  12  15
ATOM     15  C   UNL     1       3.135   4.502  19.005  0.00  0.00    +0.000 A 
ATOM     16  S   UNL     1       2.339   5.258  20.318  0.00  0.00    +0.000 S 
ATOM     17  C   UNL     1       1.077   4.109  20.298  0.00  0.00    +0.000 A 
ATOM     18  C   UNL     1       1.263   3.155  19.323  0.00  0.00    +0.000 A 
ATOM     19 CL   UNL     1       0.171   1.864  19.051  0.00  0.00    +0.000 Cl
ATOM     20  C   UNL     1       2.462   3.376  18.578  0.00  0.00    +0.000 A 
ATOM     21 CL   UNL     1       2.985   2.354  17.302  0.00  0.00    +0.000 Cl
ENDBRANCH  12  15
ENDBRANCH   1  12
TORSDOF 4
ENDMDL
MODEL 3
REMARK VINA RESULT:      -7.2      1.362      1.573
REMARK  Name = 
REMARK  5 active torsions:
REMARK  status: ('A' for Active; 'I' for Inactive)
REMARK    1  A    between atoms: C_1  and  O_2
REMARK    2  A    between atoms: O_2  and  C_3
REMARK    3  A    between atoms: C_9  and  N_10
REMARK    4  A    between atoms: N_10  and  S_11
REMARK    5  A    between atoms: S_11  and  C_14
REMARK                            x       y       z     vdW  Elec       q    Type
REMARK                         _______ _______ _______ _____ _____    ______ ____
ROOT
ATOM      1  N   UNL     1       5.941   3.875  17.672  0.00  0.00    +0.000 N 
ATOM      2  H   UNL     1       6.698   3.991  18.341  0.00  0.00    +0.000 HD
ENDROOT
BRANCH   1   9
ATOM      3  C   UNL     1       7.323   5.290  16.124  0.00  0.00    +0.000 A 
ATOM      4  N   UNL     1       7.712   5.591  14.861  0.00  0.00    +0.000 NA
ATOM      5  C   UNL     1       7.155   4.834  13.892  0.00  0.00    +0.000 A 
ATOM      6 CL   UNL     1       7.588   5.256  12.293  0.00  0.00    +0.000 Cl
ATOM      7  C   UNL     1       6.249   3.816  14.159  0.00  0.00    +0.000 A 
ATOM      8  N   UNL     1       5.843   3.511  15.418  0.00  0.00    +0.000 NA
ATOM      9  C   UNL     1       6.404   4.261  16.390  0.00  0.00    +0.000 A 
BRANCH   3  11
ATOM     10  C   UNL     1       7.215   7.380  17.174  0.00  0.00    +0.000 C 
ATOM     11  O   UNL     1       7.776   6.066  17.171  0.00  0.00    +0.000 OA
ENDBRANCH   3  11
ENDBRANCH   1   9
BRANCH   1  12
ATOM     12  S   UNL     1       4.627   4.777  18.235  0.00  0.00    +0.000 S 
ATOM     13  O   UNL     1       5.140   5.600  19.310  0.00  0.00    +0.000 OA
ATOM     14  O   UNL     1       3.923   5.365  17.117  0.00  0.00    +0.000 OA
BRANCH  12  15
ATOM     15  C   UNL     1       3.508   3.671  19.050  0.00  0.00    +0.000 A 
ATOM     16  S   UNL     1       3.354   2.097  18.395  0.00  0.00    +0.000 S 
ATOM     17  C   UNL     1       2.215   1.643  19.583  0.00  0.00    +0.000 A 
ATOM     18  C   UNL     1       1.941   2.674  20.454  0.00  0.00    +0.000 A 
ATOM     19 CL   UNL     1       0.835   2.534  21.755  0.00  0.00    +0.000 Cl
ATOM     20  C   UNL     1       2.682   3.853  20.140  0.00  0.00    +0.000 A 
ATOM     21 CL   UNL     1       2.553   5.316  21.029  0.00  0.00    +0.000 Cl
ENDBRANCH  12  15
ENDBRANCH   1  12
TORSDOF 4
ENDMDL
MODEL 4
REMARK VINA RESULT:      -7.0      2.244      2.438
REMARK  Name = 
REMARK  5 active torsions:
REMARK  status: ('A' for Active; 'I' for Inactive)
REMARK    1  A    between atoms: C_1  and  O_2
REMARK    2  A    between atoms: O_2  and  C_3
REMARK    3  A    between atoms: C_9  and  N_10
REMARK    4  A    between atoms: N_10  and  S_11
REMARK    5  A    between atoms: S_11  and  C_14
REMARK                            x       y       z     vdW  Elec       q    Type
REMARK                         _______ _______ _______ _____ _____    ______ ____
ROOT
ATOM      1  N   UNL     1       5.511   3.728  17.896  0.00  0.00    +0.000 N 
ATOM      2  H   UNL     1       5.577   4.432  18.627  0.00  0.00    +0.000 HD
ENDROOT
BRANCH   1   9
ATOM      3  C   UNL     1       6.884   5.411  16.636  0.00  0.00    +0.000 A 
ATOM      4  N   UNL     1       7.443   5.817  15.469  0.00  0.00    +0.000 NA
ATOM      5  C   UNL     1       7.221   5.004  14.414  0.00  0.00    +0.000 A 
ATOM      6 CL   UNL     1       7.865   5.546  12.926  0.00  0.00    +0.000 Cl
ATOM      7  C   UNL     1       6.477   3.836  14.506  0.00  0.00    +0.000 A 
ATOM      8  N   UNL     1       5.904   3.424  15.666  0.00  0.00    +0.000 NA
ATOM      9  C   UNL     1       6.130   4.230  16.724  0.00  0.00    +0.000 A 
BRANCH   3  11
ATOM     10  C   UNL     1       7.598   7.482  17.466  0.00  0.00    +0.000 C 
ATOM     11  O   UNL     1       6.987   6.222  17.749  0.00  0.00    +0.000 OA
ENDBRANCH   3  11
ENDBRANCH   1   9
BRANCH   1  12
ATOM     12  S   UNL     1       3.874   3.349  17.708  0.00  0.00    +0.000 S 
ATOM     13  O   UNL     1       3.454   3.998  16.485  0.00  0.00    +0.000 OA
ATOM     14  O   UNL     1       3.676   1.930  17.905  0.00  0.00    +0.000 OA
BRANCH  12  15
ATOM     15  C   UNL     1       2.963   4.197  18.970  0.00  0.00    +0.000 A 
ATOM     16  S   UNL     1       2.159   3.231  20.131  0.00  0.00    +0.000 S 
ATOM     17  C   UNL     1       1.552   4.602  20.946  0.00  0.00    +0.000 A 
ATOM     18  C   UNL     1       1.937   5.776  20.338  0.00  0.00    +0.000 A 
ATOM     19 CL   UNL     1       1.486   7.325  20.914  0.00  0.00    +0.000 Cl
ATOM     20  C   UNL     1       2.747   5.542  19.186  0.00  0.00    +0.000 A 
ATOM     21 CL   UNL     1       3.375   6.799  18.200  0.00  0.00    +0.000 Cl
ENDBRANCH  12  15
ENDBRANCH   1  12
TORSDOF 4
ENDMDL
MODEL 5
REMARK VINA RESULT:      -6.9      1.370      1.548
REMARK  Name = 
REMARK  5 active torsions:
REMARK  status: ('A' for Active; 'I' for Inactive)
REMARK    1  A    between atoms: C_1  and  O_2
REMARK    2  A    between atoms: O_2  and  C_3
REMARK    3  A    between atoms: C_9  and  N_10
REMARK    4  A    between atoms: N_10  and  S_11
REMARK    5  A    between atoms: S_11  and  C_14
REMARK                            x       y       z     vdW  Elec       q    Type
REMARK                         _______ _______ _______ _____ _____    ______ ____
ROOT
ATOM      1  N   UNL     1       5.030   3.729  17.341  0.00  0.00    +0.000 N 
ATOM      2  H   UNL     1       5.458   3.971  18.231  0.00  0.00    +0.000 HD
ENDROOT
BRANCH   1   9
ATOM      3  C   UNL     1       6.754   5.292  16.397  0.00  0.00    +0.000 A 
ATOM      4  N   UNL     1       7.499   5.701  15.341  0.00  0.00    +0.000 NA
ATOM      5  C   UNL     1       7.302   5.010  14.198  0.00  0.00    +0.000 A 
ATOM      6 CL   UNL     1       8.186   5.566  12.845  0.00  0.00    +0.000 Cl
ATOM      7  C   UNL     1       6.406   3.954  14.101  0.00  0.00    +0.000 A 
ATOM      8  N   UNL     1       5.647   3.541  15.149  0.00  0.00    +0.000 NA
ATOM      9  C   UNL     1       5.847   4.225  16.295  0.00  0.00    +0.000 A 
BRANCH   3  11
ATOM     10  C   UNL     1       7.761   5.433  18.507  0.00  0.00    +0.000 C 
ATOM     11  O   UNL     1       6.827   5.994  17.584  0.00  0.00    +0.000 OA
ENDBRANCH   3  11
ENDBRANCH   1   9
BRANCH   1  12
ATOM     12  S   UNL     1       3.459   4.353  17.350  0.00  0.00    +0.000 S 
ATOM     13  O   UNL     1       3.597   5.781  17.162  0.00  0.00    +0.000 OA
ATOM     14  O   UNL     1       2.616   3.564  16.478  0.00  0.00    +0.000 OA
BRANCH  12  15
ATOM     15  C   UNL     1       2.816   4.204  18.995  0.00  0.00    +0.000 A 
ATOM     16  S   UNL     1       2.722   5.637  19.926  0.00  0.00    +0.000 S 
ATOM     17  C   UNL     1       2.074   4.800  21.265  0.00  0.00    +0.000 A 
ATOM     18  C   UNL     1       1.946   3.452  21.019  0.00  0.00    +0.000 A 
ATOM     19 CL   UNL     1       1.329   2.341  22.168  0.00  0.00    +0.000 Cl
ATOM     20  C   UNL     1       2.385   3.103  19.706  0.00  0.00    +0.000 A 
ATOM     21 CL   UNL     1       2.368   1.497  19.098  0.00  0.00    +0.000 Cl
ENDBRANCH  12  15
ENDBRANCH   1  12
TORSDOF 4
ENDMDL
MODEL 6
REMARK VINA RESULT:      -6.9      2.798      3.475
REMARK  Name = 
REMARK  5 active torsions:
REMARK  status: ('A' for Active; 'I' for Inactive)
REMARK    1  A    between atoms: C_1  and  O_2
REMARK    2  A    between atoms: O_2  and  C_3
REMARK    3  A    between atoms: C_9  and  N_10
REMARK    4  A    between atoms: N_10  and  S_11
REMARK    5  A    between atoms: S_11  and  C_14
REMARK                            x       y       z     vdW  Elec       q    Type
REMARK                         _______ _______ _______ _____ _____    ______ ____
ROOT
ATOM      1  N   UNL     1       5.556   3.169  18.167  0.00  0.00    +0.000 N 
ATOM      2  H   UNL     1       5.650   2.931  19.150  0.00  0.00    +0.000 HD
ENDROOT
BRANCH   1   9
ATOM      3  C   UNL     1       6.711   4.855  16.707  0.00  0.00    +0.000 A 
ATOM      4  N   UNL     1       7.308   6.065  16.576  0.00  0.00    +0.000 NA
ATOM      5  C   UNL     1       7.364   6.802  17.706  0.00  0.00    +0.000 A 
ATOM      6 CL   UNL     1       8.177   8.299  17.563  0.00  0.00    +0.000 Cl
ATOM      7  C   UNL     1       6.850   6.363  18.919  0.00  0.00    +0.000 A 
ATOM      8  N   UNL     1       6.259   5.149  19.065  0.00  0.00    +0.000 NA
ATOM      9  C   UNL     1       6.195   4.413  17.936  0.00  0.00    +0.000 A 
BRANCH   3  11
ATOM     10  C   UNL     1       6.484   4.674  14.383  0.00  0.00    +0.000 C 
ATOM     11  O   UNL     1       6.684   3.997  15.625  0.00  0.00    +0.000 OA
ENDBRANCH   3  11
ENDBRANCH   1   9
BRANCH   1  12
ATOM     12  S   UNL     1       3.905   3.159  17.801  0.00  0.00    +0.000 S 
ATOM     13  O   UNL     1       3.754   3.984  16.621  0.00  0.00    +0.000 OA
ATOM     14  O   UNL     1       3.406   1.802  17.832  0.00  0.00    +0.000 OA
BRANCH  12  15
ATOM     15  C   UNL     1       3.056   4.070  19.062  0.00  0.00    +0.000 A 
ATOM     16  S   UNL     1       2.460   3.180  20.397  0.00  0.00    +0.000 S 
ATOM     17  C   UNL     1       1.822   4.584  21.130  0.00  0.00    +0.000 A 
ATOM     18  C   UNL     1       2.040   5.709  20.367  0.00  0.00    +0.000 A 
ATOM     19 CL   UNL     1       1.517   7.274  20.828  0.00  0.00    +0.000 Cl
ATOM     20  C   UNL     1       2.748   5.411  19.163  0.00  0.00    +0.000 A 
ATOM     21 CL   UNL     1       3.162   6.596  17.991  0.00  0.00    +0.000 Cl
ENDBRANCH  12  15
ENDBRANCH   1  12
TORSDOF 4
ENDMDL
MODEL 7
REMARK VINA RESULT:      -6.7      2.132      2.455
REMARK  Name = 
REMARK  5 active torsions:
REMARK  status: ('A' for Active; 'I' for Inactive)
REMARK    1  A    between atoms: C_1  and  O_2
REMARK    2  A    between atoms: O_2  and  C_3
REMARK    3  A    between atoms: C_9  and  N_10
REMARK    4  A    between atoms: N_10  and  S_11
REMARK    5  A    between atoms: S_11  and  C_14
REMARK                            x       y       z     vdW  Elec       q    Type
REMARK                         _______ _______ _______ _____ _____    ______ ____
ROOT
ATOM      1  N   UNL     1       5.700   3.955  18.297  0.00  0.00    +0.000 N 
ATOM      2  H   UNL     1       5.928   4.669  18.983  0.00  0.00    +0.000 HD
ENDROOT
BRANCH   1   9
ATOM      3  C   UNL     1       7.067   5.448  16.811  0.00  0.00    +0.000 A 
ATOM      4  N   UNL     1       7.532   5.747  15.573  0.00  0.00    +0.000 NA
ATOM      5  C   UNL     1       7.133   4.908  14.593  0.00  0.00    +0.000 A 
ATOM      6 CL   UNL     1       7.659   5.320  13.019  0.00  0.00    +0.000 Cl
ATOM      7  C   UNL     1       6.309   3.816  14.825  0.00  0.00    +0.000 A 
ATOM      8  N   UNL     1       5.829   3.512  16.058  0.00  0.00    +0.000 NA
ATOM      9  C   UNL     1       6.231   4.344  17.042  0.00  0.00    +0.000 A 
BRANCH   3  11
ATOM     10  C   UNL     1       7.518   7.657  17.449  0.00  0.00    +0.000 C 
ATOM     11  O   UNL     1       7.354   6.299  17.861  0.00  0.00    +0.000 OA
ENDBRANCH   3  11
ENDBRANCH   1   9
BRANCH   1  12
ATOM     12  S   UNL     1       4.020   3.762  18.309  0.00  0.00    +0.000 S 
ATOM     13  O   UNL     1       3.628   3.602  16.924  0.00  0.00    +0.000 OA
ATOM     14  O   UNL     1       3.648   2.784  19.307  0.00  0.00    +0.000 OA
BRANCH  12  15
ATOM     15  C   UNL     1       3.291   5.308  18.777  0.00  0.00    +0.000 A 
ATOM     16  S   UNL     1       3.502   6.625  17.704  0.00  0.00    +0.000 S 
ATOM     17  C   UNL     1       2.617   7.676  18.717  0.00  0.00    +0.000 A 
ATOM     18  C   UNL     1       2.182   7.045  19.861  0.00  0.00    +0.000 A 
ATOM     19 CL   UNL     1       1.270   7.831  21.079  0.00  0.00    +0.000 Cl
ATOM     20  C   UNL     1       2.581   5.674  19.902  0.00  0.00    +0.000 A 
ATOM     21 CL   UNL     1       2.207   4.618  21.203  0.00  0.00    +0.000 Cl
ENDBRANCH  12  15
ENDBRANCH   1  12
TORSDOF 4
ENDMDL
MODEL 8
REMARK VINA RESULT:      -6.7      2.446      3.321
REMARK  Name = 
REMARK  5 active torsions:
REMARK  status: ('A' for Active; 'I' for Inactive)
REMARK    1  A    between atoms: C_1  and  O_2
REMARK    2  A    between atoms: O_2  and  C_3
REMARK    3  A    between atoms: C_9  and  N_10
REMARK    4  A    between atoms: N_10  and  S_11
REMARK    5  A    between atoms: S_11  and  C_14
REMARK                            x       y       z     vdW  Elec       q    Type
REMARK                         _______ _______ _______ _____ _____    ______ ____
ROOT
ATOM      1  N   UNL     1       5.099   3.524  17.219  0.00  0.00    +0.000 N 
ATOM      2  H   UNL     1       5.448   2.806  17.848  0.00  0.00    +0.000 HD
ENDROOT
BRANCH   1   9
ATOM      3  C   UNL     1       6.198   5.615  16.368  0.00  0.00    +0.000 A 
ATOM      4  N   UNL     1       6.961   6.710  16.610  0.00  0.00    +0.000 NA
ATOM      5  C   UNL     1       7.389   6.839  17.884  0.00  0.00    +0.000 A 
ATOM      6 CL   UNL     1       8.409   8.179  18.179  0.00  0.00    +0.000 Cl
ATOM      7  C   UNL     1       7.077   5.925  18.881  0.00  0.00    +0.000 A 
ATOM      8  N   UNL     1       6.323   4.820  18.649  0.00  0.00    +0.000 NA
ATOM      9  C   UNL     1       5.886   4.691  17.379  0.00  0.00    +0.000 A 
BRANCH   3  11
ATOM     10  C   UNL     1       6.821   4.810  14.259  0.00  0.00    +0.000 C 
ATOM     11  O   UNL     1       5.785   5.355  15.076  0.00  0.00    +0.000 OA
ENDBRANCH   3  11
ENDBRANCH   1   9
BRANCH   1  12
ATOM     12  S   UNL     1       3.458   3.742  17.565  0.00  0.00    +0.000 S 
ATOM     13  O   UNL     1       3.267   5.171  17.699  0.00  0.00    +0.000 OA
ATOM     14  O   UNL     1       2.657   2.966  16.644  0.00  0.00    +0.000 OA
BRANCH  12  15
ATOM     15  C   UNL     1       3.151   3.121  19.196  0.00  0.00    +0.000 A 
ATOM     16  S   UNL     1       4.427   2.273  19.958  0.00  0.00    +0.000 S 
ATOM     17  C   UNL     1       3.493   2.000  21.361  0.00  0.00    +0.000 A 
ATOM     18  C   UNL     1       2.226   2.527  21.248  0.00  0.00    +0.000 A 
ATOM     19 CL   UNL     1       1.048   2.415  22.487  0.00  0.00    +0.000 Cl
ATOM     20  C   UNL     1       2.023   3.170  19.989  0.00  0.00    +0.000 A 
ATOM     21 CL   UNL     1       0.544   3.914  19.534  0.00  0.00    +0.000 Cl
ENDBRANCH  12  15
ENDBRANCH   1  12
TORSDOF 4
ENDMDL
MODEL 9
REMARK VINA RESULT:      -6.7      0.992      1.152
REMARK  Name = 
REMARK  5 active torsions:
REMARK  status: ('A' for Active; 'I' for Inactive)
REMARK    1  A    between atoms: C_1  and  O_2
REMARK    2  A    between atoms: O_2  and  C_3
REMARK    3  A    between atoms: C_9  and  N_10
REMARK    4  A    between atoms: N_10  and  S_11
REMARK    5  A    between atoms: S_11  and  C_14
REMARK                            x       y       z     vdW  Elec       q    Type
REMARK                         _______ _______ _______ _____ _____    ______ ____
ROOT
ATOM      1  N   UNL     1       4.964   5.792  17.648  0.00  0.00    +0.000 N 
ATOM      2  H   UNL     1       3.968   5.780  17.442  0.00  0.00    +0.000 HD
ENDROOT
BRANCH   1   9
ATOM      3  C   UNL     1       7.044   5.769  16.241  0.00  0.00    +0.000 A 
ATOM      4  N   UNL     1       7.649   5.476  15.063  0.00  0.00    +0.000 NA
ATOM      5  C   UNL     1       6.843   4.934  14.125  0.00  0.00    +0.000 A 
ATOM      6 CL   UNL     1       7.584   4.628  12.614  0.00  0.00    +0.000 Cl
ATOM      7  C   UNL     1       5.494   4.689  14.340  0.00  0.00    +0.000 A 
ATOM      8  N   UNL     1       4.875   4.986  15.511  0.00  0.00    +0.000 NA
ATOM      9  C   UNL     1       5.678   5.521  16.454  0.00  0.00    +0.000 A 
BRANCH   3  11
ATOM     10  C   UNL     1       7.528   7.810  17.283  0.00  0.00    +0.000 C 
ATOM     11  O   UNL     1       7.769   6.403  17.230  0.00  0.00    +0.000 OA
ENDBRANCH   3  11
ENDBRANCH   1   9
BRANCH   1  12
ATOM     12  S   UNL     1       5.237   4.675  18.887  0.00  0.00    +0.000 S 
ATOM     13  O   UNL     1       5.482   3.407  18.233  0.00  0.00    +0.000 OA
ATOM     14  O   UNL     1       6.183   5.220  19.836  0.00  0.00    +0.000 OA
BRANCH  12  15
ATOM     15  C   UNL     1       3.707   4.418  19.744  0.00  0.00    +0.000 A 
ATOM     16  S   UNL     1       2.540   5.666  19.644  0.00  0.00    +0.000 S 
ATOM     17  C   UNL     1       1.438   4.801  20.620  0.00  0.00    +0.000 A 
ATOM     18  C   UNL     1       1.952   3.592  21.031  0.00  0.00    +0.000 A 
ATOM     19 CL   UNL     1       1.090   2.495  22.025  0.00  0.00    +0.000 Cl
ATOM     20  C   UNL     1       3.272   3.373  20.533  0.00  0.00    +0.000 A 
ATOM     21 CL   UNL     1       4.193   1.966  20.879  0.00  0.00    +0.000 Cl
ENDBRANCH  12  15
ENDBRANCH   1  12
TORSDOF 4
ENDMDL
