MODEL 1
REMARK VINA RESULT:      -6.8      0.000      0.000
REMARK  Name = 
REMARK  13 active torsions:
REMARK  status: ('A' for Active; 'I' for Inactive)
REMARK    1  A    between atoms: C_1  and  C_2
REMARK    2  A    between atoms: C_5  and  C_6
REMARK    3  A    between atoms: C_6  and  C_7
REMARK    4  A    between atoms: C_6  and  C_8
REMARK    5  A    between atoms: C_10  and  O_11
REMARK    6  A    between atoms: O_11  and  C_12
REMARK    7  A    between atoms: C_12  and  C_14
REMARK    8  A    between atoms: C_14  and  C_15
REMARK    9  A    between atoms: C_15  and  C_16
REMARK   10  A    between atoms: C_16  and  C_17
REMARK   11  A    between atoms: N_19  and  C_20
REMARK   12  A    between atoms: C_20  and  C_21
REMARK   13  A    between atoms: C_21  and  N_22
REMARK                            x       y       z     vdW  Elec       q    Type
REMARK                         _______ _______ _______ _____ _____    ______ ____
ROOT
ATOM      1  C   UNL     1       7.579   7.559  17.660  0.00  0.00    +0.000 C 
ATOM      2  O   UNL     1       7.952   6.680  18.418  0.00  0.00    +0.000 OA
ENDROOT
BRANCH   1   3
ATOM      3  O   UNL     1       6.624   7.436  16.648  0.00  0.00    +0.000 OA
BRANCH   3  10
ATOM      4  C   UNL     1       7.300   5.112  14.886  0.00  0.00    +0.000 C 
ATOM      5  C   UNL     1       6.131   5.171  15.826  0.00  0.00    +0.000 A 
ATOM      6  C   UNL     1       5.372   4.009  15.989  0.00  0.00    +0.000 A 
ATOM      7  C   UNL     1       4.297   3.965  16.875  0.00  0.00    +0.000 A 
ATOM      8  C   UNL     1       3.920   5.092  17.620  0.00  0.00    +0.000 A 
ATOM      9  C   UNL     1       4.672   6.271  17.459  0.00  0.00    +0.000 A 
ATOM     10  C   UNL     1       5.763   6.308  16.564  0.00  0.00    +0.000 A 
BRANCH   8  11
ATOM     11  C   UNL     1       2.759   4.923  18.591  0.00  0.00    +0.000 C 
ATOM     12  C   UNL     1       2.440   6.232  19.319  0.00  0.00    +0.000 C 
ATOM     13  C   UNL     1       1.493   4.323  17.983  0.00  0.00    +0.000 C 
ENDBRANCH   8  11
ENDBRANCH   3  10
ENDBRANCH   1   3
BRANCH   1  14
ATOM     14  C   UNL     1       8.056   9.003  17.709  0.00  0.00    +0.000 C 
BRANCH  14  15
ATOM     15  C   UNL     1       9.012   9.297  18.864  0.00  0.00    +0.000 C 
BRANCH  15  16
ATOM     16  C   UNL     1       9.028  10.766  19.287  0.00  0.00    +0.000 C 
BRANCH  16  17
ATOM     17  C   UNL     1      10.341  11.439  18.945  0.00  0.00    +0.000 C 
ATOM     18  O   UNL     1      11.319  11.407  19.690  0.00  0.00    +0.000 OA
ATOM     19  N   UNL     1      10.337  12.083  17.735  0.00  0.00    +0.000 N 
ATOM     20  H   UNL     1       9.579  11.943  17.081  0.00  0.00    +0.000 HD
BRANCH  19  21
ATOM     21  C   UNL     1      11.493  12.837  17.277  0.00  0.00    +0.000 C 
BRANCH  21  22
ATOM     22  C   UNL     1      11.227  14.346  17.230  0.00  0.00    +0.000 C 
BRANCH  22  23
ATOM     23  N   UNL     1       9.788  14.638  17.266  0.00  0.00    +0.000 NA
ATOM     24  H   UNL     1       9.282  13.754  17.288  0.00  0.00    +0.000 HD
ATOM     25  H   UNL     1       9.524  15.087  16.388  0.00  0.00    +0.000 HD
ENDBRANCH  22  23
ENDBRANCH  21  22
ENDBRANCH  19  21
ENDBRANCH  16  17
ENDBRANCH  15  16
ENDBRANCH  14  15
ENDBRANCH   1  14
TORSDOF 10
ENDMDL
MODEL 2
REMARK VINA RESULT:      -6.7      5.470      7.516
REMARK  Name = 
REMARK  13 active torsions:
REMARK  status: ('A' for Active; 'I' for Inactive)
REMARK    1  A    between atoms: C_1  and  C_2
REMARK    2  A    between atoms: C_5  and  C_6
REMARK    3  A    between atoms: C_6  and  C_7
REMARK    4  A    between atoms: C_6  and  C_8
REMARK    5  A    between atoms: C_10  and  O_11
REMARK    6  A    between atoms: O_11  and  C_12
REMARK    7  A    between atoms: C_12  and  C_14
REMARK    8  A    between atoms: C_14  and  C_15
REMARK    9  A    between atoms: C_15  and  C_16
REMARK   10  A    between atoms: C_16  and  C_17
REMARK   11  A    between atoms: N_19  and  C_20
REMARK   12  A    between atoms: C_20  and  C_21
REMARK   13  A    between atoms: C_21  and  N_22
REMARK                            x       y       z     vdW  Elec       q    Type
REMARK                         _______ _______ _______ _____ _____    ______ ____
ROOT
ATOM      1  C   UNL     1       1.930   5.020  19.872  0.00  0.00    +0.000 C 
ATOM      2  O   UNL     1       1.515   4.484  20.886  0.00  0.00    +0.000 OA
ENDROOT
BRANCH   1   3
ATOM      3  O   UNL     1       2.778   6.127  19.805  0.00  0.00    +0.000 OA
BRANCH   3  10
ATOM      4  C   UNL     1       3.218   7.626  17.251  0.00  0.00    +0.000 C 
ATOM      5  C   UNL     1       2.384   8.109  18.402  0.00  0.00    +0.000 A 
ATOM      6  C   UNL     1       1.653   9.287  18.223  0.00  0.00    +0.000 A 
ATOM      7  C   UNL     1       0.819   9.780  19.226  0.00  0.00    +0.000 A 
ATOM      8  C   UNL     1       0.701   9.128  20.461  0.00  0.00    +0.000 A 
ATOM      9  C   UNL     1       1.438   7.945  20.657  0.00  0.00    +0.000 A 
ATOM     10  C   UNL     1       2.277   7.447  19.636  0.00  0.00    +0.000 A 
BRANCH   8  11
ATOM     11  C   UNL     1      -0.270   9.728  21.470  0.00  0.00    +0.000 C 
ATOM     12  C   UNL     1       0.049   9.274  22.897  0.00  0.00    +0.000 C 
ATOM     13  C   UNL     1      -0.407  11.247  21.407  0.00  0.00    +0.000 C 
ENDBRANCH   8  11
ENDBRANCH   3  10
ENDBRANCH   1   3
BRANCH   1  14
ATOM     14  C   UNL     1       1.640   4.540  18.458  0.00  0.00    +0.000 C 
BRANCH  14  15
ATOM     15  C   UNL     1       2.889   4.141  17.675  0.00  0.00    +0.000 C 
BRANCH  15  16
ATOM     16  C   UNL     1       3.918   3.377  18.510  0.00  0.00    +0.000 C 
BRANCH  16  17
ATOM     17  C   UNL     1       5.317   3.924  18.322  0.00  0.00    +0.000 C 
ATOM     18  O   UNL     1       5.989   4.369  19.252  0.00  0.00    +0.000 OA
ATOM     19  N   UNL     1       5.763   3.879  17.027  0.00  0.00    +0.000 N 
ATOM     20  H   UNL     1       5.255   3.355  16.328  0.00  0.00    +0.000 HD
BRANCH  19  21
ATOM     21  C   UNL     1       7.059   4.423  16.654  0.00  0.00    +0.000 C 
BRANCH  21  22
ATOM     22  C   UNL     1       7.047   5.065  15.263  0.00  0.00    +0.000 C 
BRANCH  22  23
ATOM     23  N   UNL     1       5.864   5.914  15.074  0.00  0.00    +0.000 NA
ATOM     24  H   UNL     1       5.990   6.456  14.220  0.00  0.00    +0.000 HD
ATOM     25  H   UNL     1       5.827   6.597  15.832  0.00  0.00    +0.000 HD
ENDBRANCH  22  23
ENDBRANCH  21  22
ENDBRANCH  19  21
ENDBRANCH  16  17
ENDBRANCH  15  16
ENDBRANCH  14  15
ENDBRANCH   1  14
TORSDOF 10
ENDMDL
MODEL 3
REMARK VINA RESULT:      -6.7      5.527      8.254
REMARK  Name = 
REMARK  13 active torsions:
REMARK  status: ('A' for Active; 'I' for Inactive)
REMARK    1  A    between atoms: C_1  and  C_2
REMARK    2  A    between atoms: C_5  and  C_6
REMARK    3  A    between atoms: C_6  and  C_7
REMARK    4  A    between atoms: C_6  and  C_8
REMARK    5  A    between atoms: C_10  and  O_11
REMARK    6  A    between atoms: O_11  and  C_12
REMARK    7  A    between atoms: C_12  and  C_14
REMARK    8  A    between atoms: C_14  and  C_15
REMARK    9  A    between atoms: C_15  and  C_16
REMARK   10  A    between atoms: C_16  and  C_17
REMARK   11  A    between atoms: N_19  and  C_20
REMARK   12  A    between atoms: C_20  and  C_21
REMARK   13  A    between atoms: C_21  and  N_22
REMARK                            x       y       z     vdW  Elec       q    Type
REMARK                         _______ _______ _______ _____ _____    ______ ____
ROOT
ATOM      1  C   UNL     1       6.918   4.253  16.814  0.00  0.00    +0.000 C 
ATOM      2  O   UNL     1       8.043   4.630  16.534  0.00  0.00    +0.000 OA
ENDROOT
BRANCH   1   3
ATOM      3  O   UNL     1       6.316   4.294  18.074  0.00  0.00    +0.000 OA
BRANCH   3  10
ATOM      4  C   UNL     1       5.722   7.138  17.353  0.00  0.00    +0.000 C 
ATOM      5  C   UNL     1       4.708   6.139  17.828  0.00  0.00    +0.000 A 
ATOM      6  C   UNL     1       3.364   6.523  17.812  0.00  0.00    +0.000 A 
ATOM      7  C   UNL     1       2.355   5.640  18.195  0.00  0.00    +0.000 A 
ATOM      8  C   UNL     1       2.651   4.341  18.633  0.00  0.00    +0.000 A 
ATOM      9  C   UNL     1       4.002   3.946  18.661  0.00  0.00    +0.000 A 
ATOM     10  C   UNL     1       5.019   4.842  18.268  0.00  0.00    +0.000 A 
BRANCH   8  11
ATOM     11  C   UNL     1       1.471   3.445  18.986  0.00  0.00    +0.000 C 
ATOM     12  C   UNL     1       1.881   1.970  19.036  0.00  0.00    +0.000 C 
ATOM     13  C   UNL     1       0.721   3.838  20.257  0.00  0.00    +0.000 C 
ENDBRANCH   8  11
ENDBRANCH   3  10
ENDBRANCH   1   3
BRANCH   1  14
ATOM     14  C   UNL     1       5.913   3.705  15.811  0.00  0.00    +0.000 C 
BRANCH  14  15
ATOM     15  C   UNL     1       6.317   3.922  14.354  0.00  0.00    +0.000 C 
BRANCH  15  16
ATOM     16  C   UNL     1       5.128   4.041  13.400  0.00  0.00    +0.000 C 
BRANCH  16  17
ATOM     17  C   UNL     1       5.326   3.219  12.144  0.00  0.00    +0.000 C 
ATOM     18  O   UNL     1       4.520   3.218  11.215  0.00  0.00    +0.000 OA
ATOM     19  N   UNL     1       6.480   2.478  12.140  0.00  0.00    +0.000 N 
ATOM     20  H   UNL     1       7.193   2.636  12.840  0.00  0.00    +0.000 HD
BRANCH  19  21
ATOM     21  C   UNL     1       6.797   1.580  11.042  0.00  0.00    +0.000 C 
BRANCH  21  22
ATOM     22  C   UNL     1       5.838   0.387  10.966  0.00  0.00    +0.000 C 
BRANCH  22  23
ATOM     23  N   UNL     1       6.351  -0.762  11.722  0.00  0.00    +0.000 NA
ATOM     24  H   UNL     1       6.018  -1.616  11.275  0.00  0.00    +0.000 HD
ATOM     25  H   UNL     1       5.930  -0.755  12.652  0.00  0.00    +0.000 HD
ENDBRANCH  22  23
ENDBRANCH  21  22
ENDBRANCH  19  21
ENDBRANCH  16  17
ENDBRANCH  15  16
ENDBRANCH  14  15
ENDBRANCH   1  14
TORSDOF 10
ENDMDL
MODEL 4
REMARK VINA RESULT:      -6.7      5.275      7.333
REMARK  Name = 
REMARK  13 active torsions:
REMARK  status: ('A' for Active; 'I' for Inactive)
REMARK    1  A    between atoms: C_1  and  C_2
REMARK    2  A    between atoms: C_5  and  C_6
REMARK    3  A    between atoms: C_6  and  C_7
REMARK    4  A    between atoms: C_6  and  C_8
REMARK    5  A    between atoms: C_10  and  O_11
REMARK    6  A    between atoms: O_11  and  C_12
REMARK    7  A    between atoms: C_12  and  C_14
REMARK    8  A    between atoms: C_14  and  C_15
REMARK    9  A    between atoms: C_15  and  C_16
REMARK   10  A    between atoms: C_16  and  C_17
REMARK   11  A    between atoms: N_19  and  C_20
REMARK   12  A    between atoms: C_20  and  C_21
REMARK   13  A    between atoms: C_21  and  N_22
REMARK                            x       y       z     vdW  Elec       q    Type
REMARK                         _______ _______ _______ _____ _____    ______ ____
ROOT
ATOM      1  C   UNL     1       2.612   3.199  21.056  0.00  0.00    +0.000 C 
ATOM      2  O   UNL     1       2.471   3.039  22.256  0.00  0.00    +0.000 OA
ENDROOT
BRANCH   1   3
ATOM      3  O   UNL     1       3.507   2.520  20.225  0.00  0.00    +0.000 OA
BRANCH   3  10
ATOM      4  C   UNL     1       2.480   2.091  17.446  0.00  0.00    +0.000 C 
ATOM      5  C   UNL     1       3.577   3.043  17.823  0.00  0.00    +0.000 A 
ATOM      6  C   UNL     1       4.073   3.888  16.825  0.00  0.00    +0.000 A 
ATOM      7  C   UNL     1       5.061   4.832  17.102  0.00  0.00    +0.000 A 
ATOM      8  C   UNL     1       5.613   4.955  18.385  0.00  0.00    +0.000 A 
ATOM      9  C   UNL     1       5.128   4.104  19.397  0.00  0.00    +0.000 A 
ATOM     10  C   UNL     1       4.124   3.154  19.112  0.00  0.00    +0.000 A 
BRANCH   8  11
ATOM     11  C   UNL     1       6.654   6.047  18.588  0.00  0.00    +0.000 C 
ATOM     12  C   UNL     1       7.798   5.574  19.490  0.00  0.00    +0.000 C 
ATOM     13  C   UNL     1       7.203   6.662  17.302  0.00  0.00    +0.000 C 
ENDBRANCH   8  11
ENDBRANCH   3  10
ENDBRANCH   1   3
BRANCH   1  14
ATOM     14  C   UNL     1       1.781   4.149  20.206  0.00  0.00    +0.000 C 
BRANCH  14  15
ATOM     15  C   UNL     1       1.907   5.614  20.620  0.00  0.00    +0.000 C 
BRANCH  15  16
ATOM     16  C   UNL     1       2.421   6.524  19.504  0.00  0.00    +0.000 C 
BRANCH  16  17
ATOM     17  C   UNL     1       1.916   7.944  19.655  0.00  0.00    +0.000 C 
ATOM     18  O   UNL     1       1.559   8.412  20.735  0.00  0.00    +0.000 OA
ATOM     19  N   UNL     1       1.892   8.654  18.483  0.00  0.00    +0.000 N 
ATOM     20  H   UNL     1       2.350   8.294  17.656  0.00  0.00    +0.000 HD
BRANCH  19  21
ATOM     21  C   UNL     1       1.375  10.012  18.432  0.00  0.00    +0.000 C 
BRANCH  21  22
ATOM     22  C   UNL     1      -0.134  10.054  18.167  0.00  0.00    +0.000 C 
BRANCH  22  23
ATOM     23  N   UNL     1      -0.619  11.435  18.049  0.00  0.00    +0.000 NA
ATOM     24  H   UNL     1      -1.379  11.451  17.370  0.00  0.00    +0.000 HD
ATOM     25  H   UNL     1       0.123  12.009  17.648  0.00  0.00    +0.000 HD
ENDBRANCH  22  23
ENDBRANCH  21  22
ENDBRANCH  19  21
ENDBRANCH  16  17
ENDBRANCH  15  16
ENDBRANCH  14  15
ENDBRANCH   1  14
TORSDOF 10
ENDMDL
MODEL 5
REMARK VINA RESULT:      -6.6      1.280      1.851
REMARK  Name = 
REMARK  13 active torsions:
REMARK  status: ('A' for Active; 'I' for Inactive)
REMARK    1  A    between atoms: C_1  and  C_2
REMARK    2  A    between atoms: C_5  and  C_6
REMARK    3  A    between atoms: C_6  and  C_7
REMARK    4  A    between atoms: C_6  and  C_8
REMARK    5  A    between atoms: C_10  and  O_11
REMARK    6  A    between atoms: O_11  and  C_12
REMARK    7  A    between atoms: C_12  and  C_14
REMARK    8  A    between atoms: C_14  and  C_15
REMARK    9  A    between atoms: C_15  and  C_16
REMARK   10  A    between atoms: C_16  and  C_17
REMARK   11  A    between atoms: N_19  and  C_20
REMARK   12  A    between atoms: C_20  and  C_21
REMARK   13  A    between atoms: C_21  and  N_22
REMARK                            x       y       z     vdW  Elec       q    Type
REMARK                         _______ _______ _______ _____ _____    ______ ____
ROOT
ATOM      1  C   UNL     1       6.782   6.766  17.987  0.00  0.00    +0.000 C 
ATOM      2  O   UNL     1       7.064   6.063  18.943  0.00  0.00    +0.000 OA
ENDROOT
BRANCH   1   3
ATOM      3  O   UNL     1       5.514   6.941  17.429  0.00  0.00    +0.000 OA
BRANCH   3  10
ATOM      4  C   UNL     1       5.828   4.734  15.431  0.00  0.00    +0.000 C 
ATOM      5  C   UNL     1       4.777   4.786  16.500  0.00  0.00    +0.000 A 
ATOM      6  C   UNL     1       3.961   3.662  16.662  0.00  0.00    +0.000 A 
ATOM      7  C   UNL     1       2.989   3.612  17.660  0.00  0.00    +0.000 A 
ATOM      8  C   UNL     1       2.776   4.694  18.526  0.00  0.00    +0.000 A 
ATOM      9  C   UNL     1       3.586   5.834  18.368  0.00  0.00    +0.000 A 
ATOM     10  C   UNL     1       4.572   5.879  17.359  0.00  0.00    +0.000 A 
BRANCH   8  11
ATOM     11  C   UNL     1       1.720   4.516  19.608  0.00  0.00    +0.000 C 
ATOM     12  C   UNL     1       0.992   3.176  19.469  0.00  0.00    +0.000 C 
ATOM     13  C   UNL     1       2.224   4.708  21.037  0.00  0.00    +0.000 C 
ENDBRANCH   8  11
ENDBRANCH   3  10
ENDBRANCH   1   3
BRANCH   1  14
ATOM     14  C   UNL     1       7.771   7.647  17.239  0.00  0.00    +0.000 C 
BRANCH  14  15
ATOM     15  C   UNL     1       7.861   9.071  17.784  0.00  0.00    +0.000 C 
BRANCH  15  16
ATOM     16  C   UNL     1       8.776   9.205  19.002  0.00  0.00    +0.000 C 
BRANCH  16  17
ATOM     17  C   UNL     1       9.479  10.545  19.037  0.00  0.00    +0.000 C 
ATOM     18  O   UNL     1      10.266  10.861  19.927  0.00  0.00    +0.000 OA
ATOM     19  N   UNL     1       9.156  11.370  17.990  0.00  0.00    +0.000 N 
ATOM     20  H   UNL     1       8.643  11.014  17.195  0.00  0.00    +0.000 HD
BRANCH  19  21
ATOM     21  C   UNL     1       9.688  12.720  17.901  0.00  0.00    +0.000 C 
BRANCH  21  22
ATOM     22  C   UNL     1      10.897  12.812  16.962  0.00  0.00    +0.000 C 
BRANCH  22  23
ATOM     23  N   UNL     1      12.070  12.138  17.531  0.00  0.00    +0.000 NA
ATOM     24  H   UNL     1      11.748  11.337  18.074  0.00  0.00    +0.000 HD
ATOM     25  H   UNL     1      12.515  12.766  18.201  0.00  0.00    +0.000 HD
ENDBRANCH  22  23
ENDBRANCH  21  22
ENDBRANCH  19  21
ENDBRANCH  16  17
ENDBRANCH  15  16
ENDBRANCH  14  15
ENDBRANCH   1  14
TORSDOF 10
ENDMDL
MODEL 6
REMARK VINA RESULT:      -6.6      1.284      1.609
REMARK  Name = 
REMARK  13 active torsions:
REMARK  status: ('A' for Active; 'I' for Inactive)
REMARK    1  A    between atoms: C_1  and  C_2
REMARK    2  A    between atoms: C_5  and  C_6
REMARK    3  A    between atoms: C_6  and  C_7
REMARK    4  A    between atoms: C_6  and  C_8
REMARK    5  A    between atoms: C_10  and  O_11
REMARK    6  A    between atoms: O_11  and  C_12
REMARK    7  A    between atoms: C_12  and  C_14
REMARK    8  A    between atoms: C_14  and  C_15
REMARK    9  A    between atoms: C_15  and  C_16
REMARK   10  A    between atoms: C_16  and  C_17
REMARK   11  A    between atoms: N_19  and  C_20
REMARK   12  A    between atoms: C_20  and  C_21
REMARK   13  A    between atoms: C_21  and  N_22
REMARK                            x       y       z     vdW  Elec       q    Type
REMARK                         _______ _______ _______ _____ _____    ______ ____
ROOT
ATOM      1  C   UNL     1       7.179   7.070  17.300  0.00  0.00    +0.000 C 
ATOM      2  O   UNL     1       7.914   6.198  17.730  0.00  0.00    +0.000 OA
ENDROOT
BRANCH   1   3
ATOM      3  O   UNL     1       6.110   6.897  16.417  0.00  0.00    +0.000 OA
BRANCH   3  10
ATOM      4  C   UNL     1       6.011   4.140  15.253  0.00  0.00    +0.000 C 
ATOM      5  C   UNL     1       5.038   4.689  16.255  0.00  0.00    +0.000 A 
ATOM      6  C   UNL     1       4.088   3.810  16.784  0.00  0.00    +0.000 A 
ATOM      7  C   UNL     1       3.177   4.228  17.753  0.00  0.00    +0.000 A 
ATOM      8  C   UNL     1       3.161   5.551  18.216  0.00  0.00    +0.000 A 
ATOM      9  C   UNL     1       4.107   6.448  17.685  0.00  0.00    +0.000 A 
ATOM     10  C   UNL     1       5.031   6.018  16.709  0.00  0.00    +0.000 A 
BRANCH   8  11
ATOM     11  C   UNL     1       2.153   5.890  19.307  0.00  0.00    +0.000 C 
ATOM     12  C   UNL     1       2.254   4.920  20.487  0.00  0.00    +0.000 C 
ATOM     13  C   UNL     1       2.194   7.337  19.794  0.00  0.00    +0.000 C 
ENDBRANCH   8  11
ENDBRANCH   3  10
ENDBRANCH   1   3
BRANCH   1  14
ATOM     14  C   UNL     1       7.252   8.537  17.695  0.00  0.00    +0.000 C 
BRANCH  14  15
ATOM     15  C   UNL     1       8.674   9.096  17.725  0.00  0.00    +0.000 C 
BRANCH  15  16
ATOM     16  C   UNL     1       8.921  10.080  18.870  0.00  0.00    +0.000 C 
BRANCH  16  17
ATOM     17  C   UNL     1       9.260  11.465  18.361  0.00  0.00    +0.000 C 
ATOM     18  O   UNL     1       8.528  12.091  17.596  0.00  0.00    +0.000 OA
ATOM     19  N   UNL     1      10.453  11.953  18.828  0.00  0.00    +0.000 N 
ATOM     20  H   UNL     1      10.938  11.486  19.582  0.00  0.00    +0.000 HD
BRANCH  19  21
ATOM     21  C   UNL     1      10.965  13.241  18.390  0.00  0.00    +0.000 C 
BRANCH  21  22
ATOM     22  C   UNL     1      11.855  13.125  17.147  0.00  0.00    +0.000 C 
BRANCH  22  23
ATOM     23  N   UNL     1      11.282  13.852  16.008  0.00  0.00    +0.000 NA
ATOM     24  H   UNL     1      11.936  13.792  15.227  0.00  0.00    +0.000 HD
ATOM     25  H   UNL     1      11.226  14.842  16.247  0.00  0.00    +0.000 HD
ENDBRANCH  22  23
ENDBRANCH  21  22
ENDBRANCH  19  21
ENDBRANCH  16  17
ENDBRANCH  15  16
ENDBRANCH  14  15
ENDBRANCH   1  14
TORSDOF 10
ENDMDL
MODEL 7
REMARK VINA RESULT:      -6.5      5.606      7.583
REMARK  Name = 
REMARK  13 active torsions:
REMARK  status: ('A' for Active; 'I' for Inactive)
REMARK    1  A    between atoms: C_1  and  C_2
REMARK    2  A    between atoms: C_5  and  C_6
REMARK    3  A    between atoms: C_6  and  C_7
REMARK    4  A    between atoms: C_6  and  C_8
REMARK    5  A    between atoms: C_10  and  O_11
REMARK    6  A    between atoms: O_11  and  C_12
REMARK    7  A    between atoms: C_12  and  C_14
REMARK    8  A    between atoms: C_14  and  C_15
REMARK    9  A    between atoms: C_15  and  C_16
REMARK   10  A    between atoms: C_16  and  C_17
REMARK   11  A    between atoms: N_19  and  C_20
REMARK   12  A    between atoms: C_20  and  C_21
REMARK   13  A    between atoms: C_21  and  N_22
REMARK                            x       y       z     vdW  Elec       q    Type
REMARK                         _______ _______ _______ _____ _____    ______ ____
ROOT
ATOM      1  C   UNL     1       1.956   8.629  18.461  0.00  0.00    +0.000 C 
ATOM      2  O   UNL     1       1.902   8.927  17.279  0.00  0.00    +0.000 OA
ENDROOT
BRANCH   1   3
ATOM      3  O   UNL     1       2.812   7.692  19.044  0.00  0.00    +0.000 OA
BRANCH   3  10
ATOM      4  C   UNL     1       4.812   7.045  16.913  0.00  0.00    +0.000 C 
ATOM      5  C   UNL     1       3.947   6.041  17.617  0.00  0.00    +0.000 A 
ATOM      6  C   UNL     1       4.178   4.688  17.353  0.00  0.00    +0.000 A 
ATOM      7  C   UNL     1       3.448   3.690  17.998  0.00  0.00    +0.000 A 
ATOM      8  C   UNL     1       2.438   4.005  18.918  0.00  0.00    +0.000 A 
ATOM      9  C   UNL     1       2.191   5.365  19.187  0.00  0.00    +0.000 A 
ATOM     10  C   UNL     1       2.936   6.371  18.535  0.00  0.00    +0.000 A 
BRANCH   8  11
ATOM     11  C   UNL     1       1.733   2.839  19.598  0.00  0.00    +0.000 C 
ATOM     12  C   UNL     1       1.252   3.214  21.002  0.00  0.00    +0.000 C 
ATOM     13  C   UNL     1       0.598   2.213  18.790  0.00  0.00    +0.000 C 
ENDBRANCH   8  11
ENDBRANCH   3  10
ENDBRANCH   1   3
BRANCH   1  14
ATOM     14  C   UNL     1       1.121   9.276  19.555  0.00  0.00    +0.000 C 
BRANCH  14  15
ATOM     15  C   UNL     1       1.165   8.528  20.886  0.00  0.00    +0.000 C 
BRANCH  15  16
ATOM     16  C   UNL     1      -0.155   8.574  21.658  0.00  0.00    +0.000 C 
BRANCH  16  17
ATOM     17  C   UNL     1      -0.210   9.748  22.613  0.00  0.00    +0.000 C 
ATOM     18  O   UNL     1       0.304   9.722  23.731  0.00  0.00    +0.000 OA
ATOM     19  N   UNL     1      -0.883  10.836  22.120  0.00  0.00    +0.000 N 
ATOM     20  H   UNL     1      -1.139  10.880  21.143  0.00  0.00    +0.000 HD
BRANCH  19  21
ATOM     21  C   UNL     1      -1.089  12.027  22.928  0.00  0.00    +0.000 C 
BRANCH  21  22
ATOM     22  C   UNL     1      -0.578  13.297  22.238  0.00  0.00    +0.000 C 
BRANCH  22  23
ATOM     23  N   UNL     1       0.731  13.078  21.611  0.00  0.00    +0.000 NA
ATOM     24  H   UNL     1       0.915  12.075  21.594  0.00  0.00    +0.000 HD
ATOM     25  H   UNL     1       1.452  13.482  22.208  0.00  0.00    +0.000 HD
ENDBRANCH  22  23
ENDBRANCH  21  22
ENDBRANCH  19  21
ENDBRANCH  16  17
ENDBRANCH  15  16
ENDBRANCH  14  15
ENDBRANCH   1  14
TORSDOF 10
ENDMDL
MODEL 8
REMARK VINA RESULT:      -6.5      4.373      5.875
REMARK  Name = 
REMARK  13 active torsions:
REMARK  status: ('A' for Active; 'I' for Inactive)
REMARK    1  A    between atoms: C_1  and  C_2
REMARK    2  A    between atoms: C_5  and  C_6
REMARK    3  A    between atoms: C_6  and  C_7
REMARK    4  A    between atoms: C_6  and  C_8
REMARK    5  A    between atoms: C_10  and  O_11
REMARK    6  A    between atoms: O_11  and  C_12
REMARK    7  A    between atoms: C_12  and  C_14
REMARK    8  A    between atoms: C_14  and  C_15
REMARK    9  A    between atoms: C_15  and  C_16
REMARK   10  A    between atoms: C_16  and  C_17
REMARK   11  A    between atoms: N_19  and  C_20
REMARK   12  A    between atoms: C_20  and  C_21
REMARK   13  A    between atoms: C_21  and  N_22
REMARK                            x       y       z     vdW  Elec       q    Type
REMARK                         _______ _______ _______ _____ _____    ______ ____
ROOT
ATOM      1  C   UNL     1       6.904   4.554  18.586  0.00  0.00    +0.000 C 
ATOM      2  O   UNL     1       7.457   3.853  17.756  0.00  0.00    +0.000 OA
ENDROOT
BRANCH   1   3
ATOM      3  O   UNL     1       5.715   4.266  19.259  0.00  0.00    +0.000 OA
BRANCH   3  10
ATOM      4  C   UNL     1       4.076   2.038  18.115  0.00  0.00    +0.000 C 
ATOM      5  C   UNL     1       3.626   3.464  18.240  0.00  0.00    +0.000 A 
ATOM      6  C   UNL     1       2.296   3.754  17.917  0.00  0.00    +0.000 A 
ATOM      7  C   UNL     1       1.786   5.045  18.047  0.00  0.00    +0.000 A 
ATOM      8  C   UNL     1       2.590   6.106  18.483  0.00  0.00    +0.000 A 
ATOM      9  C   UNL     1       3.933   5.829  18.804  0.00  0.00    +0.000 A 
ATOM     10  C   UNL     1       4.444   4.519  18.676  0.00  0.00    +0.000 A 
BRANCH   8  11
ATOM     11  C   UNL     1       1.921   7.466  18.632  0.00  0.00    +0.000 C 
ATOM     12  C   UNL     1       1.772   7.862  20.104  0.00  0.00    +0.000 C 
ATOM     13  C   UNL     1       2.571   8.595  17.835  0.00  0.00    +0.000 C 
ENDBRANCH   8  11
ENDBRANCH   3  10
ENDBRANCH   1   3
BRANCH   1  14
ATOM     14  C   UNL     1       7.448   5.879  19.099  0.00  0.00    +0.000 C 
BRANCH  14  15
ATOM     15  C   UNL     1       7.719   6.901  17.996  0.00  0.00    +0.000 C 
BRANCH  15  16
ATOM     16  C   UNL     1       6.453   7.400  17.298  0.00  0.00    +0.000 C 
BRANCH  16  17
ATOM     17  C   UNL     1       6.231   6.709  15.969  0.00  0.00    +0.000 C 
ATOM     18  O   UNL     1       5.212   6.868  15.298  0.00  0.00    +0.000 OA
ATOM     19  N   UNL     1       7.263   5.891  15.587  0.00  0.00    +0.000 N 
ATOM     20  H   UNL     1       8.147   5.920  16.076  0.00  0.00    +0.000 HD
BRANCH  19  21
ATOM     21  C   UNL     1       7.189   5.100  14.370  0.00  0.00    +0.000 C 
BRANCH  21  22
ATOM     22  C   UNL     1       6.227   3.913  14.501  0.00  0.00    +0.000 C 
BRANCH  22  23
ATOM     23  N   UNL     1       6.137   3.156  13.247  0.00  0.00    +0.000 NA
ATOM     24  H   UNL     1       5.424   2.435  13.358  0.00  0.00    +0.000 HD
ATOM     25  H   UNL     1       7.015   2.657  13.102  0.00  0.00    +0.000 HD
ENDBRANCH  22  23
ENDBRANCH  21  22
ENDBRANCH  19  21
ENDBRANCH  16  17
ENDBRANCH  15  16
ENDBRANCH  14  15
ENDBRANCH   1  14
TORSDOF 10
ENDMDL
MODEL 9
REMARK VINA RESULT:      -6.4      5.225      7.003
REMARK  Name = 
REMARK  13 active torsions:
REMARK  status: ('A' for Active; 'I' for Inactive)
REMARK    1  A    between atoms: C_1  and  C_2
REMARK    2  A    between atoms: C_5  and  C_6
REMARK    3  A    between atoms: C_6  and  C_7
REMARK    4  A    between atoms: C_6  and  C_8
REMARK    5  A    between atoms: C_10  and  O_11
REMARK    6  A    between atoms: O_11  and  C_12
REMARK    7  A    between atoms: C_12  and  C_14
REMARK    8  A    between atoms: C_14  and  C_15
REMARK    9  A    between atoms: C_15  and  C_16
REMARK   10  A    between atoms: C_16  and  C_17
REMARK   11  A    between atoms: N_19  and  C_20
REMARK   12  A    between atoms: C_20  and  C_21
REMARK   13  A    between atoms: C_21  and  N_22
REMARK                            x       y       z     vdW  Elec       q    Type
REMARK                         _______ _______ _______ _____ _____    ______ ____
ROOT
ATOM      1  C   UNL     1       6.851   5.206  18.922  0.00  0.00    +0.000 C 
ATOM      2  O   UNL     1       7.865   5.142  19.596  0.00  0.00    +0.000 OA
ENDROOT
BRANCH   1   3
ATOM      3  O   UNL     1       5.671   4.487  19.126  0.00  0.00    +0.000 OA
BRANCH   3  10
ATOM      4  C   UNL     1       3.795   2.623  17.722  0.00  0.00    +0.000 C 
ATOM      5  C   UNL     1       3.492   4.050  18.071  0.00  0.00    +0.000 A 
ATOM      6  C   UNL     1       2.192   4.511  17.841  0.00  0.00    +0.000 A 
ATOM      7  C   UNL     1       1.815   5.811  18.179  0.00  0.00    +0.000 A 
ATOM      8  C   UNL     1       2.730   6.713  18.739  0.00  0.00    +0.000 A 
ATOM      9  C   UNL     1       4.044   6.263  18.969  0.00  0.00    +0.000 A 
ATOM     10  C   UNL     1       4.420   4.945  18.630  0.00  0.00    +0.000 A 
BRANCH   8  11
ATOM     11  C   UNL     1       2.202   8.092  19.110  0.00  0.00    +0.000 C 
ATOM     12  C   UNL     1       1.462   8.745  17.939  0.00  0.00    +0.000 C 
ATOM     13  C   UNL     1       1.350   8.137  20.377  0.00  0.00    +0.000 C 
ENDBRANCH   8  11
ENDBRANCH   3  10
ENDBRANCH   1   3
BRANCH   1  14
ATOM     14  C   UNL     1       6.655   6.142  17.739  0.00  0.00    +0.000 C 
BRANCH  14  15
ATOM     15  C   UNL     1       7.382   5.693  16.473  0.00  0.00    +0.000 C 
BRANCH  15  16
ATOM     16  C   UNL     1       6.795   4.428  15.845  0.00  0.00    +0.000 C 
BRANCH  16  17
ATOM     17  C   UNL     1       6.800   4.492  14.332  0.00  0.00    +0.000 C 
ATOM     18  O   UNL     1       7.421   5.349  13.705  0.00  0.00    +0.000 OA
ATOM     19  N   UNL     1       6.051   3.514  13.731  0.00  0.00    +0.000 N 
ATOM     20  H   UNL     1       5.699   2.734  14.269  0.00  0.00    +0.000 HD
BRANCH  19  21
ATOM     21  C   UNL     1       5.892   3.466  12.287  0.00  0.00    +0.000 C 
BRANCH  21  22
ATOM     22  C   UNL     1       6.846   2.464  11.626  0.00  0.00    +0.000 C 
BRANCH  22  23
ATOM     23  N   UNL     1       6.172   1.191  11.339  0.00  0.00    +0.000 NA
ATOM     24  H   UNL     1       5.602   1.311  10.503  0.00  0.00    +0.000 HD
ATOM     25  H   UNL     1       5.516   0.991  12.095  0.00  0.00    +0.000 HD
ENDBRANCH  22  23
ENDBRANCH  21  22
ENDBRANCH  19  21
ENDBRANCH  16  17
ENDBRANCH  15  16
ENDBRANCH  14  15
ENDBRANCH   1  14
TORSDOF 10
ENDMDL
