MODEL 1
REMARK VINA RESULT:      -7.9      0.000      0.000
REMARK  Name = 
REMARK  10 active torsions:
REMARK  status: ('A' for Active; 'I' for Inactive)
REMARK    1  A    between atoms: C_1  and  N_2
REMARK    2  A    between atoms: N_2  and  C_3
REMARK    3  A    between atoms: N_2  and  C_4
REMARK    4  A    between atoms: C_7  and  C_8
REMARK    5  A    between atoms: C_9  and  C_10
REMARK    6  A    between atoms: C_12  and  C_13
REMARK    7  A    between atoms: C_14  and  C_15
REMARK    8  A    between atoms: C_18  and  N_19
REMARK    9  A    between atoms: N_19  and  C_20
REMARK   10  A    between atoms: N_19  and  C_21
REMARK                            x       y       z     vdW  Elec       q    Type
REMARK                         _______ _______ _______ _____ _____    ______ ____
ROOT
ATOM      1  C   UNL     1       9.675  10.652  19.160  0.00  0.00    +0.000 A 
ATOM      2  C   UNL     1      10.222  11.085  20.348  0.00  0.00    +0.000 A 
ATOM      3  C   UNL     1      10.627  12.404  20.426  0.00  0.00    +0.000 A 
ATOM      4  C   UNL     1      11.010  13.067  19.272  0.00  0.00    +0.000 A 
ATOM      5  C   UNL     1      11.847  14.204  19.349  0.00  0.00    +0.000 A 
ATOM      6  C   UNL     1      12.232  14.861  18.196  0.00  0.00    +0.000 A 
ATOM      7  C   UNL     1      11.725  14.416  16.980  0.00  0.00    +0.000 A 
ATOM      8  C   UNL     1      10.886  13.285  16.925  0.00  0.00    +0.000 A 
ATOM      9  C   UNL     1      10.541  12.545  18.064  0.00  0.00    +0.000 A 
ATOM     10  N   UNL     1       9.793  11.395  18.022  0.00  0.00    +0.000 NA
ENDROOT
BRANCH   1  12
ATOM     11  C   UNL     1       8.351   8.834  17.992  0.00  0.00    +0.000 C 
ATOM     12  C   UNL     1       8.991   9.331  19.078  0.00  0.00    +0.000 C 
BRANCH  11  16
ATOM     13  C   UNL     1       5.738   5.320  17.823  0.00  0.00    +0.000 A 
ATOM     14  C   UNL     1       6.925   5.343  18.565  0.00  0.00    +0.000 A 
ATOM     15  C   UNL     1       7.784   6.456  18.598  0.00  0.00    +0.000 A 
ATOM     16  C   UNL     1       7.508   7.625  17.896  0.00  0.00    +0.000 A 
ATOM     17  C   UNL     1       6.311   7.635  17.169  0.00  0.00    +0.000 A 
ATOM     18  C   UNL     1       5.451   6.513  17.133  0.00  0.00    +0.000 A 
BRANCH  13  20
ATOM     19  C   UNL     1       4.643   3.449  19.018  0.00  0.00    +0.000 C 
ATOM     20  N   UNL     1       4.890   4.215  17.799  0.00  0.00    +0.000 N 
ATOM     21  C   UNL     1       4.589   3.548  16.537  0.00  0.00    +0.000 C 
ENDBRANCH  13  20
ENDBRANCH  11  16
ENDBRANCH   1  12
BRANCH   3  22
ATOM     22  C   UNL     1       9.958  13.239  21.426  0.00  0.00    +0.000 C 
ATOM     23  C   UNL     1       9.113  12.764  22.346  0.00  0.00    +0.000 C 
BRANCH  23  24
ATOM     24  C   UNL     1       8.455  13.659  23.332  0.00  0.00    +0.000 A 
ATOM     25  C   UNL     1       7.710  13.060  24.331  0.00  0.00    +0.000 A 
ATOM     26  C   UNL     1       7.101  13.829  25.324  0.00  0.00    +0.000 A 
ATOM     27  C   UNL     1       7.248  15.223  25.408  0.00  0.00    +0.000 A 
ATOM     28  C   UNL     1       7.991  15.815  24.370  0.00  0.00    +0.000 A 
ATOM     29  C   UNL     1       8.582  15.054  23.342  0.00  0.00    +0.000 A 
BRANCH  27  30
ATOM     30  N   UNL     1       6.632  15.942  26.427  0.00  0.00    +0.000 N 
ATOM     31  C   UNL     1       6.266  17.344  26.192  0.00  0.00    +0.000 C 
ATOM     32  C   UNL     1       5.823  15.290  27.454  0.00  0.00    +0.000 C 
ENDBRANCH  27  30
ENDBRANCH  23  24
ENDBRANCH   3  22
TORSDOF 6
ENDMDL
MODEL 2
REMARK VINA RESULT:      -7.9      0.955      1.332
REMARK  Name = 
REMARK  10 active torsions:
REMARK  status: ('A' for Active; 'I' for Inactive)
REMARK    1  A    between atoms: C_1  and  N_2
REMARK    2  A    between atoms: N_2  and  C_3
REMARK    3  A    between atoms: N_2  and  C_4
REMARK    4  A    between atoms: C_7  and  C_8
REMARK    5  A    between atoms: C_9  and  C_10
REMARK    6  A    between atoms: C_12  and  C_13
REMARK    7  A    between atoms: C_14  and  C_15
REMARK    8  A    between atoms: C_18  and  N_19
REMARK    9  A    between atoms: N_19  and  C_20
REMARK   10  A    between atoms: N_19  and  C_21
REMARK                            x       y       z     vdW  Elec       q    Type
REMARK                         _______ _______ _______ _____ _____    ______ ____
ROOT
ATOM      1  C   UNL     1       9.739  10.852  19.193  0.00  0.00    +0.000 A 
ATOM      2  C   UNL     1      10.253  11.311  20.386  0.00  0.00    +0.000 A 
ATOM      3  C   UNL     1      10.585  12.650  20.468  0.00  0.00    +0.000 A 
ATOM      4  C   UNL     1      10.941  13.335  19.318  0.00  0.00    +0.000 A 
ATOM      5  C   UNL     1      11.714  14.516  19.403  0.00  0.00    +0.000 A 
ATOM      6  C   UNL     1      12.071  15.195  18.254  0.00  0.00    +0.000 A 
ATOM      7  C   UNL     1      11.598  14.726  17.034  0.00  0.00    +0.000 A 
ATOM      8  C   UNL     1      10.821  13.552  16.971  0.00  0.00    +0.000 A 
ATOM      9  C   UNL     1      10.509  12.792  18.106  0.00  0.00    +0.000 A 
ATOM     10  N   UNL     1       9.824  11.602  18.057  0.00  0.00    +0.000 NA
ENDROOT
BRANCH   1  12
ATOM     11  C   UNL     1       8.451   8.999  18.041  0.00  0.00    +0.000 C 
ATOM     12  C   UNL     1       9.127   9.496  19.104  0.00  0.00    +0.000 C 
BRANCH  11  16
ATOM     13  C   UNL     1       6.026   5.351  17.886  0.00  0.00    +0.000 A 
ATOM     14  C   UNL     1       7.185   5.455  18.664  0.00  0.00    +0.000 A 
ATOM     15  C   UNL     1       7.985   6.611  18.694  0.00  0.00    +0.000 A 
ATOM     16  C   UNL     1       7.674   7.745  17.951  0.00  0.00    +0.000 A 
ATOM     17  C   UNL     1       6.502   7.675  17.187  0.00  0.00    +0.000 A 
ATOM     18  C   UNL     1       5.702   6.509  17.155  0.00  0.00    +0.000 A 
BRANCH  13  20
ATOM     19  C   UNL     1       4.491   3.845  16.662  0.00  0.00    +0.000 C 
ATOM     20  N   UNL     1       5.236   4.204  17.865  0.00  0.00    +0.000 N 
ATOM     21  C   UNL     1       4.792   3.596  19.115  0.00  0.00    +0.000 C 
ENDBRANCH  13  20
ENDBRANCH  11  16
ENDBRANCH   1  12
BRANCH   3  22
ATOM     22  C   UNL     1       9.866  13.446  21.465  0.00  0.00    +0.000 C 
ATOM     23  C   UNL     1       8.549  13.671  21.427  0.00  0.00    +0.000 C 
BRANCH  23  24
ATOM     24  C   UNL     1       7.871  14.494  22.461  0.00  0.00    +0.000 A 
ATOM     25  C   UNL     1       6.801  15.267  22.052  0.00  0.00    +0.000 A 
ATOM     26  C   UNL     1       6.080  16.031  22.972  0.00  0.00    +0.000 A 
ATOM     27  C   UNL     1       6.351  16.021  24.350  0.00  0.00    +0.000 A 
ATOM     28  C   UNL     1       7.458  15.245  24.743  0.00  0.00    +0.000 A 
ATOM     29  C   UNL     1       8.215  14.497  23.819  0.00  0.00    +0.000 A 
BRANCH  27  30
ATOM     30  N   UNL     1       5.594  16.789  25.229  0.00  0.00    +0.000 N 
ATOM     31  C   UNL     1       4.152  16.933  24.993  0.00  0.00    +0.000 C 
ATOM     32  C   UNL     1       5.979  16.973  26.626  0.00  0.00    +0.000 C 
ENDBRANCH  27  30
ENDBRANCH  23  24
ENDBRANCH   3  22
TORSDOF 6
ENDMDL
MODEL 3
REMARK VINA RESULT:      -7.8      1.386      1.934
REMARK  Name = 
REMARK  10 active torsions:
REMARK  status: ('A' for Active; 'I' for Inactive)
REMARK    1  A    between atoms: C_1  and  N_2
REMARK    2  A    between atoms: N_2  and  C_3
REMARK    3  A    between atoms: N_2  and  C_4
REMARK    4  A    between atoms: C_7  and  C_8
REMARK    5  A    between atoms: C_9  and  C_10
REMARK    6  A    between atoms: C_12  and  C_13
REMARK    7  A    between atoms: C_14  and  C_15
REMARK    8  A    between atoms: C_18  and  N_19
REMARK    9  A    between atoms: N_19  and  C_20
REMARK   10  A    between atoms: N_19  and  C_21
REMARK                            x       y       z     vdW  Elec       q    Type
REMARK                         _______ _______ _______ _____ _____    ______ ____
ROOT
ATOM      1  C   UNL     1       9.346  10.707  19.317  0.00  0.00    +0.000 A 
ATOM      2  C   UNL     1       9.732  10.872  20.629  0.00  0.00    +0.000 A 
ATOM      3  C   UNL     1       9.852  12.164  21.105  0.00  0.00    +0.000 A 
ATOM      4  C   UNL     1      10.148  13.190  20.222  0.00  0.00    +0.000 A 
ATOM      5  C   UNL     1      10.728  14.390  20.694  0.00  0.00    +0.000 A 
ATOM      6  C   UNL     1      11.026  15.410  19.811  0.00  0.00    +0.000 A 
ATOM      7  C   UNL     1      10.683  15.249  18.473  0.00  0.00    +0.000 A 
ATOM      8  C   UNL     1      10.099  14.047  18.024  0.00  0.00    +0.000 A 
ATOM      9  C   UNL     1       9.857  12.961  18.875  0.00  0.00    +0.000 A 
ATOM     10  N   UNL     1       9.365  11.754  18.443  0.00  0.00    +0.000 NA
ENDROOT
BRANCH   1  12
ATOM     11  C   UNL     1       7.895   9.098  18.004  0.00  0.00    +0.000 C 
ATOM     12  C   UNL     1       8.953   9.363  18.807  0.00  0.00    +0.000 C 
BRANCH  11  16
ATOM     13  C   UNL     1       6.145   5.219  16.955  0.00  0.00    +0.000 A 
ATOM     14  C   UNL     1       7.280   5.341  17.765  0.00  0.00    +0.000 A 
ATOM     15  C   UNL     1       7.865   6.580  18.079  0.00  0.00    +0.000 A 
ATOM     16  C   UNL     1       7.348   7.783  17.609  0.00  0.00    +0.000 A 
ATOM     17  C   UNL     1       6.195   7.687  16.820  0.00  0.00    +0.000 A 
ATOM     18  C   UNL     1       5.612   6.439  16.501  0.00  0.00    +0.000 A 
BRANCH  13  20
ATOM     19  C   UNL     1       5.787   3.374  15.345  0.00  0.00    +0.000 C 
ATOM     20  N   UNL     1       5.568   3.987  16.652  0.00  0.00    +0.000 N 
ATOM     21  C   UNL     1       4.423   3.505  17.416  0.00  0.00    +0.000 C 
ENDBRANCH  13  20
ENDBRANCH  11  16
ENDBRANCH   1  12
BRANCH   3  22
ATOM     22  C   UNL     1       8.976  12.539  22.217  0.00  0.00    +0.000 C 
ATOM     23  C   UNL     1       8.554  11.682  23.153  0.00  0.00    +0.000 C 
BRANCH  23  24
ATOM     24  C   UNL     1       7.659  12.116  24.255  0.00  0.00    +0.000 A 
ATOM     25  C   UNL     1       8.018  13.257  24.948  0.00  0.00    +0.000 A 
ATOM     26  C   UNL     1       7.204  13.758  25.966  0.00  0.00    +0.000 A 
ATOM     27  C   UNL     1       5.968  13.184  26.308  0.00  0.00    +0.000 A 
ATOM     28  C   UNL     1       5.633  12.011  25.607  0.00  0.00    +0.000 A 
ATOM     29  C   UNL     1       6.462  11.475  24.600  0.00  0.00    +0.000 A 
BRANCH  27  30
ATOM     30  N   UNL     1       5.187  13.730  27.322  0.00  0.00    +0.000 N 
ATOM     31  C   UNL     1       4.859  15.159  27.279  0.00  0.00    +0.000 C 
ATOM     32  C   UNL     1       4.221  12.929  28.070  0.00  0.00    +0.000 C 
ENDBRANCH  27  30
ENDBRANCH  23  24
ENDBRANCH   3  22
TORSDOF 6
ENDMDL
MODEL 4
REMARK VINA RESULT:      -7.8      1.103      1.560
REMARK  Name = 
REMARK  10 active torsions:
REMARK  status: ('A' for Active; 'I' for Inactive)
REMARK    1  A    between atoms: C_1  and  N_2
REMARK    2  A    between atoms: N_2  and  C_3
REMARK    3  A    between atoms: N_2  and  C_4
REMARK    4  A    between atoms: C_7  and  C_8
REMARK    5  A    between atoms: C_9  and  C_10
REMARK    6  A    between atoms: C_12  and  C_13
REMARK    7  A    between atoms: C_14  and  C_15
REMARK    8  A    between atoms: C_18  and  N_19
REMARK    9  A    between atoms: N_19  and  C_20
REMARK   10  A    between atoms: N_19  and  C_21
REMARK                            x       y       z     vdW  Elec       q    Type
REMARK                         _______ _______ _______ _____ _____    ______ ____
ROOT
ATOM      1  C   UNL     1       9.114  10.856  18.561  0.00  0.00    +0.000 A 
ATOM      2  C   UNL     1       9.836  10.722  19.727  0.00  0.00    +0.000 A 
ATOM      3  C   UNL     1      10.491  11.840  20.208  0.00  0.00    +0.000 A 
ATOM      4  C   UNL     1      10.891  12.828  19.324  0.00  0.00    +0.000 A 
ATOM      5  C   UNL     1      11.933  13.717  19.673  0.00  0.00    +0.000 A 
ATOM      6  C   UNL     1      12.333  14.700  18.788  0.00  0.00    +0.000 A 
ATOM      7  C   UNL     1      11.645  14.828  17.587  0.00  0.00    +0.000 A 
ATOM      8  C   UNL     1      10.603  13.936  17.260  0.00  0.00    +0.000 A 
ATOM      9  C   UNL     1      10.225  12.878  18.096  0.00  0.00    +0.000 A 
ATOM     10  N   UNL     1       9.270  11.950  17.761  0.00  0.00    +0.000 NA
ENDROOT
BRANCH   1  12
ATOM     11  C   UNL     1       8.257   8.473  18.473  0.00  0.00    +0.000 C 
ATOM     12  C   UNL     1       8.185   9.779  18.118  0.00  0.00    +0.000 C 
BRANCH  11  16
ATOM     13  C   UNL     1       6.102   5.058  16.771  0.00  0.00    +0.000 A 
ATOM     14  C   UNL     1       5.784   6.384  16.456  0.00  0.00    +0.000 A 
ATOM     15  C   UNL     1       6.450   7.485  17.023  0.00  0.00    +0.000 A 
ATOM     16  C   UNL     1       7.486   7.332  17.939  0.00  0.00    +0.000 A 
ATOM     17  C   UNL     1       7.841   6.013  18.248  0.00  0.00    +0.000 A 
ATOM     18  C   UNL     1       7.166   4.907  17.680  0.00  0.00    +0.000 A 
BRANCH  13  20
ATOM     19  C   UNL     1       4.555   3.141  17.014  0.00  0.00    +0.000 C 
ATOM     20  N   UNL     1       5.440   3.972  16.202  0.00  0.00    +0.000 N 
ATOM     21  C   UNL     1       5.925   3.387  14.958  0.00  0.00    +0.000 C 
ENDBRANCH  13  20
ENDBRANCH  11  16
ENDBRANCH   1  12
BRANCH   3  22
ATOM     22  C   UNL     1      10.086  12.320  21.531  0.00  0.00    +0.000 C 
ATOM     23  C   UNL     1       9.097  13.197  21.733  0.00  0.00    +0.000 C 
BRANCH  23  24
ATOM     24  C   UNL     1       8.734  13.656  23.097  0.00  0.00    +0.000 A 
ATOM     25  C   UNL     1       8.376  12.686  24.016  0.00  0.00    +0.000 A 
ATOM     26  C   UNL     1       8.068  13.031  25.333  0.00  0.00    +0.000 A 
ATOM     27  C   UNL     1       8.154  14.347  25.818  0.00  0.00    +0.000 A 
ATOM     28  C   UNL     1       8.498  15.321  24.861  0.00  0.00    +0.000 A 
ATOM     29  C   UNL     1       8.778  14.990  23.521  0.00  0.00    +0.000 A 
BRANCH  27  30
ATOM     30  N   UNL     1       7.850  14.637  27.144  0.00  0.00    +0.000 N 
ATOM     31  C   UNL     1       8.482  13.852  28.210  0.00  0.00    +0.000 C 
ATOM     32  C   UNL     1       7.435  15.972  27.568  0.00  0.00    +0.000 C 
ENDBRANCH  27  30
ENDBRANCH  23  24
ENDBRANCH   3  22
TORSDOF 6
ENDMDL
MODEL 5
REMARK VINA RESULT:      -7.8      1.202      1.445
REMARK  Name = 
REMARK  10 active torsions:
REMARK  status: ('A' for Active; 'I' for Inactive)
REMARK    1  A    between atoms: C_1  and  N_2
REMARK    2  A    between atoms: N_2  and  C_3
REMARK    3  A    between atoms: N_2  and  C_4
REMARK    4  A    between atoms: C_7  and  C_8
REMARK    5  A    between atoms: C_9  and  C_10
REMARK    6  A    between atoms: C_12  and  C_13
REMARK    7  A    between atoms: C_14  and  C_15
REMARK    8  A    between atoms: C_18  and  N_19
REMARK    9  A    between atoms: N_19  and  C_20
REMARK   10  A    between atoms: N_19  and  C_21
REMARK                            x       y       z     vdW  Elec       q    Type
REMARK                         _______ _______ _______ _____ _____    ______ ____
ROOT
ATOM      1  C   UNL     1       9.643  10.688  19.209  0.00  0.00    +0.000 A 
ATOM      2  C   UNL     1      10.007  11.213  20.430  0.00  0.00    +0.000 A 
ATOM      3  C   UNL     1      10.359  12.548  20.475  0.00  0.00    +0.000 A 
ATOM      4  C   UNL     1      10.880  13.154  19.343  0.00  0.00    +0.000 A 
ATOM      5  C   UNL     1      11.665  14.324  19.459  0.00  0.00    +0.000 A 
ATOM      6  C   UNL     1      12.187  14.923  18.329  0.00  0.00    +0.000 A 
ATOM      7  C   UNL     1      11.866  14.387  17.087  0.00  0.00    +0.000 A 
ATOM      8  C   UNL     1      11.075  13.224  16.993  0.00  0.00    +0.000 A 
ATOM      9  C   UNL     1      10.597  12.542  18.120  0.00  0.00    +0.000 A 
ATOM     10  N   UNL     1       9.896  11.364  18.052  0.00  0.00    +0.000 NA
ENDROOT
BRANCH   1  12
ATOM     11  C   UNL     1       8.372   8.832  18.043  0.00  0.00    +0.000 C 
ATOM     12  C   UNL     1       9.014   9.340  19.122  0.00  0.00    +0.000 C 
BRANCH  11  16
ATOM     13  C   UNL     1       5.902   5.217  17.866  0.00  0.00    +0.000 A 
ATOM     14  C   UNL     1       7.050   5.308  18.660  0.00  0.00    +0.000 A 
ATOM     15  C   UNL     1       7.865   6.453  18.697  0.00  0.00    +0.000 A 
ATOM     16  C   UNL     1       7.580   7.589  17.946  0.00  0.00    +0.000 A 
ATOM     17  C   UNL     1       6.419   7.531  17.165  0.00  0.00    +0.000 A 
ATOM     18  C   UNL     1       5.604   6.376  17.125  0.00  0.00    +0.000 A 
BRANCH  13  20
ATOM     19  C   UNL     1       4.335   3.746  16.637  0.00  0.00    +0.000 C 
ATOM     20  N   UNL     1       5.097   4.079  17.837  0.00  0.00    +0.000 N 
ATOM     21  C   UNL     1       4.658   3.460  19.083  0.00  0.00    +0.000 C 
ENDBRANCH  13  20
ENDBRANCH  11  16
ENDBRANCH   1  12
BRANCH   3  22
ATOM     22  C   UNL     1       9.535  13.417  21.318  0.00  0.00    +0.000 C 
ATOM     23  C   UNL     1       8.281  13.770  21.020  0.00  0.00    +0.000 C 
BRANCH  23  24
ATOM     24  C   UNL     1       7.493  14.662  21.908  0.00  0.00    +0.000 A 
ATOM     25  C   UNL     1       6.589  14.062  22.765  0.00  0.00    +0.000 A 
ATOM     26  C   UNL     1       5.845  14.826  23.666  0.00  0.00    +0.000 A 
ATOM     27  C   UNL     1       6.003  16.216  23.800  0.00  0.00    +0.000 A 
ATOM     28  C   UNL     1       6.911  16.809  22.903  0.00  0.00    +0.000 A 
ATOM     29  C   UNL     1       7.643  16.054  21.965  0.00  0.00    +0.000 A 
BRANCH  27  30
ATOM     30  N   UNL     1       5.247  16.931  24.724  0.00  0.00    +0.000 N 
ATOM     31  C   UNL     1       5.919  17.895  25.603  0.00  0.00    +0.000 C 
ATOM     32  C   UNL     1       3.833  17.224  24.504  0.00  0.00    +0.000 C 
ENDBRANCH  27  30
ENDBRANCH  23  24
ENDBRANCH   3  22
TORSDOF 6
ENDMDL
MODEL 6
REMARK VINA RESULT:      -7.8      0.686      1.428
REMARK  Name = 
REMARK  10 active torsions:
REMARK  status: ('A' for Active; 'I' for Inactive)
REMARK    1  A    between atoms: C_1  and  N_2
REMARK    2  A    between atoms: N_2  and  C_3
REMARK    3  A    between atoms: N_2  and  C_4
REMARK    4  A    between atoms: C_7  and  C_8
REMARK    5  A    between atoms: C_9  and  C_10
REMARK    6  A    between atoms: C_12  and  C_13
REMARK    7  A    between atoms: C_14  and  C_15
REMARK    8  A    between atoms: C_18  and  N_19
REMARK    9  A    between atoms: N_19  and  C_20
REMARK   10  A    between atoms: N_19  and  C_21
REMARK                            x       y       z     vdW  Elec       q    Type
REMARK                         _______ _______ _______ _____ _____    ______ ____
ROOT
ATOM      1  C   UNL     1       9.609  10.760  19.185  0.00  0.00    +0.000 A 
ATOM      2  C   UNL     1      10.199  11.109  20.380  0.00  0.00    +0.000 A 
ATOM      3  C   UNL     1      10.529  12.437  20.570  0.00  0.00    +0.000 A 
ATOM      4  C   UNL     1      10.801  13.235  19.472  0.00  0.00    +0.000 A 
ATOM      5  C   UNL     1      11.572  14.411  19.620  0.00  0.00    +0.000 A 
ATOM      6  C   UNL     1      11.846  15.203  18.521  0.00  0.00    +0.000 A 
ATOM      7  C   UNL     1      11.294  14.849  17.295  0.00  0.00    +0.000 A 
ATOM      8  C   UNL     1      10.522  13.676  17.170  0.00  0.00    +0.000 A 
ATOM      9  C   UNL     1      10.292  12.806  18.244  0.00  0.00    +0.000 A 
ATOM     10  N   UNL     1       9.613  11.618  18.124  0.00  0.00    +0.000 NA
ENDROOT
BRANCH   1  12
ATOM     11  C   UNL     1       8.238   9.019  17.957  0.00  0.00    +0.000 C 
ATOM     12  C   UNL     1       9.000   9.412  19.006  0.00  0.00    +0.000 C 
BRANCH  11  16
ATOM     13  C   UNL     1       6.064   5.258  17.379  0.00  0.00    +0.000 A 
ATOM     14  C   UNL     1       5.667   6.459  16.781  0.00  0.00    +0.000 A 
ATOM     15  C   UNL     1       6.341   7.675  16.987  0.00  0.00    +0.000 A 
ATOM     16  C   UNL     1       7.464   7.769  17.802  0.00  0.00    +0.000 A 
ATOM     17  C   UNL     1       7.898   6.574  18.389  0.00  0.00    +0.000 A 
ATOM     18  C   UNL     1       7.215   5.353  18.183  0.00  0.00    +0.000 A 
BRANCH  13  20
ATOM     19  C   UNL     1       5.420   3.420  15.851  0.00  0.00    +0.000 C 
ATOM     20  N   UNL     1       5.394   4.055  17.166  0.00  0.00    +0.000 N 
ATOM     21  C   UNL     1       4.328   3.639  18.070  0.00  0.00    +0.000 C 
ENDBRANCH  13  20
ENDBRANCH  11  16
ENDBRANCH   1  12
BRANCH   3  22
ATOM     22  C   UNL     1       9.873  13.123  21.686  0.00  0.00    +0.000 C 
ATOM     23  C   UNL     1       8.964  12.550  22.481  0.00  0.00    +0.000 C 
BRANCH  23  24
ATOM     24  C   UNL     1       8.324  13.297  23.594  0.00  0.00    +0.000 A 
ATOM     25  C   UNL     1       7.665  14.469  23.271  0.00  0.00    +0.000 A 
ATOM     26  C   UNL     1       6.996  15.203  24.252  0.00  0.00    +0.000 A 
ATOM     27  C   UNL     1       6.901  14.783  25.588  0.00  0.00    +0.000 A 
ATOM     28  C   UNL     1       7.598  13.600  25.900  0.00  0.00    +0.000 A 
ATOM     29  C   UNL     1       8.305  12.867  24.926  0.00  0.00    +0.000 A 
BRANCH  27  30
ATOM     30  N   UNL     1       6.210  15.544  26.526  0.00  0.00    +0.000 N 
ATOM     31  C   UNL     1       4.859  16.017  26.206  0.00  0.00    +0.000 C 
ATOM     32  C   UNL     1       6.465  15.423  27.959  0.00  0.00    +0.000 C 
ENDBRANCH  27  30
ENDBRANCH  23  24
ENDBRANCH   3  22
TORSDOF 6
ENDMDL
MODEL 7
REMARK VINA RESULT:      -7.7      0.866      1.250
REMARK  Name = 
REMARK  10 active torsions:
REMARK  status: ('A' for Active; 'I' for Inactive)
REMARK    1  A    between atoms: C_1  and  N_2
REMARK    2  A    between atoms: N_2  and  C_3
REMARK    3  A    between atoms: N_2  and  C_4
REMARK    4  A    between atoms: C_7  and  C_8
REMARK    5  A    between atoms: C_9  and  C_10
REMARK    6  A    between atoms: C_12  and  C_13
REMARK    7  A    between atoms: C_14  and  C_15
REMARK    8  A    between atoms: C_18  and  N_19
REMARK    9  A    between atoms: N_19  and  C_20
REMARK   10  A    between atoms: N_19  and  C_21
REMARK                            x       y       z     vdW  Elec       q    Type
REMARK                         _______ _______ _______ _____ _____    ______ ____
ROOT
ATOM      1  C   UNL     1       9.532  10.653  19.123  0.00  0.00    +0.000 A 
ATOM      2  C   UNL     1      10.100  10.919  20.350  0.00  0.00    +0.000 A 
ATOM      3  C   UNL     1      10.425  12.231  20.635  0.00  0.00    +0.000 A 
ATOM      4  C   UNL     1      10.720  13.101  19.598  0.00  0.00    +0.000 A 
ATOM      5  C   UNL     1      11.487  14.264  19.839  0.00  0.00    +0.000 A 
ATOM      6  C   UNL     1      11.783  15.127  18.802  0.00  0.00    +0.000 A 
ATOM      7  C   UNL     1      11.255  14.856  17.544  0.00  0.00    +0.000 A 
ATOM      8  C   UNL     1      10.485  13.696  17.326  0.00  0.00    +0.000 A 
ATOM      9  C   UNL     1      10.234  12.756  18.334  0.00  0.00    +0.000 A 
ATOM     10  N   UNL     1       9.557  11.580  18.123  0.00  0.00    +0.000 NA
ENDROOT
BRANCH   1  12
ATOM     11  C   UNL     1       8.035   9.045  17.860  0.00  0.00    +0.000 C 
ATOM     12  C   UNL     1       8.927   9.321  18.842  0.00  0.00    +0.000 C 
BRANCH  11  16
ATOM     13  C   UNL     1       5.873   5.316  17.071  0.00  0.00    +0.000 A 
ATOM     14  C   UNL     1       5.419   6.561  16.622  0.00  0.00    +0.000 A 
ATOM     15  C   UNL     1       6.091   7.765  16.899  0.00  0.00    +0.000 A 
ATOM     16  C   UNL     1       7.268   7.802  17.638  0.00  0.00    +0.000 A 
ATOM     17  C   UNL     1       7.757   6.564  18.074  0.00  0.00    +0.000 A 
ATOM     18  C   UNL     1       7.077   5.355  17.799  0.00  0.00    +0.000 A 
BRANCH  13  20
ATOM     19  C   UNL     1       4.384   3.483  17.812  0.00  0.00    +0.000 C 
ATOM     20  N   UNL     1       5.204   4.127  16.789  0.00  0.00    +0.000 N 
ATOM     21  C   UNL     1       5.633   3.290  15.675  0.00  0.00    +0.000 C 
ENDBRANCH  13  20
ENDBRANCH  11  16
ENDBRANCH   1  12
BRANCH   3  22
ATOM     22  C   UNL     1       9.748  12.842  21.781  0.00  0.00    +0.000 C 
ATOM     23  C   UNL     1       8.788  12.237  22.487  0.00  0.00    +0.000 C 
BRANCH  23  24
ATOM     24  C   UNL     1       8.129  12.908  23.636  0.00  0.00    +0.000 A 
ATOM     25  C   UNL     1       8.387  12.401  24.896  0.00  0.00    +0.000 A 
ATOM     26  C   UNL     1       7.845  13.005  26.033  0.00  0.00    +0.000 A 
ATOM     27  C   UNL     1       7.068  14.174  25.978  0.00  0.00    +0.000 A 
ATOM     28  C   UNL     1       6.799  14.660  24.685  0.00  0.00    +0.000 A 
ATOM     29  C   UNL     1       7.311  14.040  23.528  0.00  0.00    +0.000 A 
BRANCH  27  30
ATOM     30  N   UNL     1       6.562  14.746  27.141  0.00  0.00    +0.000 N 
ATOM     31  C   UNL     1       6.097  16.137  27.110  0.00  0.00    +0.000 C 
ATOM     32  C   UNL     1       5.937  13.943  28.189  0.00  0.00    +0.000 C 
ENDBRANCH  27  30
ENDBRANCH  23  24
ENDBRANCH   3  22
TORSDOF 6
ENDMDL
MODEL 8
REMARK VINA RESULT:      -7.6      1.061      1.569
REMARK  Name = 
REMARK  10 active torsions:
REMARK  status: ('A' for Active; 'I' for Inactive)
REMARK    1  A    between atoms: C_1  and  N_2
REMARK    2  A    between atoms: N_2  and  C_3
REMARK    3  A    between atoms: N_2  and  C_4
REMARK    4  A    between atoms: C_7  and  C_8
REMARK    5  A    between atoms: C_9  and  C_10
REMARK    6  A    between atoms: C_12  and  C_13
REMARK    7  A    between atoms: C_14  and  C_15
REMARK    8  A    between atoms: C_18  and  N_19
REMARK    9  A    between atoms: N_19  and  C_20
REMARK   10  A    between atoms: N_19  and  C_21
REMARK                            x       y       z     vdW  Elec       q    Type
REMARK                         _______ _______ _______ _____ _____    ______ ____
ROOT
ATOM      1  C   UNL     1       9.266  11.193  18.473  0.00  0.00    +0.000 A 
ATOM      2  C   UNL     1       9.804  11.171  19.741  0.00  0.00    +0.000 A 
ATOM      3  C   UNL     1      10.354  12.342  20.225  0.00  0.00    +0.000 A 
ATOM      4  C   UNL     1      10.863  13.274  19.336  0.00  0.00    +0.000 A 
ATOM      5  C   UNL     1      11.820  14.221  19.767  0.00  0.00    +0.000 A 
ATOM      6  C   UNL     1      12.330  15.147  18.876  0.00  0.00    +0.000 A 
ATOM      7  C   UNL     1      11.830  15.161  17.578  0.00  0.00    +0.000 A 
ATOM      8  C   UNL     1      10.870  14.213  17.171  0.00  0.00    +0.000 A 
ATOM      9  C   UNL     1      10.391  13.209  18.022  0.00  0.00    +0.000 A 
ATOM     10  N   UNL     1       9.519  12.227  17.621  0.00  0.00    +0.000 NA
ENDROOT
BRANCH   1  12
ATOM     11  C   UNL     1       8.381   8.819  18.535  0.00  0.00    +0.000 C 
ATOM     12  C   UNL     1       8.438  10.055  17.983  0.00  0.00    +0.000 C 
BRANCH  11  16
ATOM     13  C   UNL     1       6.601   5.163  16.901  0.00  0.00    +0.000 A 
ATOM     14  C   UNL     1       6.506   6.402  16.257  0.00  0.00    +0.000 A 
ATOM     15  C   UNL     1       7.048   7.584  16.791  0.00  0.00    +0.000 A 
ATOM     16  C   UNL     1       7.728   7.605  18.004  0.00  0.00    +0.000 A 
ATOM     17  C   UNL     1       7.859   6.371  18.654  0.00  0.00    +0.000 A 
ATOM     18  C   UNL     1       7.309   5.184  18.117  0.00  0.00    +0.000 A 
BRANCH  13  20
ATOM     19  C   UNL     1       6.177   3.724  14.933  0.00  0.00    +0.000 C 
ATOM     20  N   UNL     1       6.065   3.995  16.363  0.00  0.00    +0.000 N 
ATOM     21  C   UNL     1       5.037   3.256  17.089  0.00  0.00    +0.000 C 
ENDBRANCH  13  20
ENDBRANCH  11  16
ENDBRANCH   1  12
BRANCH   3  22
ATOM     22  C   UNL     1       9.741  12.907  21.430  0.00  0.00    +0.000 C 
ATOM     23  C   UNL     1       9.173  12.171  22.390  0.00  0.00    +0.000 C 
BRANCH  23  24
ATOM     24  C   UNL     1       8.558  12.798  23.588  0.00  0.00    +0.000 A 
ATOM     25  C   UNL     1       7.765  11.994  24.384  0.00  0.00    +0.000 A 
ATOM     26  C   UNL     1       7.190  12.495  25.555  0.00  0.00    +0.000 A 
ATOM     27  C   UNL     1       7.421  13.800  26.020  0.00  0.00    +0.000 A 
ATOM     28  C   UNL     1       8.213  14.608  25.183  0.00  0.00    +0.000 A 
ATOM     29  C   UNL     1       8.770  14.125  23.982  0.00  0.00    +0.000 A 
BRANCH  27  30
ATOM     30  N   UNL     1       6.836  14.247  27.201  0.00  0.00    +0.000 N 
ATOM     31  C   UNL     1       6.571  15.680  27.369  0.00  0.00    +0.000 C 
ATOM     32  C   UNL     1       5.966  13.392  28.005  0.00  0.00    +0.000 C 
ENDBRANCH  27  30
ENDBRANCH  23  24
ENDBRANCH   3  22
TORSDOF 6
ENDMDL
MODEL 9
REMARK VINA RESULT:      -7.6      1.599      2.020
REMARK  Name = 
REMARK  10 active torsions:
REMARK  status: ('A' for Active; 'I' for Inactive)
REMARK    1  A    between atoms: C_1  and  N_2
REMARK    2  A    between atoms: N_2  and  C_3
REMARK    3  A    between atoms: N_2  and  C_4
REMARK    4  A    between atoms: C_7  and  C_8
REMARK    5  A    between atoms: C_9  and  C_10
REMARK    6  A    between atoms: C_12  and  C_13
REMARK    7  A    between atoms: C_14  and  C_15
REMARK    8  A    between atoms: C_18  and  N_19
REMARK    9  A    between atoms: N_19  and  C_20
REMARK   10  A    between atoms: N_19  and  C_21
REMARK                            x       y       z     vdW  Elec       q    Type
REMARK                         _______ _______ _______ _____ _____    ______ ____
ROOT
ATOM      1  C   UNL     1       9.325  10.736  18.972  0.00  0.00    +0.000 A 
ATOM      2  C   UNL     1      10.071  10.853  20.125  0.00  0.00    +0.000 A 
ATOM      3  C   UNL     1      10.213  12.114  20.672  0.00  0.00    +0.000 A 
ATOM      4  C   UNL     1      10.138  13.226  19.849  0.00  0.00    +0.000 A 
ATOM      5  C   UNL     1      10.724  14.449  20.250  0.00  0.00    +0.000 A 
ATOM      6  C   UNL     1      10.652  15.555  19.425  0.00  0.00    +0.000 A 
ATOM      7  C   UNL     1       9.938  15.449  18.236  0.00  0.00    +0.000 A 
ATOM      8  C   UNL     1       9.355  14.222  17.859  0.00  0.00    +0.000 A 
ATOM      9  C   UNL     1       9.478  13.059  18.630  0.00  0.00    +0.000 A 
ATOM     10  N   UNL     1       8.988  11.837  18.240  0.00  0.00    +0.000 NA
ENDROOT
BRANCH   1  12
ATOM     11  C   UNL     1       7.727   9.090  17.898  0.00  0.00    +0.000 C 
ATOM     12  C   UNL     1       8.918   9.395  18.467  0.00  0.00    +0.000 C 
BRANCH  11  16
ATOM     13  C   UNL     1       6.020   5.163  16.962  0.00  0.00    +0.000 A 
ATOM     14  C   UNL     1       7.167   5.320  17.748  0.00  0.00    +0.000 A 
ATOM     15  C   UNL     1       7.738   6.574  18.026  0.00  0.00    +0.000 A 
ATOM     16  C   UNL     1       7.194   7.758  17.541  0.00  0.00    +0.000 A 
ATOM     17  C   UNL     1       6.029   7.629  16.774  0.00  0.00    +0.000 A 
ATOM     18  C   UNL     1       5.459   6.366  16.492  0.00  0.00    +0.000 A 
BRANCH  13  20
ATOM     19  C   UNL     1       5.650   3.286  15.391  0.00  0.00    +0.000 C 
ATOM     20  N   UNL     1       5.458   3.917  16.694  0.00  0.00    +0.000 N 
ATOM     21  C   UNL     1       4.344   3.426  17.499  0.00  0.00    +0.000 C 
ENDBRANCH  13  20
ENDBRANCH  11  16
ENDBRANCH   1  12
BRANCH   3  22
ATOM     22  C   UNL     1       9.682  12.308  22.023  0.00  0.00    +0.000 C 
ATOM     23  C   UNL     1       8.394  12.156  22.346  0.00  0.00    +0.000 C 
BRANCH  23  24
ATOM     24  C   UNL     1       7.909  12.374  23.732  0.00  0.00    +0.000 A 
ATOM     25  C   UNL     1       6.971  11.483  24.220  0.00  0.00    +0.000 A 
ATOM     26  C   UNL     1       6.501  11.590  25.531  0.00  0.00    +0.000 A 
ATOM     27  C   UNL     1       6.981  12.550  26.438  0.00  0.00    +0.000 A 
ATOM     28  C   UNL     1       7.918  13.460  25.914  0.00  0.00    +0.000 A 
ATOM     29  C   UNL     1       8.375  13.384  24.583  0.00  0.00    +0.000 A 
BRANCH  27  30
ATOM     30  N   UNL     1       6.490  12.606  27.738  0.00  0.00    +0.000 N 
ATOM     31  C   UNL     1       6.893  11.573  28.699  0.00  0.00    +0.000 C 
ATOM     32  C   UNL     1       6.100  13.867  28.364  0.00  0.00    +0.000 C 
ENDBRANCH  27  30
ENDBRANCH  23  24
ENDBRANCH   3  22
TORSDOF 6
ENDMDL
