MODEL 1
REMARK VINA RESULT:      -7.3      0.000      0.000
REMARK  Name = 
REMARK  0 active torsions:
REMARK  status: ('A' for Active; 'I' for Inactive)
REMARK                            x       y       z     vdW  Elec       q    Type
REMARK                         _______ _______ _______ _____ _____    ______ ____
ROOT
ATOM      1  N   UNL     1       3.641   1.697  17.936  0.00  0.00    +0.000 NA
ATOM      2  C   UNL     1       3.365   2.896  18.327  0.00  0.00    +0.000 A 
ATOM      3  C   UNL     1       3.921   4.116  17.734  0.00  0.00    +0.000 A 
ATOM      4  C   UNL     1       4.816   4.331  16.618  0.00  0.00    +0.000 A 
ATOM      5  C   UNL     1       4.941   5.685  16.344  0.00  0.00    +0.000 A 
ATOM      6  S   UNL     1       4.132   6.674  17.457  0.00  0.00    +0.000 S 
ATOM      7  C   UNL     1       3.635   5.328  18.375  0.00  0.00    +0.000 A 
ATOM      8  N   UNL     1       3.073   5.506  19.613  0.00  0.00    +0.000 NA
ATOM      9  C   UNL     1       2.598   4.390  20.067  0.00  0.00    +0.000 A 
ATOM     10  N   UNL     1       2.530   3.200  19.376  0.00  0.00    +0.000 N 
ATOM     11  C   UNL     1       1.818   2.215  20.166  0.00  0.00    +0.000 C 
ATOM     12  C   UNL     1       2.217   2.651  21.571  0.00  0.00    +0.000 C 
ATOM     13  C   UNL     1       2.166   4.187  21.495  0.00  0.00    +0.000 C 
ATOM     14  C   UNL     1       5.717   6.275  15.208  0.00  0.00    +0.000 C 
ATOM     15  C   UNL     1       6.800   5.295  14.745  0.00  0.00    +0.000 C 
ATOM     16  C   UNL     1       6.228   3.888  14.554  0.00  0.00    +0.000 C 
ATOM     17  C   UNL     1       5.616   3.320  15.844  0.00  0.00    +0.000 C 
ATOM     18  H   UNL     1       4.331   1.711  17.185  0.00  0.00    +0.000 HD
ENDROOT
TORSDOF 0
ENDMDL
MODEL 2
REMARK VINA RESULT:      -7.0      2.335      2.684
REMARK  Name = 
REMARK  0 active torsions:
REMARK  status: ('A' for Active; 'I' for Inactive)
REMARK                            x       y       z     vdW  Elec       q    Type
REMARK                         _______ _______ _______ _____ _____    ______ ____
ROOT
ATOM      1  N   UNL     1       5.101   2.692  19.798  0.00  0.00    +0.000 NA
ATOM      2  C   UNL     1       4.362   3.380  18.992  0.00  0.00    +0.000 A 
ATOM      3  C   UNL     1       4.757   4.652  18.381  0.00  0.00    +0.000 A 
ATOM      4  C   UNL     1       5.981   5.421  18.445  0.00  0.00    +0.000 A 
ATOM      5  C   UNL     1       5.930   6.497  17.571  0.00  0.00    +0.000 A 
ATOM      6  S   UNL     1       4.430   6.667  16.800  0.00  0.00    +0.000 S 
ATOM      7  C   UNL     1       3.781   5.342  17.651  0.00  0.00    +0.000 A 
ATOM      8  N   UNL     1       2.434   5.088  17.609  0.00  0.00    +0.000 NA
ATOM      9  C   UNL     1       2.164   3.947  18.160  0.00  0.00    +0.000 A 
ATOM     10  N   UNL     1       3.088   3.032  18.615  0.00  0.00    +0.000 N 
ATOM     11  C   UNL     1       2.409   1.824  19.044  0.00  0.00    +0.000 C 
ATOM     12  C   UNL     1       1.099   2.414  19.554  0.00  0.00    +0.000 C 
ATOM     13  C   UNL     1       0.771   3.502  18.517  0.00  0.00    +0.000 C 
ATOM     14  C   UNL     1       7.046   7.459  17.309  0.00  0.00    +0.000 C 
ATOM     15  C   UNL     1       8.012   7.482  18.498  0.00  0.00    +0.000 C 
ATOM     16  C   UNL     1       8.390   6.062  18.931  0.00  0.00    +0.000 C 
ATOM     17  C   UNL     1       7.169   5.228  19.347  0.00  0.00    +0.000 C 
ATOM     18  H   UNL     1       5.980   3.173  19.983  0.00  0.00    +0.000 HD
ENDROOT
TORSDOF 0
ENDMDL
MODEL 3
REMARK VINA RESULT:      -7.0      1.370      1.408
REMARK  Name = 
REMARK  0 active torsions:
REMARK  status: ('A' for Active; 'I' for Inactive)
REMARK                            x       y       z     vdW  Elec       q    Type
REMARK                         _______ _______ _______ _____ _____    ______ ____
ROOT
ATOM      1  N   UNL     1       1.937   3.363  17.049  0.00  0.00    +0.000 NA
ATOM      2  C   UNL     1       2.584   3.895  18.032  0.00  0.00    +0.000 A 
ATOM      3  C   UNL     1       3.946   4.429  17.941  0.00  0.00    +0.000 A 
ATOM      4  C   UNL     1       4.867   4.554  16.833  0.00  0.00    +0.000 A 
ATOM      5  C   UNL     1       5.997   5.264  17.212  0.00  0.00    +0.000 A 
ATOM      6  S   UNL     1       6.025   5.651  18.862  0.00  0.00    +0.000 S 
ATOM      7  C   UNL     1       4.556   4.834  19.135  0.00  0.00    +0.000 A 
ATOM      8  N   UNL     1       4.124   4.600  20.415  0.00  0.00    +0.000 NA
ATOM      9  C   UNL     1       2.914   4.138  20.415  0.00  0.00    +0.000 A 
ATOM     10  N   UNL     1       2.098   4.012  19.312  0.00  0.00    +0.000 N 
ATOM     11  C   UNL     1       0.776   3.584  19.727  0.00  0.00    +0.000 C 
ATOM     12  C   UNL     1       1.135   2.726  20.936  0.00  0.00    +0.000 C 
ATOM     13  C   UNL     1       2.253   3.529  21.623  0.00  0.00    +0.000 C 
ATOM     14  C   UNL     1       7.122   5.658  16.307  0.00  0.00    +0.000 C 
ATOM     15  C   UNL     1       7.174   4.723  15.094  0.00  0.00    +0.000 C 
ATOM     16  C   UNL     1       5.788   4.555  14.466  0.00  0.00    +0.000 C 
ATOM     17  C   UNL     1       4.761   3.972  15.450  0.00  0.00    +0.000 C 
ATOM     18  H   UNL     1       2.516   3.326  16.211  0.00  0.00    +0.000 HD
ENDROOT
TORSDOF 0
ENDMDL
MODEL 4
REMARK VINA RESULT:      -6.8      2.025      2.113
REMARK  Name = 
REMARK  0 active torsions:
REMARK  status: ('A' for Active; 'I' for Inactive)
REMARK                            x       y       z     vdW  Elec       q    Type
REMARK                         _______ _______ _______ _____ _____    ______ ____
ROOT
ATOM      1  N   UNL     1       4.986   2.648  19.637  0.00  0.00    +0.000 NA
ATOM      2  C   UNL     1       4.076   3.495  19.290  0.00  0.00    +0.000 A 
ATOM      3  C   UNL     1       4.342   4.815  18.710  0.00  0.00    +0.000 A 
ATOM      4  C   UNL     1       5.572   5.483  18.342  0.00  0.00    +0.000 A 
ATOM      5  C   UNL     1       5.305   6.677  17.689  0.00  0.00    +0.000 A 
ATOM      6  S   UNL     1       3.654   7.059  17.634  0.00  0.00    +0.000 S 
ATOM      7  C   UNL     1       3.247   5.669  18.531  0.00  0.00    +0.000 A 
ATOM      8  N   UNL     1       1.977   5.514  19.025  0.00  0.00    +0.000 NA
ATOM      9  C   UNL     1       1.815   4.325  19.512  0.00  0.00    +0.000 A 
ATOM     10  N   UNL     1       2.725   3.293  19.442  0.00  0.00    +0.000 N 
ATOM     11  C   UNL     1       2.136   2.083  19.981  0.00  0.00    +0.000 C 
ATOM     12  C   UNL     1       1.224   2.677  21.050  0.00  0.00    +0.000 C 
ATOM     13  C   UNL     1       0.641   3.926  20.366  0.00  0.00    +0.000 C 
ATOM     14  C   UNL     1       6.329   7.591  17.092  0.00  0.00    +0.000 C 
ATOM     15  C   UNL     1       7.687   7.373  17.768  0.00  0.00    +0.000 C 
ATOM     16  C   UNL     1       8.031   5.883  17.849  0.00  0.00    +0.000 C 
ATOM     17  C   UNL     1       6.989   5.079  18.643  0.00  0.00    +0.000 C 
ATOM     18  H   UNL     1       5.917   3.037  19.491  0.00  0.00    +0.000 HD
ENDROOT
TORSDOF 0
ENDMDL
MODEL 5
REMARK VINA RESULT:      -6.6      2.787      5.469
REMARK  Name = 
REMARK  0 active torsions:
REMARK  status: ('A' for Active; 'I' for Inactive)
REMARK                            x       y       z     vdW  Elec       q    Type
REMARK                         _______ _______ _______ _____ _____    ______ ____
ROOT
ATOM      1  N   UNL     1       4.277   6.691  16.555  0.00  0.00    +0.000 NA
ATOM      2  C   UNL     1       5.022   5.982  17.336  0.00  0.00    +0.000 A 
ATOM      3  C   UNL     1       4.538   4.885  18.179  0.00  0.00    +0.000 A 
ATOM      4  C   UNL     1       3.228   4.291  18.341  0.00  0.00    +0.000 A 
ATOM      5  C   UNL     1       3.296   3.169  19.155  0.00  0.00    +0.000 A 
ATOM      6  S   UNL     1       4.836   2.909  19.814  0.00  0.00    +0.000 S 
ATOM      7  C   UNL     1       5.449   4.318  19.078  0.00  0.00    +0.000 A 
ATOM      8  N   UNL     1       6.685   4.796  19.428  0.00  0.00    +0.000 NA
ATOM      9  C   UNL     1       7.048   5.756  18.637  0.00  0.00    +0.000 A 
ATOM     10  N   UNL     1       6.371   6.173  17.512  0.00  0.00    +0.000 N 
ATOM     11  C   UNL     1       7.152   7.177  16.816  0.00  0.00    +0.000 C 
ATOM     12  C   UNL     1       7.847   7.848  17.996  0.00  0.00    +0.000 C 
ATOM     13  C   UNL     1       8.214   6.667  18.911  0.00  0.00    +0.000 C 
ATOM     14  C   UNL     1       2.154   2.256  19.475  0.00  0.00    +0.000 C 
ATOM     15  C   UNL     1       0.823   2.993  19.293  0.00  0.00    +0.000 C 
ATOM     16  C   UNL     1       0.781   3.735  17.954  0.00  0.00    +0.000 C 
ATOM     17  C   UNL     1       1.903   4.775  17.820  0.00  0.00    +0.000 C 
ATOM     18  H   UNL     1       3.300   6.412  16.634  0.00  0.00    +0.000 HD
ENDROOT
TORSDOF 0
ENDMDL
MODEL 6
REMARK VINA RESULT:      -6.6      3.021      5.312
REMARK  Name = 
REMARK  0 active torsions:
REMARK  status: ('A' for Active; 'I' for Inactive)
REMARK                            x       y       z     vdW  Elec       q    Type
REMARK                         _______ _______ _______ _____ _____    ______ ____
ROOT
ATOM      1  N   UNL     1       2.441   4.745  21.436  0.00  0.00    +0.000 NA
ATOM      2  C   UNL     1       2.848   5.087  20.259  0.00  0.00    +0.000 A 
ATOM      3  C   UNL     1       2.530   6.359  19.605  0.00  0.00    +0.000 A 
ATOM      4  C   UNL     1       1.786   7.518  20.047  0.00  0.00    +0.000 A 
ATOM      5  C   UNL     1       1.882   8.546  19.120  0.00  0.00    +0.000 A 
ATOM      6  S   UNL     1       2.716   8.105  17.712  0.00  0.00    +0.000 S 
ATOM      7  C   UNL     1       2.925   6.509  18.270  0.00  0.00    +0.000 A 
ATOM      8  N   UNL     1       3.387   5.536  17.421  0.00  0.00    +0.000 NA
ATOM      9  C   UNL     1       3.652   4.447  18.070  0.00  0.00    +0.000 A 
ATOM     10  N   UNL     1       3.614   4.294  19.439  0.00  0.00    +0.000 N 
ATOM     11  C   UNL     1       4.100   2.976  19.797  0.00  0.00    +0.000 C 
ATOM     12  C   UNL     1       3.635   2.175  18.585  0.00  0.00    +0.000 C 
ATOM     13  C   UNL     1       3.913   3.122  17.405  0.00  0.00    +0.000 C 
ATOM     14  C   UNL     1       1.310   9.920  19.281  0.00  0.00    +0.000 C 
ATOM     15  C   UNL     1       0.147   9.893  20.278  0.00  0.00    +0.000 C 
ATOM     16  C   UNL     1       0.528   9.133  21.551  0.00  0.00    +0.000 C 
ATOM     17  C   UNL     1       0.926   7.675  21.271  0.00  0.00    +0.000 C 
ATOM     18  H   UNL     1       1.835   5.462  21.833  0.00  0.00    +0.000 HD
ENDROOT
TORSDOF 0
ENDMDL
MODEL 7
REMARK VINA RESULT:      -6.5      2.669      5.805
REMARK  Name = 
REMARK  0 active torsions:
REMARK  status: ('A' for Active; 'I' for Inactive)
REMARK                            x       y       z     vdW  Elec       q    Type
REMARK                         _______ _______ _______ _____ _____    ______ ____
ROOT
ATOM      1  N   UNL     1       3.361   6.968  17.957  0.00  0.00    +0.000 NA
ATOM      2  C   UNL     1       4.274   6.072  18.135  0.00  0.00    +0.000 A 
ATOM      3  C   UNL     1       4.090   4.838  18.904  0.00  0.00    +0.000 A 
ATOM      4  C   UNL     1       2.942   4.281  19.587  0.00  0.00    +0.000 A 
ATOM      5  C   UNL     1       3.221   3.006  20.056  0.00  0.00    +0.000 A 
ATOM      6  S   UNL     1       4.833   2.538  19.814  0.00  0.00    +0.000 S 
ATOM      7  C   UNL     1       5.224   4.047  19.125  0.00  0.00    +0.000 A 
ATOM      8  N   UNL     1       6.534   4.381  18.896  0.00  0.00    +0.000 NA
ATOM      9  C   UNL     1       6.616   5.475  18.207  0.00  0.00    +0.000 A 
ATOM     10  N   UNL     1       5.557   6.160  17.652  0.00  0.00    +0.000 N 
ATOM     11  C   UNL     1       6.053   7.257  16.845  0.00  0.00    +0.000 C 
ATOM     12  C   UNL     1       7.313   7.620  17.624  0.00  0.00    +0.000 C 
ATOM     13  C   UNL     1       7.892   6.251  18.022  0.00  0.00    +0.000 C 
ATOM     14  C   UNL     1       2.247   2.096  20.735  0.00  0.00    +0.000 C 
ATOM     15  C   UNL     1       1.112   2.912  21.362  0.00  0.00    +0.000 C 
ATOM     16  C   UNL     1       0.551   3.933  20.368  0.00  0.00    +0.000 C 
ATOM     17  C   UNL     1       1.616   4.927  19.879  0.00  0.00    +0.000 C 
ATOM     18  H   UNL     1       2.509   6.722  18.458  0.00  0.00    +0.000 HD
ENDROOT
TORSDOF 0
ENDMDL
MODEL 8
REMARK VINA RESULT:      -6.3      2.008      5.684
REMARK  Name = 
REMARK  0 active torsions:
REMARK  status: ('A' for Active; 'I' for Inactive)
REMARK                            x       y       z     vdW  Elec       q    Type
REMARK                         _______ _______ _______ _____ _____    ______ ____
ROOT
ATOM      1  N   UNL     1       6.113   4.945  19.651  0.00  0.00    +0.000 NA
ATOM      2  C   UNL     1       5.383   4.852  18.590  0.00  0.00    +0.000 A 
ATOM      3  C   UNL     1       4.010   4.340  18.566  0.00  0.00    +0.000 A 
ATOM      4  C   UNL     1       3.128   3.878  19.616  0.00  0.00    +0.000 A 
ATOM      5  C   UNL     1       1.859   3.627  19.115  0.00  0.00    +0.000 A 
ATOM      6  S   UNL     1       1.753   3.802  17.432  0.00  0.00    +0.000 S 
ATOM      7  C   UNL     1       3.414   4.166  17.311  0.00  0.00    +0.000 A 
ATOM      8  N   UNL     1       4.022   4.211  16.083  0.00  0.00    +0.000 NA
ATOM      9  C   UNL     1       5.226   4.678  16.184  0.00  0.00    +0.000 A 
ATOM     10  N   UNL     1       5.800   5.193  17.326  0.00  0.00    +0.000 N 
ATOM     11  C   UNL     1       7.107   5.737  17.015  0.00  0.00    +0.000 C 
ATOM     12  C   UNL     1       7.535   4.795  15.895  0.00  0.00    +0.000 C 
ATOM     13  C   UNL     1       6.245   4.602  15.078  0.00  0.00    +0.000 C 
ATOM     14  C   UNL     1       0.669   3.215  19.924  0.00  0.00    +0.000 C 
ATOM     15  C   UNL     1       1.123   2.555  21.230  0.00  0.00    +0.000 C 
ATOM     16  C   UNL     1       2.198   3.393  21.928  0.00  0.00    +0.000 C 
ATOM     17  C   UNL     1       3.447   3.594  21.058  0.00  0.00    +0.000 C 
ATOM     18  H   UNL     1       5.621   4.577  20.464  0.00  0.00    +0.000 HD
ENDROOT
TORSDOF 0
ENDMDL
MODEL 9
REMARK VINA RESULT:      -6.3      1.942      5.866
REMARK  Name = 
REMARK  0 active torsions:
REMARK  status: ('A' for Active; 'I' for Inactive)
REMARK                            x       y       z     vdW  Elec       q    Type
REMARK                         _______ _______ _______ _____ _____    ______ ____
ROOT
ATOM      1  N   UNL     1       3.785   6.904  17.755  0.00  0.00    +0.000 NA
ATOM      2  C   UNL     1       4.087   5.730  17.307  0.00  0.00    +0.000 A 
ATOM      3  C   UNL     1       3.610   4.471  17.885  0.00  0.00    +0.000 A 
ATOM      4  C   UNL     1       2.715   4.185  18.985  0.00  0.00    +0.000 A 
ATOM      5  C   UNL     1       2.452   2.825  19.063  0.00  0.00    +0.000 A 
ATOM      6  S   UNL     1       3.344   1.903  17.954  0.00  0.00    +0.000 S 
ATOM      7  C   UNL     1       4.152   3.285  17.372  0.00  0.00    +0.000 A 
ATOM      8  N   UNL     1       5.233   3.153  16.539  0.00  0.00    +0.000 NA
ATOM      9  C   UNL     1       5.591   4.303  16.064  0.00  0.00    +0.000 A 
ATOM     10  N   UNL     1       4.921   5.494  16.242  0.00  0.00    +0.000 N 
ATOM     11  C   UNL     1       5.551   6.533  15.450  0.00  0.00    +0.000 C 
ATOM     12  C   UNL     1       7.002   6.067  15.496  0.00  0.00    +0.000 C 
ATOM     13  C   UNL     1       6.892   4.540  15.345  0.00  0.00    +0.000 C 
ATOM     14  C   UNL     1       1.505   2.174  20.022  0.00  0.00    +0.000 C 
ATOM     15  C   UNL     1       1.308   3.066  21.253  0.00  0.00    +0.000 C 
ATOM     16  C   UNL     1       1.019   4.513  20.846  0.00  0.00    +0.000 C 
ATOM     17  C   UNL     1       2.152   5.129  20.011  0.00  0.00    +0.000 C 
ATOM     18  H   UNL     1       3.204   6.835  18.589  0.00  0.00    +0.000 HD
ENDROOT
TORSDOF 0
ENDMDL
