MODEL 1
REMARK VINA RESULT:      -8.5      0.000      0.000
REMARK  Name = 
REMARK  9 active torsions:
REMARK  status: ('A' for Active; 'I' for Inactive)
REMARK    1  A    between atoms: C_1  and  O_2
REMARK    2  A    between atoms: O_2  and  C_3
REMARK    3  A    between atoms: C_9  and  N_10
REMARK    4  A    between atoms: C_11  and  C_13
REMARK    5  A    between atoms: C_14  and  N_15
REMARK    6  A    between atoms: N_15  and  C_16
REMARK    7  A    between atoms: C_16  and  C_17
REMARK    8  A    between atoms: C_20  and  C_21
REMARK    9  A    between atoms: C_28  and  C_29
REMARK                            x       y       z     vdW  Elec       q    Type
REMARK                         _______ _______ _______ _____ _____    ______ ____
ROOT
ATOM      1  C   UNL     1       2.298   7.764  19.176  0.00  0.00    +0.000 A 
ATOM      2  C   UNL     1       1.946   7.057  20.342  0.00  0.00    +0.000 A 
ATOM      3  S   UNL     1       0.929   7.993  21.373  0.00  0.00    +0.000 S 
ATOM      4  C   UNL     1       0.883   9.285  20.297  0.00  0.00    +0.000 A 
ATOM      5  C   UNL     1       1.625   9.068  19.155  0.00  0.00    +0.000 A 
ATOM      6  C   UNL     1       1.691  10.113  18.075  0.00  0.00    +0.000 C 
ATOM      7  C   UNL     1       1.069  11.458  18.484  0.00  0.00    +0.000 C 
ATOM      8  C   UNL     1      -0.210  11.305  19.329  0.00  0.00    +0.000 C 
ATOM      9  C   UNL     1      -1.345  10.621  18.553  0.00  0.00    +0.000 C 
ATOM     10  C   UNL     1       0.120  10.534  20.621  0.00  0.00    +0.000 C 
ENDROOT
BRANCH   1  12
ATOM     11  N   UNL     1       4.108   6.200  18.569  0.00  0.00    +0.000 N 
ATOM     12  C   UNL     1       3.296   7.276  18.192  0.00  0.00    +0.000 C 
ATOM     13  O   UNL     1       3.348   7.778  17.072  0.00  0.00    +0.000 OA
ATOM     14  H   UNL     1       3.934   5.731  19.444  0.00  0.00    +0.000 HD
BRANCH  11  21
ATOM     15  C   UNL     1       6.379   5.289  18.284  0.00  0.00    +0.000 A 
ATOM     16  C   UNL     1       7.318   4.606  17.489  0.00  0.00    +0.000 A 
ATOM     17  C   UNL     1       7.028   4.270  16.168  0.00  0.00    +0.000 A 
ATOM     18  C   UNL     1       5.793   4.610  15.633  0.00  0.00    +0.000 A 
ATOM     19 CL   UNL     1       5.453   4.242  13.987  0.00  0.00    +0.000 Cl
ATOM     20  C   UNL     1       4.840   5.250  16.412  0.00  0.00    +0.000 A 
ATOM     21  C   UNL     1       5.099   5.576  17.751  0.00  0.00    +0.000 A 
BRANCH  15  23
ATOM     22  C   UNL     1       8.013   5.616  19.980  0.00  0.00    +0.000 C 
ATOM     23  O   UNL     1       6.636   5.669  19.584  0.00  0.00    +0.000 OA
ENDBRANCH  15  23
ENDBRANCH  11  21
ENDBRANCH   1  12
BRANCH   2  24
ATOM     24  N   UNL     1       2.246   5.817  20.832  0.00  0.00    +0.000 N 
ATOM     25  H   UNL     1       2.666   5.796  21.762  0.00  0.00    +0.000 HD
BRANCH  24  26
ATOM     26  C   UNL     1       1.456   4.629  20.564  0.00  0.00    +0.000 C 
BRANCH  26  27
ATOM     27  C   UNL     1       1.902   3.821  19.382  0.00  0.00    +0.000 A 
ATOM     28  C   UNL     1       1.522   3.822  18.055  0.00  0.00    +0.000 A 
ATOM     29  C   UNL     1       2.239   2.777  17.428  0.00  0.00    +0.000 A 
ATOM     30  C   UNL     1       3.029   2.209  18.404  0.00  0.00    +0.000 A 
ATOM     31  C   UNL     1       3.989   1.087  18.396  0.00  0.00    +0.000 C 
ATOM     32  O   UNL     1       2.835   2.845  19.596  0.00  0.00    +0.000 OA
ENDBRANCH  26  27
ENDBRANCH  24  26
ENDBRANCH   2  24
TORSDOF 6
ENDMDL
MODEL 2
REMARK VINA RESULT:      -8.5      3.007      7.176
REMARK  Name = 
REMARK  9 active torsions:
REMARK  status: ('A' for Active; 'I' for Inactive)
REMARK    1  A    between atoms: C_1  and  O_2
REMARK    2  A    between atoms: O_2  and  C_3
REMARK    3  A    between atoms: C_9  and  N_10
REMARK    4  A    between atoms: C_11  and  C_13
REMARK    5  A    between atoms: C_14  and  N_15
REMARK    6  A    between atoms: N_15  and  C_16
REMARK    7  A    between atoms: C_16  and  C_17
REMARK    8  A    between atoms: C_20  and  C_21
REMARK    9  A    between atoms: C_28  and  C_29
REMARK                            x       y       z     vdW  Elec       q    Type
REMARK                         _______ _______ _______ _____ _____    ______ ____
ROOT
ATOM      1  C   UNL     1       3.011   6.187  18.071  0.00  0.00    +0.000 A 
ATOM      2  C   UNL     1       4.051   5.710  17.249  0.00  0.00    +0.000 A 
ATOM      3  S   UNL     1       4.467   4.080  17.627  0.00  0.00    +0.000 S 
ATOM      4  C   UNL     1       3.269   3.958  18.802  0.00  0.00    +0.000 A 
ATOM      5  C   UNL     1       2.539   5.118  18.957  0.00  0.00    +0.000 A 
ATOM      6  C   UNL     1       1.418   5.188  19.959  0.00  0.00    +0.000 C 
ATOM      7  C   UNL     1       1.353   3.969  20.892  0.00  0.00    +0.000 C 
ATOM      8  C   UNL     1       1.665   2.639  20.181  0.00  0.00    +0.000 C 
ATOM      9  C   UNL     1       0.632   2.299  19.096  0.00  0.00    +0.000 C 
ATOM     10  C   UNL     1       3.087   2.696  19.592  0.00  0.00    +0.000 C 
ENDROOT
BRANCH   1  12
ATOM     11  N   UNL     1       1.873   8.052  19.218  0.00  0.00    +0.000 N 
ATOM     12  C   UNL     1       2.562   7.602  18.086  0.00  0.00    +0.000 C 
ATOM     13  O   UNL     1       2.848   8.345  17.152  0.00  0.00    +0.000 OA
ATOM     14  H   UNL     1       1.784   7.446  20.018  0.00  0.00    +0.000 HD
BRANCH  11  21
ATOM     15  C   UNL     1       0.423   9.635  20.427  0.00  0.00    +0.000 A 
ATOM     16  C   UNL     1       0.016  10.959  20.673  0.00  0.00    +0.000 A 
ATOM     17  C   UNL     1       0.504  12.012  19.901  0.00  0.00    +0.000 A 
ATOM     18  C   UNL     1       1.408  11.749  18.881  0.00  0.00    +0.000 A 
ATOM     19 CL   UNL     1       1.973  13.040  17.894  0.00  0.00    +0.000 Cl
ATOM     20  C   UNL     1       1.850  10.454  18.648  0.00  0.00    +0.000 A 
ATOM     21  C   UNL     1       1.392   9.381  19.427  0.00  0.00    +0.000 A 
BRANCH  15  23
ATOM     22  C   UNL     1      -0.395   8.832  22.511  0.00  0.00    +0.000 C 
ATOM     23  O   UNL     1      -0.060   8.560  21.144  0.00  0.00    +0.000 OA
ENDBRANCH  15  23
ENDBRANCH  11  21
ENDBRANCH   1  12
BRANCH   2  24
ATOM     24  N   UNL     1       4.801   6.258  16.246  0.00  0.00    +0.000 N 
ATOM     25  H   UNL     1       4.534   7.198  15.954  0.00  0.00    +0.000 HD
BRANCH  24  26
ATOM     26  C   UNL     1       6.223   6.018  16.078  0.00  0.00    +0.000 C 
BRANCH  26  27
ATOM     27  C   UNL     1       7.100   6.623  17.133  0.00  0.00    +0.000 A 
ATOM     28  C   UNL     1       7.642   6.117  18.297  0.00  0.00    +0.000 A 
ATOM     29  C   UNL     1       8.320   7.186  18.926  0.00  0.00    +0.000 A 
ATOM     30  C   UNL     1       8.168   8.280  18.102  0.00  0.00    +0.000 A 
ATOM     31  C   UNL     1       8.624   9.682  18.193  0.00  0.00    +0.000 C 
ATOM     32  O   UNL     1       7.432   7.942  17.002  0.00  0.00    +0.000 OA
ENDBRANCH  26  27
ENDBRANCH  24  26
ENDBRANCH   2  24
TORSDOF 6
ENDMDL
MODEL 3
REMARK VINA RESULT:      -8.5      2.936      6.969
REMARK  Name = 
REMARK  9 active torsions:
REMARK  status: ('A' for Active; 'I' for Inactive)
REMARK    1  A    between atoms: C_1  and  O_2
REMARK    2  A    between atoms: O_2  and  C_3
REMARK    3  A    between atoms: C_9  and  N_10
REMARK    4  A    between atoms: C_11  and  C_13
REMARK    5  A    between atoms: C_14  and  N_15
REMARK    6  A    between atoms: N_15  and  C_16
REMARK    7  A    between atoms: C_16  and  C_17
REMARK    8  A    between atoms: C_20  and  C_21
REMARK    9  A    between atoms: C_28  and  C_29
REMARK                            x       y       z     vdW  Elec       q    Type
REMARK                         _______ _______ _______ _____ _____    ______ ____
ROOT
ATOM      1  C   UNL     1       3.279   6.170  18.763  0.00  0.00    +0.000 A 
ATOM      2  C   UNL     1       4.606   5.859  18.407  0.00  0.00    +0.000 A 
ATOM      3  S   UNL     1       5.073   4.302  18.981  0.00  0.00    +0.000 S 
ATOM      4  C   UNL     1       3.553   3.993  19.633  0.00  0.00    +0.000 A 
ATOM      5  C   UNL     1       2.664   5.034  19.456  0.00  0.00    +0.000 A 
ATOM      6  C   UNL     1       1.252   4.929  19.967  0.00  0.00    +0.000 C 
ATOM      7  C   UNL     1       1.014   3.701  20.860  0.00  0.00    +0.000 C 
ATOM      8  C   UNL     1       1.750   2.440  20.373  0.00  0.00    +0.000 C 
ATOM      9  C   UNL     1       1.254   1.968  18.999  0.00  0.00    +0.000 C 
ATOM     10  C   UNL     1       3.266   2.709  20.352  0.00  0.00    +0.000 C 
ENDROOT
BRANCH   1  12
ATOM     11  N   UNL     1       1.995   8.091  19.631  0.00  0.00    +0.000 N 
ATOM     12  C   UNL     1       2.666   7.505  18.551  0.00  0.00    +0.000 C 
ATOM     13  O   UNL     1       2.805   8.079  17.475  0.00  0.00    +0.000 OA
ATOM     14  H   UNL     1       2.026   7.645  20.534  0.00  0.00    +0.000 HD
BRANCH  11  21
ATOM     15  C   UNL     1       0.245   9.619  20.451  0.00  0.00    +0.000 A 
ATOM     16  C   UNL     1      -0.311  10.911  20.493  0.00  0.00    +0.000 A 
ATOM     17  C   UNL     1       0.190  11.932  19.687  0.00  0.00    +0.000 A 
ATOM     18  C   UNL     1       1.254  11.670  18.836  0.00  0.00    +0.000 A 
ATOM     19 CL   UNL     1       1.840  12.915  17.803  0.00  0.00    +0.000 Cl
ATOM     20  C   UNL     1       1.841  10.413  18.808  0.00  0.00    +0.000 A 
ATOM     21  C   UNL     1       1.371   9.376  19.627  0.00  0.00    +0.000 A 
BRANCH  15  23
ATOM     22  C   UNL     1      -0.555   8.889  22.567  0.00  0.00    +0.000 C 
ATOM     23  O   UNL     1      -0.240   8.572  21.206  0.00  0.00    +0.000 OA
ENDBRANCH  15  23
ENDBRANCH  11  21
ENDBRANCH   1  12
BRANCH   2  24
ATOM     24  N   UNL     1       5.592   6.522  17.731  0.00  0.00    +0.000 N 
ATOM     25  H   UNL     1       5.775   7.478  18.037  0.00  0.00    +0.000 HD
BRANCH  24  26
ATOM     26  C   UNL     1       6.784   5.880  17.207  0.00  0.00    +0.000 C 
BRANCH  26  27
ATOM     27  C   UNL     1       6.619   5.231  15.865  0.00  0.00    +0.000 A 
ATOM     28  C   UNL     1       5.810   4.206  15.419  0.00  0.00    +0.000 A 
ATOM     29  C   UNL     1       6.156   3.976  14.067  0.00  0.00    +0.000 A 
ATOM     30  C   UNL     1       7.144   4.885  13.760  0.00  0.00    +0.000 A 
ATOM     31  C   UNL     1       7.921   5.153  12.534  0.00  0.00    +0.000 C 
ATOM     32  O   UNL     1       7.427   5.660  14.849  0.00  0.00    +0.000 OA
ENDBRANCH  26  27
ENDBRANCH  24  26
ENDBRANCH   2  24
TORSDOF 6
ENDMDL
MODEL 4
REMARK VINA RESULT:      -8.3      2.989      6.934
REMARK  Name = 
REMARK  9 active torsions:
REMARK  status: ('A' for Active; 'I' for Inactive)
REMARK    1  A    between atoms: C_1  and  O_2
REMARK    2  A    between atoms: O_2  and  C_3
REMARK    3  A    between atoms: C_9  and  N_10
REMARK    4  A    between atoms: C_11  and  C_13
REMARK    5  A    between atoms: C_14  and  N_15
REMARK    6  A    between atoms: N_15  and  C_16
REMARK    7  A    between atoms: C_16  and  C_17
REMARK    8  A    between atoms: C_20  and  C_21
REMARK    9  A    between atoms: C_28  and  C_29
REMARK                            x       y       z     vdW  Elec       q    Type
REMARK                         _______ _______ _______ _____ _____    ______ ____
ROOT
ATOM      1  C   UNL     1       3.143   6.269  18.836  0.00  0.00    +0.000 A 
ATOM      2  C   UNL     1       4.456   5.998  18.403  0.00  0.00    +0.000 A 
ATOM      3  S   UNL     1       4.983   4.436  18.906  0.00  0.00    +0.000 S 
ATOM      4  C   UNL     1       3.505   4.074  19.624  0.00  0.00    +0.000 A 
ATOM      5  C   UNL     1       2.587   5.100  19.524  0.00  0.00    +0.000 A 
ATOM      6  C   UNL     1       1.206   4.949  20.102  0.00  0.00    +0.000 C 
ATOM      7  C   UNL     1       1.038   3.691  20.968  0.00  0.00    +0.000 C 
ATOM      8  C   UNL     1       1.774   2.461  20.407  0.00  0.00    +0.000 C 
ATOM      9  C   UNL     1       1.219   2.018  19.045  0.00  0.00    +0.000 C 
ATOM     10  C   UNL     1       3.282   2.763  20.317  0.00  0.00    +0.000 C 
ENDROOT
BRANCH   1  12
ATOM     11  N   UNL     1       1.633   8.010  19.720  0.00  0.00    +0.000 N 
ATOM     12  C   UNL     1       2.492   7.596  18.695  0.00  0.00    +0.000 C 
ATOM     13  O   UNL     1       2.759   8.310  17.732  0.00  0.00    +0.000 OA
ATOM     14  H   UNL     1       1.554   7.453  20.555  0.00  0.00    +0.000 HD
BRANCH  11  21
ATOM     15  C   UNL     1       0.988  10.041  20.956  0.00  0.00    +0.000 A 
ATOM     16  C   UNL     1       0.369  11.304  20.969  0.00  0.00    +0.000 A 
ATOM     17  C   UNL     1      -0.342  11.765  19.862  0.00  0.00    +0.000 A 
ATOM     18  C   UNL     1      -0.433  10.967  18.730  0.00  0.00    +0.000 A 
ATOM     19 CL   UNL     1      -1.352  11.511  17.381  0.00  0.00    +0.000 Cl
ATOM     20  C   UNL     1       0.203   9.734  18.683  0.00  0.00    +0.000 A 
ATOM     21  C   UNL     1       0.944   9.260  19.776  0.00  0.00    +0.000 A 
BRANCH  15  23
ATOM     22  C   UNL     1       0.872   9.246  23.193  0.00  0.00    +0.000 C 
ATOM     23  O   UNL     1       1.672   9.533  22.040  0.00  0.00    +0.000 OA
ENDBRANCH  15  23
ENDBRANCH  11  21
ENDBRANCH   1  12
BRANCH   2  24
ATOM     24  N   UNL     1       5.393   6.702  17.700  0.00  0.00    +0.000 N 
ATOM     25  H   UNL     1       5.527   7.672  17.985  0.00  0.00    +0.000 HD
BRANCH  24  26
ATOM     26  C   UNL     1       6.610   6.117  17.166  0.00  0.00    +0.000 C 
BRANCH  26  27
ATOM     27  C   UNL     1       6.455   5.415  15.850  0.00  0.00    +0.000 A 
ATOM     28  C   UNL     1       5.568   4.458  15.403  0.00  0.00    +0.000 A 
ATOM     29  C   UNL     1       5.966   4.118  14.089  0.00  0.00    +0.000 A 
ATOM     30  C   UNL     1       7.063   4.901  13.803  0.00  0.00    +0.000 A 
ATOM     31  C   UNL     1       7.936   5.017  12.617  0.00  0.00    +0.000 C 
ATOM     32  O   UNL     1       7.363   5.700  14.868  0.00  0.00    +0.000 OA
ENDBRANCH  26  27
ENDBRANCH  24  26
ENDBRANCH   2  24
TORSDOF 6
ENDMDL
MODEL 5
REMARK VINA RESULT:      -8.3      3.127      7.398
REMARK  Name = 
REMARK  9 active torsions:
REMARK  status: ('A' for Active; 'I' for Inactive)
REMARK    1  A    between atoms: C_1  and  O_2
REMARK    2  A    between atoms: O_2  and  C_3
REMARK    3  A    between atoms: C_9  and  N_10
REMARK    4  A    between atoms: C_11  and  C_13
REMARK    5  A    between atoms: C_14  and  N_15
REMARK    6  A    between atoms: N_15  and  C_16
REMARK    7  A    between atoms: C_16  and  C_17
REMARK    8  A    between atoms: C_20  and  C_21
REMARK    9  A    between atoms: C_28  and  C_29
REMARK                            x       y       z     vdW  Elec       q    Type
REMARK                         _______ _______ _______ _____ _____    ______ ____
ROOT
ATOM      1  C   UNL     1       2.632   6.457  18.651  0.00  0.00    +0.000 A 
ATOM      2  C   UNL     1       3.592   6.224  17.647  0.00  0.00    +0.000 A 
ATOM      3  S   UNL     1       4.048   4.563  17.574  0.00  0.00    +0.000 S 
ATOM      4  C   UNL     1       2.967   4.125  18.786  0.00  0.00    +0.000 A 
ATOM      5  C   UNL     1       2.250   5.192  19.287  0.00  0.00    +0.000 A 
ATOM      6  C   UNL     1       1.228   4.986  20.372  0.00  0.00    +0.000 C 
ATOM      7  C   UNL     1       1.255   3.575  20.979  0.00  0.00    +0.000 C 
ATOM      8  C   UNL     1       1.504   2.468  19.938  0.00  0.00    +0.000 C 
ATOM      9  C   UNL     1       0.375   2.375  18.901  0.00  0.00    +0.000 C 
ATOM     10  C   UNL     1       2.864   2.704  19.255  0.00  0.00    +0.000 C 
ENDROOT
BRANCH   1  12
ATOM     11  N   UNL     1       1.880   8.726  18.037  0.00  0.00    +0.000 N 
ATOM     12  C   UNL     1       2.182   7.813  19.054  0.00  0.00    +0.000 C 
ATOM     13  O   UNL     1       2.035   8.081  20.243  0.00  0.00    +0.000 OA
ATOM     14  H   UNL     1       1.883   8.419  17.077  0.00  0.00    +0.000 HD
BRANCH  11  21
ATOM     15  C   UNL     1       0.017  10.332  18.180  0.00  0.00    +0.000 A 
ATOM     16  C   UNL     1      -0.439  11.636  18.446  0.00  0.00    +0.000 A 
ATOM     17  C   UNL     1       0.460  12.673  18.690  0.00  0.00    +0.000 A 
ATOM     18  C   UNL     1       1.823  12.412  18.674  0.00  0.00    +0.000 A 
ATOM     19 CL   UNL     1       2.936  13.701  18.924  0.00  0.00    +0.000 Cl
ATOM     20  C   UNL     1       2.292  11.125  18.451  0.00  0.00    +0.000 A 
ATOM     21  C   UNL     1       1.406  10.061  18.228  0.00  0.00    +0.000 A 
BRANCH  15  23
ATOM     22  C   UNL     1      -1.952   9.607  17.063  0.00  0.00    +0.000 C 
ATOM     23  O   UNL     1      -0.835   9.285  17.901  0.00  0.00    +0.000 OA
ENDBRANCH  15  23
ENDBRANCH  11  21
ENDBRANCH   1  12
BRANCH   2  24
ATOM     24  N   UNL     1       4.243   7.020  16.746  0.00  0.00    +0.000 N 
ATOM     25  H   UNL     1       4.077   8.022  16.837  0.00  0.00    +0.000 HD
BRANCH  24  26
ATOM     26  C   UNL     1       5.566   6.731  16.221  0.00  0.00    +0.000 C 
BRANCH  26  27
ATOM     27  C   UNL     1       6.703   7.071  17.137  0.00  0.00    +0.000 A 
ATOM     28  C   UNL     1       7.416   6.326  18.054  0.00  0.00    +0.000 A 
ATOM     29  C   UNL     1       8.322   7.214  18.680  0.00  0.00    +0.000 A 
ATOM     30  C   UNL     1       8.122   8.446  18.097  0.00  0.00    +0.000 A 
ATOM     31  C   UNL     1       8.736   9.772  18.309  0.00  0.00    +0.000 C 
ATOM     32  O   UNL     1       7.142   8.366  17.149  0.00  0.00    +0.000 OA
ENDBRANCH  26  27
ENDBRANCH  24  26
ENDBRANCH   2  24
TORSDOF 6
ENDMDL
MODEL 6
REMARK VINA RESULT:      -8.2      1.375      1.423
REMARK  Name = 
REMARK  9 active torsions:
REMARK  status: ('A' for Active; 'I' for Inactive)
REMARK    1  A    between atoms: C_1  and  O_2
REMARK    2  A    between atoms: O_2  and  C_3
REMARK    3  A    between atoms: C_9  and  N_10
REMARK    4  A    between atoms: C_11  and  C_13
REMARK    5  A    between atoms: C_14  and  N_15
REMARK    6  A    between atoms: N_15  and  C_16
REMARK    7  A    between atoms: C_16  and  C_17
REMARK    8  A    between atoms: C_20  and  C_21
REMARK    9  A    between atoms: C_28  and  C_29
REMARK                            x       y       z     vdW  Elec       q    Type
REMARK                         _______ _______ _______ _____ _____    ______ ____
ROOT
ATOM      1  C   UNL     1       2.657   6.808  19.380  0.00  0.00    +0.000 A 
ATOM      2  C   UNL     1       2.052   6.321  20.555  0.00  0.00    +0.000 A 
ATOM      3  S   UNL     1       0.980   7.480  21.248  0.00  0.00    +0.000 S 
ATOM      4  C   UNL     1       1.237   8.586  20.007  0.00  0.00    +0.000 A 
ATOM      5  C   UNL     1       2.130   8.137  19.055  0.00  0.00    +0.000 A 
ATOM      6  C   UNL     1       2.474   8.992  17.865  0.00  0.00    +0.000 C 
ATOM      7  C   UNL     1       1.930  10.426  17.963  0.00  0.00    +0.000 C 
ATOM      8  C   UNL     1       0.523  10.503  18.583  0.00  0.00    +0.000 C 
ATOM      9  C   UNL     1      -0.534   9.791  17.726  0.00  0.00    +0.000 C 
ATOM     10  C   UNL     1       0.560   9.924  20.010  0.00  0.00    +0.000 C 
ENDROOT
BRANCH   1  12
ATOM     11  N   UNL     1       4.044   6.506  17.361  0.00  0.00    +0.000 N 
ATOM     12  C   UNL     1       3.748   6.097  18.667  0.00  0.00    +0.000 C 
ATOM     13  O   UNL     1       4.390   5.224  19.243  0.00  0.00    +0.000 OA
ATOM     14  H   UNL     1       3.585   7.318  16.980  0.00  0.00    +0.000 HD
BRANCH  11  21
ATOM     15  C   UNL     1       6.430   6.278  16.792  0.00  0.00    +0.000 A 
ATOM     16  C   UNL     1       7.436   5.677  16.014  0.00  0.00    +0.000 A 
ATOM     17  C   UNL     1       7.113   4.834  14.952  0.00  0.00    +0.000 A 
ATOM     18  C   UNL     1       5.779   4.580  14.664  0.00  0.00    +0.000 A 
ATOM     19 CL   UNL     1       5.377   3.581  13.322  0.00  0.00    +0.000 Cl
ATOM     20  C   UNL     1       4.773   5.133  15.443  0.00  0.00    +0.000 A 
ATOM     21  C   UNL     1       5.074   5.965  16.531  0.00  0.00    +0.000 A 
BRANCH  15  23
ATOM     22  C   UNL     1       7.812   8.028  17.616  0.00  0.00    +0.000 C 
ATOM     23  O   UNL     1       6.704   7.144  17.829  0.00  0.00    +0.000 OA
ENDBRANCH  15  23
ENDBRANCH  11  21
ENDBRANCH   1  12
BRANCH   2  24
ATOM     24  N   UNL     1       2.144   5.155  21.263  0.00  0.00    +0.000 N 
ATOM     25  H   UNL     1       2.304   5.255  22.265  0.00  0.00    +0.000 HD
BRANCH  24  26
ATOM     26  C   UNL     1       1.387   3.957  20.948  0.00  0.00    +0.000 C 
BRANCH  26  27
ATOM     27  C   UNL     1       1.820   3.239  19.705  0.00  0.00    +0.000 A 
ATOM     28  C   UNL     1       1.289   3.175  18.433  0.00  0.00    +0.000 A 
ATOM     29  C   UNL     1       2.093   2.270  17.703  0.00  0.00    +0.000 A 
ATOM     30  C   UNL     1       3.080   1.846  18.566  0.00  0.00    +0.000 A 
ATOM     31  C   UNL     1       4.210   0.906  18.421  0.00  0.00    +0.000 C 
ATOM     32  O   UNL     1       2.925   2.438  19.786  0.00  0.00    +0.000 OA
ENDBRANCH  26  27
ENDBRANCH  24  26
ENDBRANCH   2  24
TORSDOF 6
ENDMDL
MODEL 7
REMARK VINA RESULT:      -8.0      0.874      1.115
REMARK  Name = 
REMARK  9 active torsions:
REMARK  status: ('A' for Active; 'I' for Inactive)
REMARK    1  A    between atoms: C_1  and  O_2
REMARK    2  A    between atoms: O_2  and  C_3
REMARK    3  A    between atoms: C_9  and  N_10
REMARK    4  A    between atoms: C_11  and  C_13
REMARK    5  A    between atoms: C_14  and  N_15
REMARK    6  A    between atoms: N_15  and  C_16
REMARK    7  A    between atoms: C_16  and  C_17
REMARK    8  A    between atoms: C_20  and  C_21
REMARK    9  A    between atoms: C_28  and  C_29
REMARK                            x       y       z     vdW  Elec       q    Type
REMARK                         _______ _______ _______ _____ _____    ______ ____
ROOT
ATOM      1  C   UNL     1       2.132   7.286  19.316  0.00  0.00    +0.000 A 
ATOM      2  C   UNL     1       1.781   6.846  20.607  0.00  0.00    +0.000 A 
ATOM      3  S   UNL     1       1.068   8.109  21.539  0.00  0.00    +0.000 S 
ATOM      4  C   UNL     1       1.147   9.208  20.268  0.00  0.00    +0.000 A 
ATOM      5  C   UNL     1       1.712   8.678  19.126  0.00  0.00    +0.000 A 
ATOM      6  C   UNL     1       1.855   9.515  17.884  0.00  0.00    +0.000 C 
ATOM      7  C   UNL     1       1.537  11.002  18.107  0.00  0.00    +0.000 C 
ATOM      8  C   UNL     1       0.349  11.236  19.057  0.00  0.00    +0.000 C 
ATOM      9  C   UNL     1      -0.968  10.682  18.495  0.00  0.00    +0.000 C 
ATOM     10  C   UNL     1       0.665  10.618  20.433  0.00  0.00    +0.000 C 
ENDROOT
BRANCH   1  12
ATOM     11  N   UNL     1       4.304   6.433  18.512  0.00  0.00    +0.000 N 
ATOM     12  C   UNL     1       2.913   6.466  18.356  0.00  0.00    +0.000 C 
ATOM     13  O   UNL     1       2.332   5.806  17.500  0.00  0.00    +0.000 OA
ATOM     14  H   UNL     1       4.724   6.878  19.313  0.00  0.00    +0.000 HD
BRANCH  11  21
ATOM     15  C   UNL     1       6.404   5.166  18.280  0.00  0.00    +0.000 A 
ATOM     16  C   UNL     1       7.253   4.363  17.497  0.00  0.00    +0.000 A 
ATOM     17  C   UNL     1       6.973   4.125  16.152  0.00  0.00    +0.000 A 
ATOM     18  C   UNL     1       5.837   4.684  15.582  0.00  0.00    +0.000 A 
ATOM     19 CL   UNL     1       5.517   4.434  13.911  0.00  0.00    +0.000 Cl
ATOM     20  C   UNL     1       4.968   5.448  16.348  0.00  0.00    +0.000 A 
ATOM     21  C   UNL     1       5.215   5.681  17.709  0.00  0.00    +0.000 A 
BRANCH  15  23
ATOM     22  C   UNL     1       8.027   5.757  19.914  0.00  0.00    +0.000 C 
ATOM     23  O   UNL     1       6.661   5.454  19.604  0.00  0.00    +0.000 OA
ENDBRANCH  15  23
ENDBRANCH  11  21
ENDBRANCH   1  12
BRANCH   2  24
ATOM     24  N   UNL     1       1.898   5.659  21.275  0.00  0.00    +0.000 N 
ATOM     25  H   UNL     1       1.834   5.713  22.292  0.00  0.00    +0.000 HD
BRANCH  24  26
ATOM     26  C   UNL     1       1.406   4.392  20.764  0.00  0.00    +0.000 C 
BRANCH  26  27
ATOM     27  C   UNL     1       2.464   3.450  20.274  0.00  0.00    +0.000 A 
ATOM     28  C   UNL     1       3.488   2.783  20.915  0.00  0.00    +0.000 A 
ATOM     29  C   UNL     1       4.214   2.097  19.914  0.00  0.00    +0.000 A 
ATOM     30  C   UNL     1       3.581   2.371  18.721  0.00  0.00    +0.000 A 
ATOM     31  C   UNL     1       3.847   1.970  17.324  0.00  0.00    +0.000 C 
ATOM     32  O   UNL     1       2.508   3.188  18.933  0.00  0.00    +0.000 OA
ENDBRANCH  26  27
ENDBRANCH  24  26
ENDBRANCH   2  24
TORSDOF 6
ENDMDL
MODEL 8
REMARK VINA RESULT:      -7.9      3.083      6.953
REMARK  Name = 
REMARK  9 active torsions:
REMARK  status: ('A' for Active; 'I' for Inactive)
REMARK    1  A    between atoms: C_1  and  O_2
REMARK    2  A    between atoms: O_2  and  C_3
REMARK    3  A    between atoms: C_9  and  N_10
REMARK    4  A    between atoms: C_11  and  C_13
REMARK    5  A    between atoms: C_14  and  N_15
REMARK    6  A    between atoms: N_15  and  C_16
REMARK    7  A    between atoms: C_16  and  C_17
REMARK    8  A    between atoms: C_20  and  C_21
REMARK    9  A    between atoms: C_28  and  C_29
REMARK                            x       y       z     vdW  Elec       q    Type
REMARK                         _______ _______ _______ _____ _____    ______ ____
ROOT
ATOM      1  C   UNL     1       3.060   6.043  18.053  0.00  0.00    +0.000 A 
ATOM      2  C   UNL     1       4.136   5.558  17.284  0.00  0.00    +0.000 A 
ATOM      3  S   UNL     1       4.538   3.935  17.704  0.00  0.00    +0.000 S 
ATOM      4  C   UNL     1       3.292   3.826  18.828  0.00  0.00    +0.000 A 
ATOM      5  C   UNL     1       2.553   4.986  18.934  0.00  0.00    +0.000 A 
ATOM      6  C   UNL     1       1.390   5.068  19.886  0.00  0.00    +0.000 C 
ATOM      7  C   UNL     1       1.286   3.863  20.833  0.00  0.00    +0.000 C 
ATOM      8  C   UNL     1       1.632   2.524  20.156  0.00  0.00    +0.000 C 
ATOM      9  C   UNL     1       0.648   2.165  19.033  0.00  0.00    +0.000 C 
ATOM     10  C   UNL     1       3.078   2.576  19.628  0.00  0.00    +0.000 C 
ENDROOT
BRANCH   1  12
ATOM     11  N   UNL     1       1.997   7.964  19.181  0.00  0.00    +0.000 N 
ATOM     12  C   UNL     1       2.609   7.457  18.029  0.00  0.00    +0.000 C 
ATOM     13  O   UNL     1       2.827   8.153  17.041  0.00  0.00    +0.000 OA
ATOM     14  H   UNL     1       1.965   7.399  20.015  0.00  0.00    +0.000 HD
BRANCH  11  21
ATOM     15  C   UNL     1       0.549   9.586  20.340  0.00  0.00    +0.000 A 
ATOM     16  C   UNL     1       0.152  10.919  20.551  0.00  0.00    +0.000 A 
ATOM     17  C   UNL     1       0.659  11.950  19.762  0.00  0.00    +0.000 A 
ATOM     18  C   UNL     1       1.570  11.656  18.758  0.00  0.00    +0.000 A 
ATOM     19 CL   UNL     1       2.157  12.920  17.749  0.00  0.00    +0.000 Cl
ATOM     20  C   UNL     1       2.003  10.353  18.558  0.00  0.00    +0.000 A 
ATOM     21  C   UNL     1       1.526   9.302  19.356  0.00  0.00    +0.000 A 
BRANCH  15  23
ATOM     22  C   UNL     1      -0.353   8.851  22.413  0.00  0.00    +0.000 C 
ATOM     23  O   UNL     1       0.048   8.532  21.075  0.00  0.00    +0.000 OA
ENDBRANCH  15  23
ENDBRANCH  11  21
ENDBRANCH   1  12
BRANCH   2  24
ATOM     24  N   UNL     1       4.928   6.093  16.307  0.00  0.00    +0.000 N 
ATOM     25  H   UNL     1       4.827   7.096  16.153  0.00  0.00    +0.000 HD
BRANCH  24  26
ATOM     26  C   UNL     1       6.271   5.628  16.011  0.00  0.00    +0.000 C 
BRANCH  26  27
ATOM     27  C   UNL     1       6.443   4.996  14.662  0.00  0.00    +0.000 A 
ATOM     28  C   UNL     1       7.499   4.965  13.775  0.00  0.00    +0.000 A 
ATOM     29  C   UNL     1       7.044   4.279  12.626  0.00  0.00    +0.000 A 
ATOM     30  C   UNL     1       5.740   3.915  12.884  0.00  0.00    +0.000 A 
ATOM     31  C   UNL     1       4.721   3.194  12.096  0.00  0.00    +0.000 C 
ATOM     32  O   UNL     1       5.369   4.341  14.127  0.00  0.00    +0.000 OA
ENDBRANCH  26  27
ENDBRANCH  24  26
ENDBRANCH   2  24
TORSDOF 6
ENDMDL
MODEL 9
REMARK VINA RESULT:      -7.9      3.369      7.565
REMARK  Name = 
REMARK  9 active torsions:
REMARK  status: ('A' for Active; 'I' for Inactive)
REMARK    1  A    between atoms: C_1  and  O_2
REMARK    2  A    between atoms: O_2  and  C_3
REMARK    3  A    between atoms: C_9  and  N_10
REMARK    4  A    between atoms: C_11  and  C_13
REMARK    5  A    between atoms: C_14  and  N_15
REMARK    6  A    between atoms: N_15  and  C_16
REMARK    7  A    between atoms: C_16  and  C_17
REMARK    8  A    between atoms: C_20  and  C_21
REMARK    9  A    between atoms: C_28  and  C_29
REMARK                            x       y       z     vdW  Elec       q    Type
REMARK                         _______ _______ _______ _____ _____    ______ ____
ROOT
ATOM      1  C   UNL     1       2.506   6.236  19.282  0.00  0.00    +0.000 A 
ATOM      2  C   UNL     1       3.383   6.299  18.182  0.00  0.00    +0.000 A 
ATOM      3  S   UNL     1       3.878   4.729  17.671  0.00  0.00    +0.000 S 
ATOM      4  C   UNL     1       2.918   3.959  18.818  0.00  0.00    +0.000 A 
ATOM      5  C   UNL     1       2.216   4.838  19.617  0.00  0.00    +0.000 A 
ATOM      6  C   UNL     1       1.296   4.327  20.693  0.00  0.00    +0.000 C 
ATOM      7  C   UNL     1       1.416   2.814  20.933  0.00  0.00    +0.000 C 
ATOM      8  C   UNL     1       1.607   2.004  19.638  0.00  0.00    +0.000 C 
ATOM      9  C   UNL     1       0.397   2.110  18.698  0.00  0.00    +0.000 C 
ATOM     10  C   UNL     1       2.897   2.464  18.932  0.00  0.00    +0.000 C 
ENDROOT
BRANCH   1  12
ATOM     11  N   UNL     1       1.441   8.463  19.315  0.00  0.00    +0.000 N 
ATOM     12  C   UNL     1       2.053   7.432  20.037  0.00  0.00    +0.000 C 
ATOM     13  O   UNL     1       2.172   7.466  21.258  0.00  0.00    +0.000 OA
ATOM     14  H   UNL     1       1.239   8.331  18.336  0.00  0.00    +0.000 HD
BRANCH  11  21
ATOM     15  C   UNL     1       1.169  10.910  19.233  0.00  0.00    +0.000 A 
ATOM     16  C   UNL     1       0.582  12.081  19.747  0.00  0.00    +0.000 A 
ATOM     17  C   UNL     1      -0.188  12.044  20.908  0.00  0.00    +0.000 A 
ATOM     18  C   UNL     1      -0.381  10.835  21.561  0.00  0.00    +0.000 A 
ATOM     19 CL   UNL     1      -1.288  10.796  23.023  0.00  0.00    +0.000 Cl
ATOM     20  C   UNL     1       0.158   9.663  21.049  0.00  0.00    +0.000 A 
ATOM     21  C   UNL     1       0.916   9.671  19.869  0.00  0.00    +0.000 A 
BRANCH  15  23
ATOM     22  C   UNL     1       2.672  12.126  17.848  0.00  0.00    +0.000 C 
ATOM     23  O   UNL     1       1.965  10.906  18.106  0.00  0.00    +0.000 OA
ENDBRANCH  15  23
ENDBRANCH  11  21
ENDBRANCH   1  12
BRANCH   2  24
ATOM     24  N   UNL     1       3.931   7.319  17.456  0.00  0.00    +0.000 N 
ATOM     25  H   UNL     1       3.885   8.244  17.884  0.00  0.00    +0.000 HD
BRANCH  24  26
ATOM     26  C   UNL     1       5.098   7.169  16.605  0.00  0.00    +0.000 C 
BRANCH  26  27
ATOM     27  C   UNL     1       6.416   7.374  17.290  0.00  0.00    +0.000 A 
ATOM     28  C   UNL     1       7.249   6.519  17.983  0.00  0.00    +0.000 A 
ATOM     29  C   UNL     1       8.318   7.304  18.473  0.00  0.00    +0.000 A 
ATOM     30  C   UNL     1       8.086   8.590  18.036  0.00  0.00    +0.000 A 
ATOM     31  C   UNL     1       8.815   9.861  18.215  0.00  0.00    +0.000 C 
ATOM     32  O   UNL     1       6.932   8.639  17.308  0.00  0.00    +0.000 OA
ENDBRANCH  26  27
ENDBRANCH  24  26
ENDBRANCH   2  24
TORSDOF 6
ENDMDL
