MODEL 1
REMARK VINA RESULT:     -10.0      0.000      0.000
REMARK  Name = 
REMARK  4 active torsions:
REMARK  status: ('A' for Active; 'I' for Inactive)
REMARK    1  A    between atoms: C_1  and  N_2
REMARK    2  A    between atoms: C_3  and  C_5
REMARK    3  A    between atoms: C_11  and  C_12
REMARK    4  A    between atoms: C_20  and  C_21
REMARK                            x       y       z     vdW  Elec       q    Type
REMARK                         _______ _______ _______ _____ _____    ______ ____
ROOT
ATOM      1  C   UNL     1       4.933   4.267  17.689  0.00  0.00    +0.000 A 
ATOM      2  C   UNL     1       4.842   2.891  17.835  0.00  0.00    +0.000 A 
ATOM      3  C   UNL     1       3.856   2.342  18.652  0.00  0.00    +0.000 A 
ATOM      4  F   UNL     1       3.820   1.001  18.750  0.00  0.00    +0.000 F 
ATOM      5  C   UNL     1       2.917   3.113  19.334  0.00  0.00    +0.000 A 
ATOM      6  N   UNL     1       2.001   2.489  20.097  0.00  0.00    +0.000 NA
ATOM      7  C   UNL     1       1.084   3.230  20.738  0.00  0.00    +0.000 A 
ATOM      8  C   UNL     1       1.011   4.602  20.631  0.00  0.00    +0.000 A 
ATOM      9  C   UNL     1       1.948   5.295  19.845  0.00  0.00    +0.000 A 
ATOM     10  C   UNL     1       2.967   4.522  19.194  0.00  0.00    +0.000 A 
ATOM     11  C   UNL     1       4.030   5.061  18.410  0.00  0.00    +0.000 A 
ENDROOT
BRANCH   1  18
ATOM     12  C   UNL     1       6.164   3.776  13.134  0.00  0.00    +0.000 A 
ATOM     13  C   UNL     1       7.228   4.635  12.881  0.00  0.00    +0.000 A 
ATOM     14  N   UNL     1       7.767   5.507  13.775  0.00  0.00    +0.000 NA
ATOM     15  C   UNL     1       7.187   5.437  14.987  0.00  0.00    +0.000 A 
ATOM     16  N   UNL     1       7.533   6.222  16.051  0.00  0.00    +0.000 N 
ATOM     17  C   UNL     1       6.759   5.897  17.138  0.00  0.00    +0.000 A 
ATOM     18  C   UNL     1       5.909   4.863  16.780  0.00  0.00    +0.000 A 
ATOM     19  C   UNL     1       6.156   4.595  15.392  0.00  0.00    +0.000 A 
ATOM     20  C   UNL     1       5.617   3.739  14.418  0.00  0.00    +0.000 A 
ATOM     21  H   UNL     1       8.250   6.931  16.012  0.00  0.00    +0.000 HD
BRANCH  12  24
ATOM     22  C   UNL     1       6.044   0.888  10.705  0.00  0.00    +0.000 C 
ATOM     23  N   UNL     1       6.430   1.803  11.747  0.00  0.00    +0.000 N 
ATOM     24  C   UNL     1       5.661   2.909  12.050  0.00  0.00    +0.000 C 
ATOM     25  O   UNL     1       4.611   3.178  11.483  0.00  0.00    +0.000 OA
ATOM     26  H   UNL     1       7.179   1.525  12.367  0.00  0.00    +0.000 HD
ENDBRANCH  12  24
ENDBRANCH   1  18
BRANCH   9  27
ATOM     27  C   UNL     1       1.804   6.778  19.717  0.00  0.00    +0.000 A 
ATOM     28  C   UNL     1       2.014   7.475  18.516  0.00  0.00    +0.000 A 
ATOM     29  C   UNL     1       1.899   8.865  18.456  0.00  0.00    +0.000 A 
ATOM     30  C   UNL     1       1.498   9.540  19.592  0.00  0.00    +0.000 A 
ATOM     31  N   UNL     1       1.231   8.925  20.759  0.00  0.00    +0.000 NA
ATOM     32  C   UNL     1       1.399   7.578  20.792  0.00  0.00    +0.000 A 
ENDBRANCH   9  27
TORSDOF 3
ENDMDL
MODEL 2
REMARK VINA RESULT:      -9.6      3.463      8.589
REMARK  Name = 
REMARK  4 active torsions:
REMARK  status: ('A' for Active; 'I' for Inactive)
REMARK    1  A    between atoms: C_1  and  N_2
REMARK    2  A    between atoms: C_3  and  C_5
REMARK    3  A    between atoms: C_11  and  C_12
REMARK    4  A    between atoms: C_20  and  C_21
REMARK                            x       y       z     vdW  Elec       q    Type
REMARK                         _______ _______ _______ _____ _____    ______ ____
ROOT
ATOM      1  C   UNL     1       2.329   6.797  19.149  0.00  0.00    +0.000 A 
ATOM      2  C   UNL     1       1.776   6.250  20.297  0.00  0.00    +0.000 A 
ATOM      3  C   UNL     1       2.120   4.957  20.686  0.00  0.00    +0.000 A 
ATOM      4  F   UNL     1       1.552   4.485  21.810  0.00  0.00    +0.000 F 
ATOM      5  C   UNL     1       3.027   4.167  19.983  0.00  0.00    +0.000 A 
ATOM      6  N   UNL     1       3.297   2.931  20.441  0.00  0.00    +0.000 NA
ATOM      7  C   UNL     1       4.185   2.177  19.776  0.00  0.00    +0.000 A 
ATOM      8  C   UNL     1       4.862   2.615  18.658  0.00  0.00    +0.000 A 
ATOM      9  C   UNL     1       4.611   3.899  18.144  0.00  0.00    +0.000 A 
ATOM     10  C   UNL     1       3.627   4.699  18.815  0.00  0.00    +0.000 A 
ATOM     11  C   UNL     1       3.203   5.997  18.399  0.00  0.00    +0.000 A 
ENDROOT
BRANCH   1  18
ATOM     12  C   UNL     1       0.135  10.542  21.063  0.00  0.00    +0.000 A 
ATOM     13  C   UNL     1       0.173  11.581  20.139  0.00  0.00    +0.000 A 
ATOM     14  N   UNL     1       0.792  11.538  18.930  0.00  0.00    +0.000 NA
ATOM     15  C   UNL     1       1.355  10.343  18.674  0.00  0.00    +0.000 A 
ATOM     16  N   UNL     1       2.054  10.051  17.536  0.00  0.00    +0.000 N 
ATOM     17  C   UNL     1       2.489   8.750  17.581  0.00  0.00    +0.000 A 
ATOM     18  C   UNL     1       2.044   8.176  18.761  0.00  0.00    +0.000 A 
ATOM     19  C   UNL     1       1.351   9.209  19.478  0.00  0.00    +0.000 A 
ATOM     20  C   UNL     1       0.723   9.320  20.730  0.00  0.00    +0.000 A 
ATOM     21  H   UNL     1       2.216  10.715  16.794  0.00  0.00    +0.000 HD
BRANCH  12  24
ATOM     22  C   UNL     1      -2.418  11.829  23.530  0.00  0.00    +0.000 C 
ATOM     23  N   UNL     1      -1.672  11.551  22.330  0.00  0.00    +0.000 N 
ATOM     24  C   UNL     1      -0.549  10.748  22.355  0.00  0.00    +0.000 C 
ATOM     25  O   UNL     1      -0.124  10.211  23.369  0.00  0.00    +0.000 OA
ATOM     26  H   UNL     1      -2.086  11.811  21.445  0.00  0.00    +0.000 HD
ENDBRANCH  12  24
ENDBRANCH   1  18
BRANCH   9  27
ATOM     27  C   UNL     1       5.403   4.354  16.961  0.00  0.00    +0.000 A 
ATOM     28  C   UNL     1       4.986   4.171  15.633  0.00  0.00    +0.000 A 
ATOM     29  C   UNL     1       5.779   4.584  14.561  0.00  0.00    +0.000 A 
ATOM     30  C   UNL     1       6.958   5.249  14.835  0.00  0.00    +0.000 A 
ATOM     31  N   UNL     1       7.388   5.502  16.084  0.00  0.00    +0.000 NA
ATOM     32  C   UNL     1       6.614   5.043  17.102  0.00  0.00    +0.000 A 
ENDBRANCH   9  27
TORSDOF 3
ENDMDL
MODEL 3
REMARK VINA RESULT:      -9.6      1.002      1.264
REMARK  Name = 
REMARK  4 active torsions:
REMARK  status: ('A' for Active; 'I' for Inactive)
REMARK    1  A    between atoms: C_1  and  N_2
REMARK    2  A    between atoms: C_3  and  C_5
REMARK    3  A    between atoms: C_11  and  C_12
REMARK    4  A    between atoms: C_20  and  C_21
REMARK                            x       y       z     vdW  Elec       q    Type
REMARK                         _______ _______ _______ _____ _____    ______ ____
ROOT
ATOM      1  C   UNL     1       4.879   4.011  17.623  0.00  0.00    +0.000 A 
ATOM      2  C   UNL     1       4.747   2.636  17.752  0.00  0.00    +0.000 A 
ATOM      3  C   UNL     1       3.750   2.106  18.567  0.00  0.00    +0.000 A 
ATOM      4  F   UNL     1       3.674   0.766  18.648  0.00  0.00    +0.000 F 
ATOM      5  C   UNL     1       2.839   2.896  19.265  0.00  0.00    +0.000 A 
ATOM      6  N   UNL     1       1.909   2.289  20.025  0.00  0.00    +0.000 NA
ATOM      7  C   UNL     1       1.018   3.049  20.682  0.00  0.00    +0.000 A 
ATOM      8  C   UNL     1       0.986   4.424  20.594  0.00  0.00    +0.000 A 
ATOM      9  C   UNL     1       1.939   5.099  19.811  0.00  0.00    +0.000 A 
ATOM     10  C   UNL     1       2.930   4.305  19.143  0.00  0.00    +0.000 A 
ATOM     11  C   UNL     1       4.004   4.822  18.360  0.00  0.00    +0.000 A 
ENDROOT
BRANCH   1  18
ATOM     12  C   UNL     1       5.867   3.783  12.989  0.00  0.00    +0.000 A 
ATOM     13  C   UNL     1       6.994   4.562  12.751  0.00  0.00    +0.000 A 
ATOM     14  N   UNL     1       7.648   5.307  13.681  0.00  0.00    +0.000 NA
ATOM     15  C   UNL     1       7.116   5.191  14.911  0.00  0.00    +0.000 A 
ATOM     16  N   UNL     1       7.577   5.854  16.015  0.00  0.00    +0.000 N 
ATOM     17  C   UNL     1       6.822   5.512  17.109  0.00  0.00    +0.000 A 
ATOM     18  C   UNL     1       5.866   4.590  16.715  0.00  0.00    +0.000 A 
ATOM     19  C   UNL     1       6.030   4.414  15.301  0.00  0.00    +0.000 A 
ATOM     20  C   UNL     1       5.373   3.690  14.292  0.00  0.00    +0.000 A 
ATOM     21  H   UNL     1       8.354   6.497  15.995  0.00  0.00    +0.000 HD
BRANCH  12  24
ATOM     22  C   UNL     1       3.389   2.985  10.254  0.00  0.00    +0.000 C 
ATOM     23  N   UNL     1       4.090   3.609  11.346  0.00  0.00    +0.000 N 
ATOM     24  C   UNL     1       5.242   3.054  11.867  0.00  0.00    +0.000 C 
ATOM     25  O   UNL     1       5.751   2.027  11.439  0.00  0.00    +0.000 OA
ATOM     26  H   UNL     1       3.821   4.549  11.606  0.00  0.00    +0.000 HD
ENDBRANCH  12  24
ENDBRANCH   1  18
BRANCH   9  27
ATOM     27  C   UNL     1       1.838   6.587  19.703  0.00  0.00    +0.000 A 
ATOM     28  C   UNL     1       1.430   7.414  20.761  0.00  0.00    +0.000 A 
ATOM     29  C   UNL     1       1.319   8.796  20.598  0.00  0.00    +0.000 A 
ATOM     30  C   UNL     1       1.694   9.347  19.389  0.00  0.00    +0.000 A 
ATOM     31  N   UNL     1       2.142   8.614  18.353  0.00  0.00    +0.000 NA
ATOM     32  C   UNL     1       2.191   7.269  18.532  0.00  0.00    +0.000 A 
ENDBRANCH   9  27
TORSDOF 3
ENDMDL
MODEL 4
REMARK VINA RESULT:      -8.6      3.841      7.914
REMARK  Name = 
REMARK  4 active torsions:
REMARK  status: ('A' for Active; 'I' for Inactive)
REMARK    1  A    between atoms: C_1  and  N_2
REMARK    2  A    between atoms: C_3  and  C_5
REMARK    3  A    between atoms: C_11  and  C_12
REMARK    4  A    between atoms: C_20  and  C_21
REMARK                            x       y       z     vdW  Elec       q    Type
REMARK                         _______ _______ _______ _____ _____    ______ ____
ROOT
ATOM      1  C   UNL     1       1.804   6.550  20.225  0.00  0.00    +0.000 A 
ATOM      2  C   UNL     1       0.913   5.503  20.406  0.00  0.00    +0.000 A 
ATOM      3  C   UNL     1       1.174   4.260  19.833  0.00  0.00    +0.000 A 
ATOM      4  F   UNL     1       0.273   3.286  20.048  0.00  0.00    +0.000 F 
ATOM      5  C   UNL     1       2.319   3.993  19.085  0.00  0.00    +0.000 A 
ATOM      6  N   UNL     1       2.483   2.759  18.574  0.00  0.00    +0.000 NA
ATOM      7  C   UNL     1       3.595   2.496  17.870  0.00  0.00    +0.000 A 
ATOM      8  C   UNL     1       4.598   3.419  17.666  0.00  0.00    +0.000 A 
ATOM      9  C   UNL     1       4.468   4.721  18.182  0.00  0.00    +0.000 A 
ATOM     10  C   UNL     1       3.262   5.034  18.894  0.00  0.00    +0.000 A 
ATOM     11  C   UNL     1       2.935   6.314  19.430  0.00  0.00    +0.000 A 
ENDROOT
BRANCH   1  18
ATOM     12  C   UNL     1      -0.412  10.618  19.204  0.00  0.00    +0.000 A 
ATOM     13  C   UNL     1      -0.201  11.499  20.259  0.00  0.00    +0.000 A 
ATOM     14  N   UNL     1       0.469  11.209  21.407  0.00  0.00    +0.000 NA
ATOM     15  C   UNL     1       0.966   9.959  21.419  0.00  0.00    +0.000 A 
ATOM     16  N   UNL     1       1.661   9.418  22.465  0.00  0.00    +0.000 N 
ATOM     17  C   UNL     1       2.033   8.133  22.159  0.00  0.00    +0.000 A 
ATOM     18  C   UNL     1       1.592   7.839  20.878  0.00  0.00    +0.000 A 
ATOM     19  C   UNL     1       0.876   8.995  20.420  0.00  0.00    +0.000 A 
ATOM     20  C   UNL     1       0.145   9.339  19.271  0.00  0.00    +0.000 A 
ATOM     21  H   UNL     1       1.850   9.912  23.324  0.00  0.00    +0.000 HD
BRANCH  12  24
ATOM     22  C   UNL     1      -2.434  10.387  16.024  0.00  0.00    +0.000 C 
ATOM     23  N   UNL     1      -1.665  10.071  17.200  0.00  0.00    +0.000 N 
ATOM     24  C   UNL     1      -1.192  11.065  18.033  0.00  0.00    +0.000 C 
ATOM     25  O   UNL     1      -1.401  12.257  17.851  0.00  0.00    +0.000 OA
ATOM     26  H   UNL     1      -1.629   9.105  17.497  0.00  0.00    +0.000 HD
ENDBRANCH  12  24
ENDBRANCH   1  18
BRANCH   9  27
ATOM     27  C   UNL     1       5.600   5.676  17.982  0.00  0.00    +0.000 A 
ATOM     28  C   UNL     1       6.771   5.663  18.757  0.00  0.00    +0.000 A 
ATOM     29  C   UNL     1       7.786   6.599  18.553  0.00  0.00    +0.000 A 
ATOM     30  C   UNL     1       7.649   7.498  17.514  0.00  0.00    +0.000 A 
ATOM     31  N   UNL     1       6.577   7.529  16.702  0.00  0.00    +0.000 NA
ATOM     32  C   UNL     1       5.588   6.635  16.961  0.00  0.00    +0.000 A 
ENDBRANCH   9  27
TORSDOF 3
ENDMDL
MODEL 5
REMARK VINA RESULT:      -8.0      3.746      8.810
REMARK  Name = 
REMARK  4 active torsions:
REMARK  status: ('A' for Active; 'I' for Inactive)
REMARK    1  A    between atoms: C_1  and  N_2
REMARK    2  A    between atoms: C_3  and  C_5
REMARK    3  A    between atoms: C_11  and  C_12
REMARK    4  A    between atoms: C_20  and  C_21
REMARK                            x       y       z     vdW  Elec       q    Type
REMARK                         _______ _______ _______ _____ _____    ______ ____
ROOT
ATOM      1  C   UNL     1       2.073   7.194  19.213  0.00  0.00    +0.000 A 
ATOM      2  C   UNL     1       1.283   6.487  20.106  0.00  0.00    +0.000 A 
ATOM      3  C   UNL     1       1.630   5.185  20.463  0.00  0.00    +0.000 A 
ATOM      4  F   UNL     1       0.824   4.555  21.335  0.00  0.00    +0.000 F 
ATOM      5  C   UNL     1       2.765   4.541  19.977  0.00  0.00    +0.000 A 
ATOM      6  N   UNL     1       3.017   3.284  20.383  0.00  0.00    +0.000 NA
ATOM      7  C   UNL     1       4.122   2.670  19.932  0.00  0.00    +0.000 A 
ATOM      8  C   UNL     1       5.034   3.274  19.093  0.00  0.00    +0.000 A 
ATOM      9  C   UNL     1       4.811   4.587  18.643  0.00  0.00    +0.000 A 
ATOM     10  C   UNL     1       3.608   5.239  19.076  0.00  0.00    +0.000 A 
ATOM     11  C   UNL     1       3.191   6.543  18.673  0.00  0.00    +0.000 A 
ENDROOT
BRANCH   1  18
ATOM     12  C   UNL     1      -0.245  10.805  21.235  0.00  0.00    +0.000 A 
ATOM     13  C   UNL     1      -0.200  11.888  20.362  0.00  0.00    +0.000 A 
ATOM     14  N   UNL     1       0.455  11.913  19.171  0.00  0.00    +0.000 NA
ATOM     15  C   UNL     1       1.047  10.742  18.876  0.00  0.00    +0.000 A 
ATOM     16  N   UNL     1       1.784  10.516  17.747  0.00  0.00    +0.000 N 
ATOM     17  C   UNL     1       2.242   9.221  17.744  0.00  0.00    +0.000 A 
ATOM     18  C   UNL     1       1.773   8.585  18.882  0.00  0.00    +0.000 A 
ATOM     19  C   UNL     1       1.041   9.570  19.625  0.00  0.00    +0.000 A 
ATOM     20  C   UNL     1       0.375   9.611  20.862  0.00  0.00    +0.000 A 
ATOM     21  H   UNL     1       1.955  11.218  17.042  0.00  0.00    +0.000 HD
BRANCH  12  24
ATOM     22  C   UNL     1      -2.828  12.014  23.710  0.00  0.00    +0.000 C 
ATOM     23  N   UNL     1      -2.049  11.799  22.518  0.00  0.00    +0.000 N 
ATOM     24  C   UNL     1      -0.970  10.938  22.515  0.00  0.00    +0.000 C 
ATOM     25  O   UNL     1      -0.614  10.295  23.493  0.00  0.00    +0.000 OA
ATOM     26  H   UNL     1      -2.413  12.155  21.644  0.00  0.00    +0.000 HD
ENDBRANCH  12  24
ENDBRANCH   1  18
BRANCH   9  27
ATOM     27  C   UNL     1       5.849   5.223  17.775  0.00  0.00    +0.000 A 
ATOM     28  C   UNL     1       6.701   6.249  18.212  0.00  0.00    +0.000 A 
ATOM     29  C   UNL     1       7.631   6.834  17.352  0.00  0.00    +0.000 A 
ATOM     30  C   UNL     1       7.751   6.327  16.073  0.00  0.00    +0.000 A 
ATOM     31  N   UNL     1       7.001   5.311  15.610  0.00  0.00    +0.000 NA
ATOM     32  C   UNL     1       6.073   4.799  16.459  0.00  0.00    +0.000 A 
ENDBRANCH   9  27
TORSDOF 3
ENDMDL
MODEL 6
REMARK VINA RESULT:      -7.9      7.665     11.645
REMARK  Name = 
REMARK  4 active torsions:
REMARK  status: ('A' for Active; 'I' for Inactive)
REMARK    1  A    between atoms: C_1  and  N_2
REMARK    2  A    between atoms: C_3  and  C_5
REMARK    3  A    between atoms: C_11  and  C_12
REMARK    4  A    between atoms: C_20  and  C_21
REMARK                            x       y       z     vdW  Elec       q    Type
REMARK                         _______ _______ _______ _____ _____    ______ ____
ROOT
ATOM      1  C   UNL     1      -3.263  13.361  21.509  0.00  0.00    +0.000 A 
ATOM      2  C   UNL     1      -4.268  13.526  22.449  0.00  0.00    +0.000 A 
ATOM      3  C   UNL     1      -5.549  13.042  22.190  0.00  0.00    +0.000 A 
ATOM      4  F   UNL     1      -6.478  13.232  23.143  0.00  0.00    +0.000 F 
ATOM      5  C   UNL     1      -5.884  12.365  21.020  0.00  0.00    +0.000 A 
ATOM      6  N   UNL     1      -7.148  11.932  20.864  0.00  0.00    +0.000 NA
ATOM      7  C   UNL     1      -7.467  11.263  19.745  0.00  0.00    +0.000 A 
ATOM      8  C   UNL     1      -6.555  10.966  18.755  0.00  0.00    +0.000 A 
ATOM      9  C   UNL     1      -5.223  11.399  18.877  0.00  0.00    +0.000 A 
ATOM     10  C   UNL     1      -4.878  12.160  20.043  0.00  0.00    +0.000 A 
ATOM     11  C   UNL     1      -3.595  12.729  20.301  0.00  0.00    +0.000 A 
ENDROOT
BRANCH   1  18
ATOM     12  C   UNL     1       1.076  12.365  19.869  0.00  0.00    +0.000 A 
ATOM     13  C   UNL     1       1.994  13.107  20.603  0.00  0.00    +0.000 A 
ATOM     14  N   UNL     1       1.683  14.008  21.573  0.00  0.00    +0.000 NA
ATOM     15  C   UNL     1       0.361  14.095  21.801  0.00  0.00    +0.000 A 
ATOM     16  N   UNL     1      -0.210  14.941  22.711  0.00  0.00    +0.000 N 
ATOM     17  C   UNL     1      -1.573  14.780  22.703  0.00  0.00    +0.000 A 
ATOM     18  C   UNL     1      -1.895  13.791  21.787  0.00  0.00    +0.000 A 
ATOM     19  C   UNL     1      -0.660  13.381  21.182  0.00  0.00    +0.000 A 
ATOM     20  C   UNL     1      -0.283  12.487  20.165  0.00  0.00    +0.000 A 
ATOM     21  H   UNL     1       0.319  15.583  23.283  0.00  0.00    +0.000 HD
BRANCH  12  24
ATOM     22  C   UNL     1       1.395   9.208  17.822  0.00  0.00    +0.000 C 
ATOM     23  N   UNL     1       0.996  10.189  18.798  0.00  0.00    +0.000 N 
ATOM     24  C   UNL     1       1.562  11.448  18.818  0.00  0.00    +0.000 C 
ATOM     25  O   UNL     1       2.410  11.822  18.019  0.00  0.00    +0.000 OA
ATOM     26  H   UNL     1       0.172   9.998  19.352  0.00  0.00    +0.000 HD
ENDBRANCH  12  24
ENDBRANCH   1  18
BRANCH   9  27
ATOM     27  C   UNL     1      -4.254  11.013  17.805  0.00  0.00    +0.000 A 
ATOM     28  C   UNL     1      -3.124  10.212  18.034  0.00  0.00    +0.000 A 
ATOM     29  C   UNL     1      -2.231   9.908  17.005  0.00  0.00    +0.000 A 
ATOM     30  C   UNL     1      -2.523  10.352  15.731  0.00  0.00    +0.000 A 
ATOM     31  N   UNL     1      -3.616  11.079  15.436  0.00  0.00    +0.000 NA
ATOM     32  C   UNL     1      -4.437  11.396  16.470  0.00  0.00    +0.000 A 
ENDBRANCH   9  27
TORSDOF 3
ENDMDL
MODEL 7
REMARK VINA RESULT:      -7.9      4.588      7.941
REMARK  Name = 
REMARK  4 active torsions:
REMARK  status: ('A' for Active; 'I' for Inactive)
REMARK    1  A    between atoms: C_1  and  N_2
REMARK    2  A    between atoms: C_3  and  C_5
REMARK    3  A    between atoms: C_11  and  C_12
REMARK    4  A    between atoms: C_20  and  C_21
REMARK                            x       y       z     vdW  Elec       q    Type
REMARK                         _______ _______ _______ _____ _____    ______ ____
ROOT
ATOM      1  C   UNL     1       1.018   9.486  20.363  0.00  0.00    +0.000 A 
ATOM      2  C   UNL     1       0.318   8.736  21.296  0.00  0.00    +0.000 A 
ATOM      3  C   UNL     1      -0.451   9.374  22.266  0.00  0.00    +0.000 A 
ATOM      4  F   UNL     1      -1.108   8.591  23.140  0.00  0.00    +0.000 F 
ATOM      5  C   UNL     1      -0.579  10.759  22.345  0.00  0.00    +0.000 A 
ATOM      6  N   UNL     1      -1.348  11.282  23.318  0.00  0.00    +0.000 NA
ATOM      7  C   UNL     1      -1.487  12.615  23.382  0.00  0.00    +0.000 A 
ATOM      8  C   UNL     1      -0.905  13.481  22.482  0.00  0.00    +0.000 A 
ATOM      9  C   UNL     1      -0.093  12.979  21.450  0.00  0.00    +0.000 A 
ATOM     10  C   UNL     1       0.107  11.559  21.398  0.00  0.00    +0.000 A 
ATOM     11  C   UNL     1       0.944  10.883  20.461  0.00  0.00    +0.000 A 
ENDROOT
BRANCH   1  18
ATOM     12  C   UNL     1       2.807   5.177  19.505  0.00  0.00    +0.000 A 
ATOM     13  C   UNL     1       3.469   5.222  18.283  0.00  0.00    +0.000 A 
ATOM     14  N   UNL     1       3.527   6.300  17.457  0.00  0.00    +0.000 NA
ATOM     15  C   UNL     1       2.899   7.378  17.961  0.00  0.00    +0.000 A 
ATOM     16  N   UNL     1       2.797   8.580  17.317  0.00  0.00    +0.000 N 
ATOM     17  C   UNL     1       2.104   9.468  18.101  0.00  0.00    +0.000 A 
ATOM     18  C   UNL     1       1.770   8.840  19.290  0.00  0.00    +0.000 A 
ATOM     19  C   UNL     1       2.245   7.490  19.183  0.00  0.00    +0.000 A 
ATOM     20  C   UNL     1       2.189   6.335  19.981  0.00  0.00    +0.000 A 
ATOM     21  H   UNL     1       3.178   8.755  16.399  0.00  0.00    +0.000 HD
BRANCH  12  24
ATOM     22  C   UNL     1       1.616   2.545  21.936  0.00  0.00    +0.000 C 
ATOM     23  N   UNL     1       1.728   3.732  21.128  0.00  0.00    +0.000 N 
ATOM     24  C   UNL     1       2.800   3.919  20.278  0.00  0.00    +0.000 C 
ATOM     25  O   UNL     1       3.702   3.105  20.137  0.00  0.00    +0.000 OA
ATOM     26  H   UNL     1       0.922   4.339  21.065  0.00  0.00    +0.000 HD
ENDBRANCH  12  24
ENDBRANCH   1  18
BRANCH   9  27
ATOM     27  C   UNL     1       0.478  13.948  20.465  0.00  0.00    +0.000 A 
ATOM     28  C   UNL     1      -0.293  14.624  19.507  0.00  0.00    +0.000 A 
ATOM     29  C   UNL     1       0.294  15.494  18.586  0.00  0.00    +0.000 A 
ATOM     30  C   UNL     1       1.649  15.737  18.686  0.00  0.00    +0.000 A 
ATOM     31  N   UNL     1       2.435  15.161  19.614  0.00  0.00    +0.000 NA
ATOM     32  C   UNL     1       1.838  14.285  20.462  0.00  0.00    +0.000 A 
ENDBRANCH   9  27
TORSDOF 3
ENDMDL
MODEL 8
REMARK VINA RESULT:      -7.8      5.206     10.281
REMARK  Name = 
REMARK  4 active torsions:
REMARK  status: ('A' for Active; 'I' for Inactive)
REMARK    1  A    between atoms: C_1  and  N_2
REMARK    2  A    between atoms: C_3  and  C_5
REMARK    3  A    between atoms: C_11  and  C_12
REMARK    4  A    between atoms: C_20  and  C_21
REMARK                            x       y       z     vdW  Elec       q    Type
REMARK                         _______ _______ _______ _____ _____    ______ ____
ROOT
ATOM      1  C   UNL     1       1.041   9.216  20.373  0.00  0.00    +0.000 A 
ATOM      2  C   UNL     1       1.444  10.109  19.391  0.00  0.00    +0.000 A 
ATOM      3  C   UNL     1       2.225   9.665  18.326  0.00  0.00    +0.000 A 
ATOM      4  F   UNL     1       2.580  10.579  17.406  0.00  0.00    +0.000 F 
ATOM      5  C   UNL     1       2.620   8.338  18.174  0.00  0.00    +0.000 A 
ATOM      6  N   UNL     1       3.373   8.007  17.109  0.00  0.00    +0.000 NA
ATOM      7  C   UNL     1       3.737   6.725  16.951  0.00  0.00    +0.000 A 
ATOM      8  C   UNL     1       3.354   5.718  17.811  0.00  0.00    +0.000 A 
ATOM      9  C   UNL     1       2.568   6.019  18.937  0.00  0.00    +0.000 A 
ATOM     10  C   UNL     1       2.212   7.393  19.148  0.00  0.00    +0.000 A 
ATOM     11  C   UNL     1       1.474   7.887  20.265  0.00  0.00    +0.000 A 
ENDROOT
BRANCH   1  18
ATOM     12  C   UNL     1      -1.514  13.066  21.447  0.00  0.00    +0.000 A 
ATOM     13  C   UNL     1      -2.120  12.849  22.680  0.00  0.00    +0.000 A 
ATOM     14  N   UNL     1      -2.040  11.703  23.408  0.00  0.00    +0.000 NA
ATOM     15  C   UNL     1      -1.260  10.773  22.830  0.00  0.00    +0.000 A 
ATOM     16  N   UNL     1      -1.033   9.528  23.351  0.00  0.00    +0.000 N 
ATOM     17  C   UNL     1      -0.190   8.827  22.525  0.00  0.00    +0.000 A 
ATOM     18  C   UNL     1       0.159   9.640  21.458  0.00  0.00    +0.000 A 
ATOM     19  C   UNL     1      -0.557  10.871  21.634  0.00  0.00    +0.000 A 
ATOM     20  C   UNL     1      -0.702  12.065  20.909  0.00  0.00    +0.000 A 
ATOM     21  H   UNL     1      -1.445   9.200  24.212  0.00  0.00    +0.000 HD
BRANCH  12  24
ATOM     22  C   UNL     1      -0.716  16.115  19.368  0.00  0.00    +0.000 C 
ATOM     23  N   UNL     1      -0.634  14.863  20.075  0.00  0.00    +0.000 N 
ATOM     24  C   UNL     1      -1.722  14.354  20.755  0.00  0.00    +0.000 C 
ATOM     25  O   UNL     1      -2.815  14.903  20.792  0.00  0.00    +0.000 OA
ATOM     26  H   UNL     1       0.179  14.283  19.918  0.00  0.00    +0.000 HD
ENDBRANCH  12  24
ENDBRANCH   1  18
BRANCH   9  27
ATOM     27  C   UNL     1       2.133   4.891  19.816  0.00  0.00    +0.000 A 
ATOM     28  C   UNL     1       1.208   3.912  19.419  0.00  0.00    +0.000 A 
ATOM     29  C   UNL     1       0.808   2.897  20.290  0.00  0.00    +0.000 A 
ATOM     30  C   UNL     1       1.400   2.830  21.535  0.00  0.00    +0.000 A 
ATOM     31  N   UNL     1       2.330   3.707  21.957  0.00  0.00    +0.000 NA
ATOM     32  C   UNL     1       2.660   4.708  21.101  0.00  0.00    +0.000 A 
ENDBRANCH   9  27
TORSDOF 3
ENDMDL
MODEL 9
REMARK VINA RESULT:      -7.8      9.872     12.689
REMARK  Name = 
REMARK  4 active torsions:
REMARK  status: ('A' for Active; 'I' for Inactive)
REMARK    1  A    between atoms: C_1  and  N_2
REMARK    2  A    between atoms: C_3  and  C_5
REMARK    3  A    between atoms: C_11  and  C_12
REMARK    4  A    between atoms: C_20  and  C_21
REMARK                            x       y       z     vdW  Elec       q    Type
REMARK                         _______ _______ _______ _____ _____    ______ ____
ROOT
ATOM      1  C   UNL     1      -0.991  12.152  18.929  0.00  0.00    +0.000 A 
ATOM      2  C   UNL     1      -0.480  11.251  19.851  0.00  0.00    +0.000 A 
ATOM      3  C   UNL     1       0.650  11.583  20.595  0.00  0.00    +0.000 A 
ATOM      4  F   UNL     1       1.094  10.668  21.475  0.00  0.00    +0.000 F 
ATOM      5  C   UNL     1       1.304  12.808  20.479  0.00  0.00    +0.000 A 
ATOM      6  N   UNL     1       2.388  13.036  21.244  0.00  0.00    +0.000 NA
ATOM      7  C   UNL     1       3.006  14.223  21.147  0.00  0.00    +0.000 A 
ATOM      8  C   UNL     1       2.571  15.238  20.322  0.00  0.00    +0.000 A 
ATOM      9  C   UNL     1       1.443  15.043  19.505  0.00  0.00    +0.000 A 
ATOM     10  C   UNL     1       0.800  13.761  19.559  0.00  0.00    +0.000 A 
ATOM     11  C   UNL     1      -0.314  13.368  18.760  0.00  0.00    +0.000 A 
ENDROOT
BRANCH   1  18
ATOM     12  C   UNL     1      -5.652  12.224  19.809  0.00  0.00    +0.000 A 
ATOM     13  C   UNL     1      -6.312  11.781  18.667  0.00  0.00    +0.000 A 
ATOM     14  N   UNL     1      -5.716  11.453  17.490  0.00  0.00    +0.000 NA
ATOM     15  C   UNL     1      -4.376  11.557  17.536  0.00  0.00    +0.000 A 
ATOM     16  N   UNL     1      -3.548  11.304  16.478  0.00  0.00    +0.000 N 
ATOM     17  C   UNL     1      -2.242  11.496  16.855  0.00  0.00    +0.000 A 
ATOM     18  C   UNL     1      -2.218  11.859  18.192  0.00  0.00    +0.000 A 
ATOM     19  C   UNL     1      -3.586  11.935  18.617  0.00  0.00    +0.000 A 
ATOM     20  C   UNL     1      -4.257  12.294  19.798  0.00  0.00    +0.000 A 
ATOM     21  H   UNL     1      -3.878  11.026  15.566  0.00  0.00    +0.000 HD
BRANCH  12  24
ATOM     22  C   UNL     1      -6.453  12.784  23.456  0.00  0.00    +0.000 C 
ATOM     23  N   UNL     1      -5.786  12.470  22.219  0.00  0.00    +0.000 N 
ATOM     24  C   UNL     1      -6.438  12.579  21.007  0.00  0.00    +0.000 C 
ATOM     25  O   UNL     1      -7.596  12.958  20.893  0.00  0.00    +0.000 OA
ATOM     26  H   UNL     1      -4.784  12.339  22.242  0.00  0.00    +0.000 HD
ENDBRANCH  12  24
ENDBRANCH   1  18
BRANCH   9  27
ATOM     27  C   UNL     1       0.975  16.186  18.663  0.00  0.00    +0.000 A 
ATOM     28  C   UNL     1      -0.371  16.573  18.562  0.00  0.00    +0.000 A 
ATOM     29  C   UNL     1      -0.762  17.627  17.735  0.00  0.00    +0.000 A 
ATOM     30  C   UNL     1       0.218  18.337  17.070  0.00  0.00    +0.000 A 
ATOM     31  N   UNL     1       1.529  18.049  17.165  0.00  0.00    +0.000 NA
ATOM     32  C   UNL     1       1.868  16.988  17.941  0.00  0.00    +0.000 A 
ENDBRANCH   9  27
TORSDOF 3
ENDMDL
