MODEL 1
REMARK VINA RESULT:      -7.8      0.000      0.000
REMARK  Name = 
REMARK  5 active torsions:
REMARK  status: ('A' for Active; 'I' for Inactive)
REMARK    1  A    between atoms: C_1  and  O_2
REMARK    2  A    between atoms: O_2  and  C_3
REMARK    3  A    between atoms: C_5  and  C_6
REMARK    4  A    between atoms: N_10  and  C_11
REMARK    5  A    between atoms: C_25  and  O_26
REMARK                            x       y       z     vdW  Elec       q    Type
REMARK                         _______ _______ _______ _____ _____    ______ ____
ROOT
ATOM      1  C   UNL     1       2.685   7.213  17.881  0.00  0.00    +0.000 C 
ATOM      2  C   UNL     1       2.074   7.961  18.807  0.00  0.00    +0.000 C 
ATOM      3  S   UNL     1       1.672   7.550  20.436  0.00  0.00    +0.000 S 
ATOM      4  C   UNL     1       1.044   9.150  20.761  0.00  0.00    +0.000 C 
ATOM      5  N   UNL     1       0.606   9.499  21.924  0.00  0.00    +0.000 NA
ATOM      6  N   UNL     1       1.106   9.902  19.627  0.00  0.00    +0.000 N 
ATOM      7  C   UNL     1       1.660   9.356  18.512  0.00  0.00    +0.000 C 
ATOM      8  O   UNL     1       1.805   9.930  17.445  0.00  0.00    +0.000 OA
ATOM      9  H   UNL     1       0.796  10.865  19.639  0.00  0.00    +0.000 HD
ENDROOT
BRANCH   5  10
ATOM     10  C   UNL     1       0.153  10.773  22.058  0.00  0.00    +0.000 A 
ATOM     11  N   UNL     1       0.698  11.860  21.550  0.00  0.00    +0.000 NA
ATOM     12  C   UNL     1      -0.056  12.976  21.842  0.00  0.00    +0.000 A 
ATOM     13  C   UNL     1       0.237  14.288  21.422  0.00  0.00    +0.000 A 
ATOM     14  C   UNL     1      -0.629  15.328  21.759  0.00  0.00    +0.000 A 
ATOM     15  C   UNL     1      -1.772  15.075  22.511  0.00  0.00    +0.000 A 
ATOM     16  C   UNL     1      -2.074  13.782  22.953  0.00  0.00    +0.000 A 
ATOM     17  C   UNL     1      -1.198  12.741  22.602  0.00  0.00    +0.000 A 
ATOM     18  S   UNL     1      -1.284  11.062  22.972  0.00  0.00    +0.000 S 
ENDBRANCH   5  10
BRANCH   1  21
ATOM     19  C   UNL     1       4.886   4.269  18.716  0.00  0.00    +0.000 A 
ATOM     20  C   UNL     1       4.438   5.579  18.500  0.00  0.00    +0.000 A 
ATOM     21  C   UNL     1       3.131   5.836  18.075  0.00  0.00    +0.000 A 
ATOM     22  C   UNL     1       2.257   4.772  17.851  0.00  0.00    +0.000 A 
ATOM     23  C   UNL     1       2.689   3.463  18.059  0.00  0.00    +0.000 A 
ATOM     24  C   UNL     1       3.996   3.211  18.495  0.00  0.00    +0.000 A 
BRANCH  19  26
ATOM     25  C   UNL     1       6.887   5.442  19.298  0.00  0.00    +0.000 C 
ATOM     26  O   UNL     1       6.187   4.217  19.138  0.00  0.00    +0.000 OA
ENDBRANCH  19  26
BRANCH  24  27
ATOM     27  O   UNL     1       4.366   1.910  18.695  0.00  0.00    +0.000 OA
ATOM     28  H   UNL     1       3.733   1.487  19.296  0.00  0.00    +0.000 HD
ENDBRANCH  24  27
ENDBRANCH   1  21
TORSDOF 4
ENDMDL
MODEL 2
REMARK VINA RESULT:      -7.8      2.574      3.101
REMARK  Name = 
REMARK  5 active torsions:
REMARK  status: ('A' for Active; 'I' for Inactive)
REMARK    1  A    between atoms: C_1  and  O_2
REMARK    2  A    between atoms: O_2  and  C_3
REMARK    3  A    between atoms: C_5  and  C_6
REMARK    4  A    between atoms: N_10  and  C_11
REMARK    5  A    between atoms: C_25  and  O_26
REMARK                            x       y       z     vdW  Elec       q    Type
REMARK                         _______ _______ _______ _____ _____    ______ ____
ROOT
ATOM      1  C   UNL     1       3.539   5.628  18.717  0.00  0.00    +0.000 C 
ATOM      2  C   UNL     1       2.872   6.774  18.890  0.00  0.00    +0.000 C 
ATOM      3  S   UNL     1       2.904   8.201  17.916  0.00  0.00    +0.000 S 
ATOM      4  C   UNL     1       1.691   8.988  18.899  0.00  0.00    +0.000 C 
ATOM      5  N   UNL     1       1.224  10.158  18.619  0.00  0.00    +0.000 NA
ATOM      6  N   UNL     1       1.358   8.179  19.944  0.00  0.00    +0.000 N 
ATOM      7  C   UNL     1       1.932   6.949  20.026  0.00  0.00    +0.000 C 
ATOM      8  O   UNL     1       1.697   6.119  20.888  0.00  0.00    +0.000 OA
ATOM      9  H   UNL     1       0.654   8.473  20.609  0.00  0.00    +0.000 HD
ENDROOT
BRANCH   5  10
ATOM     10  C   UNL     1       0.275  10.662  19.451  0.00  0.00    +0.000 A 
ATOM     11  N   UNL     1       0.283  10.622  20.769  0.00  0.00    +0.000 NA
ATOM     12  C   UNL     1      -0.812  11.277  21.291  0.00  0.00    +0.000 A 
ATOM     13  C   UNL     1      -1.086  11.438  22.663  0.00  0.00    +0.000 A 
ATOM     14  C   UNL     1      -2.215  12.154  23.061  0.00  0.00    +0.000 A 
ATOM     15  C   UNL     1      -3.072  12.699  22.109  0.00  0.00    +0.000 A 
ATOM     16  C   UNL     1      -2.829  12.537  20.741  0.00  0.00    +0.000 A 
ATOM     17  C   UNL     1      -1.685  11.820  20.352  0.00  0.00    +0.000 A 
ATOM     18  S   UNL     1      -1.101  11.454  18.774  0.00  0.00    +0.000 S 
ENDBRANCH   5  10
BRANCH   1  21
ATOM     19  C   UNL     1       6.574   5.877  16.496  0.00  0.00    +0.000 A 
ATOM     20  C   UNL     1       5.642   6.127  17.512  0.00  0.00    +0.000 A 
ATOM     21  C   UNL     1       4.481   5.359  17.634  0.00  0.00    +0.000 A 
ATOM     22  C   UNL     1       4.235   4.330  16.725  0.00  0.00    +0.000 A 
ATOM     23  C   UNL     1       5.152   4.070  15.707  0.00  0.00    +0.000 A 
ATOM     24  C   UNL     1       6.319   4.835  15.595  0.00  0.00    +0.000 A 
BRANCH  19  26
ATOM     25  C   UNL     1       7.628   7.777  17.493  0.00  0.00    +0.000 C 
ATOM     26  O   UNL     1       7.648   6.723  16.543  0.00  0.00    +0.000 OA
ENDBRANCH  19  26
BRANCH  24  27
ATOM     27  O   UNL     1       7.191   4.532  14.586  0.00  0.00    +0.000 OA
ATOM     28  H   UNL     1       6.798   3.851  14.019  0.00  0.00    +0.000 HD
ENDBRANCH  24  27
ENDBRANCH   1  21
TORSDOF 4
ENDMDL
MODEL 3
REMARK VINA RESULT:      -7.7      0.795      1.923
REMARK  Name = 
REMARK  5 active torsions:
REMARK  status: ('A' for Active; 'I' for Inactive)
REMARK    1  A    between atoms: C_1  and  O_2
REMARK    2  A    between atoms: O_2  and  C_3
REMARK    3  A    between atoms: C_5  and  C_6
REMARK    4  A    between atoms: N_10  and  C_11
REMARK    5  A    between atoms: C_25  and  O_26
REMARK                            x       y       z     vdW  Elec       q    Type
REMARK                         _______ _______ _______ _____ _____    ______ ____
ROOT
ATOM      1  C   UNL     1       2.746   6.949  18.184  0.00  0.00    +0.000 C 
ATOM      2  C   UNL     1       2.128   7.765  19.046  0.00  0.00    +0.000 C 
ATOM      3  S   UNL     1       1.829   7.531  20.731  0.00  0.00    +0.000 S 
ATOM      4  C   UNL     1       1.110   9.117  20.898  0.00  0.00    +0.000 C 
ATOM      5  N   UNL     1       0.703   9.577  22.033  0.00  0.00    +0.000 NA
ATOM      6  N   UNL     1       1.069   9.728  19.681  0.00  0.00    +0.000 N 
ATOM      7  C   UNL     1       1.608   9.085  18.610  0.00  0.00    +0.000 C 
ATOM      8  O   UNL     1       1.666   9.534  17.477  0.00  0.00    +0.000 OA
ATOM      9  H   UNL     1       0.696  10.664  19.595  0.00  0.00    +0.000 HD
ENDROOT
BRANCH   5  10
ATOM     10  C   UNL     1       0.171  10.828  22.039  0.00  0.00    +0.000 A 
ATOM     11  N   UNL     1       0.674  11.899  21.458  0.00  0.00    +0.000 NA
ATOM     12  C   UNL     1      -0.156  12.988  21.625  0.00  0.00    +0.000 A 
ATOM     13  C   UNL     1       0.078  14.275  21.103  0.00  0.00    +0.000 A 
ATOM     14  C   UNL     1      -0.860  15.285  21.317  0.00  0.00    +0.000 A 
ATOM     15  C   UNL     1      -2.017  15.027  22.046  0.00  0.00    +0.000 A 
ATOM     16  C   UNL     1      -2.262  13.760  22.587  0.00  0.00    +0.000 A 
ATOM     17  C   UNL     1      -1.313  12.748  22.360  0.00  0.00    +0.000 A 
ATOM     18  S   UNL     1      -1.316  11.104  22.871  0.00  0.00    +0.000 S 
ENDBRANCH   5  10
BRANCH   1  21
ATOM     19  C   UNL     1       3.007   3.218  18.655  0.00  0.00    +0.000 A 
ATOM     20  C   UNL     1       2.502   4.493  18.366  0.00  0.00    +0.000 A 
ATOM     21  C   UNL     1       3.292   5.636  18.516  0.00  0.00    +0.000 A 
ATOM     22  C   UNL     1       4.605   5.512  18.971  0.00  0.00    +0.000 A 
ATOM     23  C   UNL     1       5.122   4.250  19.264  0.00  0.00    +0.000 A 
ATOM     24  C   UNL     1       4.330   3.107  19.103  0.00  0.00    +0.000 A 
BRANCH  19  26
ATOM     25  C   UNL     1       0.743   2.466  18.809  0.00  0.00    +0.000 C 
ATOM     26  O   UNL     1       2.092   2.224  18.439  0.00  0.00    +0.000 OA
ENDBRANCH  19  26
BRANCH  24  27
ATOM     27  O   UNL     1       4.887   1.894  19.394  0.00  0.00    +0.000 OA
ATOM     28  H   UNL     1       4.334   1.436  20.046  0.00  0.00    +0.000 HD
ENDBRANCH  24  27
ENDBRANCH   1  21
TORSDOF 4
ENDMDL
MODEL 4
REMARK VINA RESULT:      -7.4      2.236      2.647
REMARK  Name = 
REMARK  5 active torsions:
REMARK  status: ('A' for Active; 'I' for Inactive)
REMARK    1  A    between atoms: C_1  and  O_2
REMARK    2  A    between atoms: O_2  and  C_3
REMARK    3  A    between atoms: C_5  and  C_6
REMARK    4  A    between atoms: N_10  and  C_11
REMARK    5  A    between atoms: C_25  and  O_26
REMARK                            x       y       z     vdW  Elec       q    Type
REMARK                         _______ _______ _______ _____ _____    ______ ____
ROOT
ATOM      1  C   UNL     1       2.767   6.270  19.806  0.00  0.00    +0.000 C 
ATOM      2  C   UNL     1       2.221   7.464  19.546  0.00  0.00    +0.000 C 
ATOM      3  S   UNL     1       2.274   8.380  18.083  0.00  0.00    +0.000 S 
ATOM      4  C   UNL     1       1.242   9.629  18.741  0.00  0.00    +0.000 C 
ATOM      5  N   UNL     1       0.851  10.643  18.046  0.00  0.00    +0.000 NA
ATOM      6  N   UNL     1       0.952   9.339  20.041  0.00  0.00    +0.000 N 
ATOM      7  C   UNL     1       1.423   8.180  20.572  0.00  0.00    +0.000 C 
ATOM      8  O   UNL     1       1.209   7.788  21.708  0.00  0.00    +0.000 OA
ATOM      9  H   UNL     1       0.349   9.952  20.575  0.00  0.00    +0.000 HD
ENDROOT
BRANCH   5  10
ATOM     10  C   UNL     1       0.040  11.542  18.663  0.00  0.00    +0.000 A 
ATOM     11  N   UNL     1      -1.205  11.345  19.049  0.00  0.00    +0.000 NA
ATOM     12  C   UNL     1      -1.707  12.457  19.690  0.00  0.00    +0.000 A 
ATOM     13  C   UNL     1      -2.997  12.562  20.246  0.00  0.00    +0.000 A 
ATOM     14  C   UNL     1      -3.372  13.736  20.900  0.00  0.00    +0.000 A 
ATOM     15  C   UNL     1      -2.481  14.801  20.996  0.00  0.00    +0.000 A 
ATOM     16  C   UNL     1      -1.201  14.725  20.437  0.00  0.00    +0.000 A 
ATOM     17  C   UNL     1      -0.832  13.535  19.787  0.00  0.00    +0.000 A 
ATOM     18  S   UNL     1       0.649  13.119  19.013  0.00  0.00    +0.000 S 
ENDBRANCH   5  10
BRANCH   1  21
ATOM     19  C   UNL     1       5.733   4.619  18.168  0.00  0.00    +0.000 A 
ATOM     20  C   UNL     1       4.946   5.381  19.042  0.00  0.00    +0.000 A 
ATOM     21  C   UNL     1       3.564   5.488  18.866  0.00  0.00    +0.000 A 
ATOM     22  C   UNL     1       2.953   4.834  17.795  0.00  0.00    +0.000 A 
ATOM     23  C   UNL     1       3.722   4.073  16.916  0.00  0.00    +0.000 A 
ATOM     24  C   UNL     1       5.105   3.961  17.103  0.00  0.00    +0.000 A 
BRANCH  19  26
ATOM     25  C   UNL     1       7.567   5.759  19.195  0.00  0.00    +0.000 C 
ATOM     26  O   UNL     1       7.059   4.626  18.506  0.00  0.00    +0.000 OA
ENDBRANCH  19  26
BRANCH  24  27
ATOM     27  O   UNL     1       5.812   3.195  16.218  0.00  0.00    +0.000 OA
ATOM     28  H   UNL     1       5.396   3.250  15.345  0.00  0.00    +0.000 HD
ENDBRANCH  24  27
ENDBRANCH   1  21
TORSDOF 4
ENDMDL
MODEL 5
REMARK VINA RESULT:      -7.3      2.550      3.123
REMARK  Name = 
REMARK  5 active torsions:
REMARK  status: ('A' for Active; 'I' for Inactive)
REMARK    1  A    between atoms: C_1  and  O_2
REMARK    2  A    between atoms: O_2  and  C_3
REMARK    3  A    between atoms: C_5  and  C_6
REMARK    4  A    between atoms: N_10  and  C_11
REMARK    5  A    between atoms: C_25  and  O_26
REMARK                            x       y       z     vdW  Elec       q    Type
REMARK                         _______ _______ _______ _____ _____    ______ ____
ROOT
ATOM      1  C   UNL     1       1.533   6.031  20.851  0.00  0.00    +0.000 C 
ATOM      2  C   UNL     1       1.580   7.249  20.299  0.00  0.00    +0.000 C 
ATOM      3  S   UNL     1       2.140   7.703  18.728  0.00  0.00    +0.000 S 
ATOM      4  C   UNL     1       1.701   9.377  18.975  0.00  0.00    +0.000 C 
ATOM      5  N   UNL     1       1.843  10.274  18.057  0.00  0.00    +0.000 NA
ATOM      6  N   UNL     1       1.212   9.538  20.237  0.00  0.00    +0.000 N 
ATOM      7  C   UNL     1       1.092   8.443  21.034  0.00  0.00    +0.000 C 
ATOM      8  O   UNL     1       0.640   8.444  22.167  0.00  0.00    +0.000 OA
ATOM      9  H   UNL     1       0.893  10.447  20.546  0.00  0.00    +0.000 HD
ENDROOT
BRANCH   5  10
ATOM     10  C   UNL     1       1.455  11.540  18.363  0.00  0.00    +0.000 A 
ATOM     11  N   UNL     1       0.272  11.915  18.808  0.00  0.00    +0.000 NA
ATOM     12  C   UNL     1       0.246  13.270  19.063  0.00  0.00    +0.000 A 
ATOM     13  C   UNL     1      -0.859  13.979  19.573  0.00  0.00    +0.000 A 
ATOM     14  C   UNL     1      -0.744  15.348  19.818  0.00  0.00    +0.000 A 
ATOM     15  C   UNL     1       0.450  16.011  19.553  0.00  0.00    +0.000 A 
ATOM     16  C   UNL     1       1.555  15.330  19.031  0.00  0.00    +0.000 A 
ATOM     17  C   UNL     1       1.430  13.950  18.794  0.00  0.00    +0.000 A 
ATOM     18  S   UNL     1       2.584  12.832  18.176  0.00  0.00    +0.000 S 
ENDBRANCH   5  10
BRANCH   1  21
ATOM     19  C   UNL     1       3.809   3.429  19.350  0.00  0.00    +0.000 A 
ATOM     20  C   UNL     1       3.344   4.610  19.944  0.00  0.00    +0.000 A 
ATOM     21  C   UNL     1       1.985   4.800  20.210  0.00  0.00    +0.000 A 
ATOM     22  C   UNL     1       1.070   3.804  19.870  0.00  0.00    +0.000 A 
ATOM     23  C   UNL     1       1.517   2.624  19.276  0.00  0.00    +0.000 A 
ATOM     24  C   UNL     1       2.881   2.434  19.021  0.00  0.00    +0.000 A 
BRANCH  19  26
ATOM     25  C   UNL     1       5.759   4.514  18.490  0.00  0.00    +0.000 C 
ATOM     26  O   UNL     1       5.167   3.422  19.178  0.00  0.00    +0.000 OA
ENDBRANCH  19  26
BRANCH  24  27
ATOM     27  O   UNL     1       3.268   1.255  18.448  0.00  0.00    +0.000 OA
ATOM     28  H   UNL     1       3.685   0.695  19.121  0.00  0.00    +0.000 HD
ENDBRANCH  24  27
ENDBRANCH   1  21
TORSDOF 4
ENDMDL
MODEL 6
REMARK VINA RESULT:      -7.2      2.398      2.668
REMARK  Name = 
REMARK  5 active torsions:
REMARK  status: ('A' for Active; 'I' for Inactive)
REMARK    1  A    between atoms: C_1  and  O_2
REMARK    2  A    between atoms: O_2  and  C_3
REMARK    3  A    between atoms: C_5  and  C_6
REMARK    4  A    between atoms: N_10  and  C_11
REMARK    5  A    between atoms: C_25  and  O_26
REMARK                            x       y       z     vdW  Elec       q    Type
REMARK                         _______ _______ _______ _____ _____    ______ ____
ROOT
ATOM      1  C   UNL     1       2.965   6.371  19.305  0.00  0.00    +0.000 C 
ATOM      2  C   UNL     1       2.286   7.523  19.258  0.00  0.00    +0.000 C 
ATOM      3  S   UNL     1       2.114   8.623  17.938  0.00  0.00    +0.000 S 
ATOM      4  C   UNL     1       1.033   9.657  18.844  0.00  0.00    +0.000 C 
ATOM      5  N   UNL     1       0.483  10.705  18.330  0.00  0.00    +0.000 NA
ATOM      6  N   UNL     1       0.895   9.171  20.110  0.00  0.00    +0.000 N 
ATOM      7  C   UNL     1       1.523   8.010  20.435  0.00  0.00    +0.000 C 
ATOM      8  O   UNL     1       1.454   7.452  21.518  0.00  0.00    +0.000 OA
ATOM      9  H   UNL     1       0.289   9.640  20.770  0.00  0.00    +0.000 HD
ENDROOT
BRANCH   5  10
ATOM     10  C   UNL     1      -0.348  11.424  19.130  0.00  0.00    +0.000 A 
ATOM     11  N   UNL     1      -0.009  12.107  20.206  0.00  0.00    +0.000 NA
ATOM     12  C   UNL     1      -1.099  12.758  20.743  0.00  0.00    +0.000 A 
ATOM     13  C   UNL     1      -1.070  13.593  21.877  0.00  0.00    +0.000 A 
ATOM     14  C   UNL     1      -2.241  14.222  22.299  0.00  0.00    +0.000 A 
ATOM     15  C   UNL     1      -3.434  14.021  21.610  0.00  0.00    +0.000 A 
ATOM     16  C   UNL     1      -3.490  13.183  20.491  0.00  0.00    +0.000 A 
ATOM     17  C   UNL     1      -2.302  12.560  20.071  0.00  0.00    +0.000 A 
ATOM     18  S   UNL     1      -2.029  11.494  18.747  0.00  0.00    +0.000 S 
ENDBRANCH   5  10
BRANCH   1  21
ATOM     19  C   UNL     1       5.655   5.949  16.699  0.00  0.00    +0.000 A 
ATOM     20  C   UNL     1       4.879   6.476  17.739  0.00  0.00    +0.000 A 
ATOM     21  C   UNL     1       3.742   5.809  18.204  0.00  0.00    +0.000 A 
ATOM     22  C   UNL     1       3.364   4.600  17.618  0.00  0.00    +0.000 A 
ATOM     23  C   UNL     1       4.126   4.064  16.581  0.00  0.00    +0.000 A 
ATOM     24  C   UNL     1       5.269   4.731  16.126  0.00  0.00    +0.000 A 
BRANCH  19  26
ATOM     25  C   UNL     1       7.454   7.330  17.457  0.00  0.00    +0.000 C 
ATOM     26  O   UNL     1       6.731   6.737  16.389  0.00  0.00    +0.000 OA
ENDBRANCH  19  26
BRANCH  24  27
ATOM     27  O   UNL     1       5.988   4.157  15.114  0.00  0.00    +0.000 OA
ATOM     28  H   UNL     1       5.401   3.991  14.360  0.00  0.00    +0.000 HD
ENDBRANCH  24  27
ENDBRANCH   1  21
TORSDOF 4
ENDMDL
MODEL 7
REMARK VINA RESULT:      -7.2      3.289      9.752
REMARK  Name = 
REMARK  5 active torsions:
REMARK  status: ('A' for Active; 'I' for Inactive)
REMARK    1  A    between atoms: C_1  and  O_2
REMARK    2  A    between atoms: O_2  and  C_3
REMARK    3  A    between atoms: C_5  and  C_6
REMARK    4  A    between atoms: N_10  and  C_11
REMARK    5  A    between atoms: C_25  and  O_26
REMARK                            x       y       z     vdW  Elec       q    Type
REMARK                         _______ _______ _______ _____ _____    ______ ____
ROOT
ATOM      1  C   UNL     1      -1.184  12.297  20.830  0.00  0.00    +0.000 C 
ATOM      2  C   UNL     1      -0.460  11.173  20.771  0.00  0.00    +0.000 C 
ATOM      3  S   UNL     1      -0.042  10.088  22.050  0.00  0.00    +0.000 S 
ATOM      4  C   UNL     1       0.766   8.991  20.954  0.00  0.00    +0.000 C 
ATOM      5  N   UNL     1       1.284   7.876  21.346  0.00  0.00    +0.000 NA
ATOM      6  N   UNL     1       0.742   9.509  19.694  0.00  0.00    +0.000 N 
ATOM      7  C   UNL     1       0.090  10.683  19.483  0.00  0.00    +0.000 C 
ATOM      8  O   UNL     1      -0.034  11.234  18.402  0.00  0.00    +0.000 OA
ATOM      9  H   UNL     1       1.154   8.994  18.926  0.00  0.00    +0.000 HD
ENDROOT
BRANCH   5  10
ATOM     10  C   UNL     1       1.876   7.101  20.400  0.00  0.00    +0.000 A 
ATOM     11  N   UNL     1       2.591   7.520  19.374  0.00  0.00    +0.000 NA
ATOM     12  C   UNL     1       3.083   6.457  18.647  0.00  0.00    +0.000 A 
ATOM     13  C   UNL     1       3.906   6.563  17.508  0.00  0.00    +0.000 A 
ATOM     14  C   UNL     1       4.365   5.405  16.881  0.00  0.00    +0.000 A 
ATOM     15  C   UNL     1       4.008   4.152  17.370  0.00  0.00    +0.000 A 
ATOM     16  C   UNL     1       3.178   4.023  18.490  0.00  0.00    +0.000 A 
ATOM     17  C   UNL     1       2.727   5.197  19.118  0.00  0.00    +0.000 A 
ATOM     18  S   UNL     1       1.718   5.385  20.500  0.00  0.00    +0.000 S 
ENDBRANCH   5  10
BRANCH   1  21
ATOM     19  C   UNL     1      -3.571  12.889  23.686  0.00  0.00    +0.000 A 
ATOM     20  C   UNL     1      -2.998  12.386  22.510  0.00  0.00    +0.000 A 
ATOM     21  C   UNL     1      -1.767  12.857  22.045  0.00  0.00    +0.000 A 
ATOM     22  C   UNL     1      -1.098  13.854  22.756  0.00  0.00    +0.000 A 
ATOM     23  C   UNL     1      -1.656  14.366  23.926  0.00  0.00    +0.000 A 
ATOM     24  C   UNL     1      -2.885  13.884  24.393  0.00  0.00    +0.000 A 
BRANCH  19  26
ATOM     25  C   UNL     1      -5.959  13.014  23.685  0.00  0.00    +0.000 C 
ATOM     26  O   UNL     1      -4.770  12.300  23.985  0.00  0.00    +0.000 OA
ENDBRANCH  19  26
BRANCH  24  27
ATOM     27  O   UNL     1      -3.383  14.412  25.552  0.00  0.00    +0.000 OA
ATOM     28  H   UNL     1      -2.909  14.030  26.306  0.00  0.00    +0.000 HD
ENDBRANCH  24  27
ENDBRANCH   1  21
TORSDOF 4
ENDMDL
MODEL 8
REMARK VINA RESULT:      -7.1      2.504      2.954
REMARK  Name = 
REMARK  5 active torsions:
REMARK  status: ('A' for Active; 'I' for Inactive)
REMARK    1  A    between atoms: C_1  and  O_2
REMARK    2  A    between atoms: O_2  and  C_3
REMARK    3  A    between atoms: C_5  and  C_6
REMARK    4  A    between atoms: N_10  and  C_11
REMARK    5  A    between atoms: C_25  and  O_26
REMARK                            x       y       z     vdW  Elec       q    Type
REMARK                         _______ _______ _______ _____ _____    ______ ____
ROOT
ATOM      1  C   UNL     1       3.237   6.100  19.018  0.00  0.00    +0.000 C 
ATOM      2  C   UNL     1       2.615   7.284  18.973  0.00  0.00    +0.000 C 
ATOM      3  S   UNL     1       2.656   8.479  17.725  0.00  0.00    +0.000 S 
ATOM      4  C   UNL     1       1.510   9.500  18.565  0.00  0.00    +0.000 C 
ATOM      5  N   UNL     1       1.072  10.606  18.065  0.00  0.00    +0.000 NA
ATOM      6  N   UNL     1       1.193   8.936  19.764  0.00  0.00    +0.000 N 
ATOM      7  C   UNL     1       1.728   7.726  20.078  0.00  0.00    +0.000 C 
ATOM      8  O   UNL     1       1.500   7.100  21.100  0.00  0.00    +0.000 OA
ATOM      9  H   UNL     1       0.527   9.388  20.377  0.00  0.00    +0.000 HD
ENDROOT
BRANCH   5  10
ATOM     10  C   UNL     1       0.175  11.308  18.807  0.00  0.00    +0.000 A 
ATOM     11  N   UNL     1      -1.138  11.275  18.692  0.00  0.00    +0.000 NA
ATOM     12  C   UNL     1      -1.738  12.074  19.642  0.00  0.00    +0.000 A 
ATOM     13  C   UNL     1      -3.128  12.237  19.806  0.00  0.00    +0.000 A 
ATOM     14  C   UNL     1      -3.608  13.051  20.831  0.00  0.00    +0.000 A 
ATOM     15  C   UNL     1      -2.723  13.707  21.682  0.00  0.00    +0.000 A 
ATOM     16  C   UNL     1      -1.339  13.573  21.526  0.00  0.00    +0.000 A 
ATOM     17  C   UNL     1      -0.866  12.744  20.494  0.00  0.00    +0.000 A 
ATOM     18  S   UNL     1       0.752  12.362  20.046  0.00  0.00    +0.000 S 
ENDBRANCH   5  10
BRANCH   1  21
ATOM     19  C   UNL     1       6.196   5.753  16.710  0.00  0.00    +0.000 A 
ATOM     20  C   UNL     1       5.315   6.245  17.683  0.00  0.00    +0.000 A 
ATOM     21  C   UNL     1       4.124   5.577  17.983  0.00  0.00    +0.000 A 
ATOM     22  C   UNL     1       3.798   4.407  17.298  0.00  0.00    +0.000 A 
ATOM     23  C   UNL     1       4.664   3.907  16.327  0.00  0.00    +0.000 A 
ATOM     24  C   UNL     1       5.860   4.573  16.036  0.00  0.00    +0.000 A 
BRANCH  19  26
ATOM     25  C   UNL     1       7.636   7.438  17.608  0.00  0.00    +0.000 C 
ATOM     26  O   UNL     1       7.311   6.534  16.563  0.00  0.00    +0.000 OA
ENDBRANCH  19  26
BRANCH  24  27
ATOM     27  O   UNL     1       6.680   4.035  15.083  0.00  0.00    +0.000 OA
ATOM     28  H   UNL     1       7.484   4.572  15.013  0.00  0.00    +0.000 HD
ENDBRANCH  24  27
ENDBRANCH   1  21
TORSDOF 4
ENDMDL
MODEL 9
REMARK VINA RESULT:      -7.1      3.219      9.614
REMARK  Name = 
REMARK  5 active torsions:
REMARK  status: ('A' for Active; 'I' for Inactive)
REMARK    1  A    between atoms: C_1  and  O_2
REMARK    2  A    between atoms: O_2  and  C_3
REMARK    3  A    between atoms: C_5  and  C_6
REMARK    4  A    between atoms: N_10  and  C_11
REMARK    5  A    between atoms: C_25  and  O_26
REMARK                            x       y       z     vdW  Elec       q    Type
REMARK                         _______ _______ _______ _____ _____    ______ ____
ROOT
ATOM      1  C   UNL     1      -1.264  12.199  20.809  0.00  0.00    +0.000 C 
ATOM      2  C   UNL     1      -0.521  11.087  20.758  0.00  0.00    +0.000 C 
ATOM      3  S   UNL     1      -0.043  10.046  22.051  0.00  0.00    +0.000 S 
ATOM      4  C   UNL     1       0.752   8.935  20.960  0.00  0.00    +0.000 C 
ATOM      5  N   UNL     1       1.303   7.840  21.365  0.00  0.00    +0.000 NA
ATOM      6  N   UNL     1       0.679   9.417  19.687  0.00  0.00    +0.000 N 
ATOM      7  C   UNL     1      -0.002  10.573  19.466  0.00  0.00    +0.000 C 
ATOM      8  O   UNL     1      -0.170  11.092  18.375  0.00  0.00    +0.000 OA
ATOM      9  H   UNL     1       1.076   8.889  18.921  0.00  0.00    +0.000 HD
ENDROOT
BRANCH   5  10
ATOM     10  C   UNL     1       1.880   7.051  20.421  0.00  0.00    +0.000 A 
ATOM     11  N   UNL     1       2.636   7.448  19.417  0.00  0.00    +0.000 NA
ATOM     12  C   UNL     1       3.095   6.373  18.687  0.00  0.00    +0.000 A 
ATOM     13  C   UNL     1       3.947   6.455  17.568  0.00  0.00    +0.000 A 
ATOM     14  C   UNL     1       4.367   5.285  16.935  0.00  0.00    +0.000 A 
ATOM     15  C   UNL     1       3.941   4.044  17.400  0.00  0.00    +0.000 A 
ATOM     16  C   UNL     1       3.082   3.940  18.499  0.00  0.00    +0.000 A 
ATOM     17  C   UNL     1       2.671   5.125  19.133  0.00  0.00    +0.000 A 
ATOM     18  S   UNL     1       1.641   5.343  20.495  0.00  0.00    +0.000 S 
ENDBRANCH   5  10
BRANCH   1  21
ATOM     19  C   UNL     1      -1.558  14.236  23.967  0.00  0.00    +0.000 A 
ATOM     20  C   UNL     1      -1.043  13.644  22.806  0.00  0.00    +0.000 A 
ATOM     21  C   UNL     1      -1.820  12.782  22.027  0.00  0.00    +0.000 A 
ATOM     22  C   UNL     1      -3.129  12.493  22.414  0.00  0.00    +0.000 A 
ATOM     23  C   UNL     1      -3.655  13.072  23.568  0.00  0.00    +0.000 A 
ATOM     24  C   UNL     1      -2.876  13.944  24.339  0.00  0.00    +0.000 A 
BRANCH  19  26
ATOM     25  C   UNL     1      -0.662  16.434  24.252  0.00  0.00    +0.000 C 
ATOM     26  O   UNL     1      -0.656  15.055  24.589  0.00  0.00    +0.000 OA
ENDBRANCH  19  26
BRANCH  24  27
ATOM     27  O   UNL     1      -3.444  14.494  25.455  0.00  0.00    +0.000 OA
ATOM     28  H   UNL     1      -3.658  13.788  26.085  0.00  0.00    +0.000 HD
ENDBRANCH  24  27
ENDBRANCH   1  21
TORSDOF 4
ENDMDL
