MODEL 1
REMARK VINA RESULT:      -9.0      0.000      0.000
REMARK  Name = 
REMARK  8 active torsions:
REMARK  status: ('A' for Active; 'I' for Inactive)
REMARK    1  A    between atoms: C_1  and  C_2
REMARK    2  A    between atoms: C_2  and  C_4
REMARK    3  A    between atoms: C_8  and  N_9
REMARK    4  A    between atoms: N_12  and  C_13
REMARK    5  A    between atoms: N_21  and  C_22
REMARK    6  A    between atoms: C_22  and  C_23
REMARK    7  A    between atoms: C_23  and  C_24
REMARK    8  A    between atoms: C_23  and  C_25
REMARK                            x       y       z     vdW  Elec       q    Type
REMARK                         _______ _______ _______ _____ _____    ______ ____
ROOT
ATOM      1  N   UNL     1       1.290   7.854  21.385  0.00  0.00    +0.000 N 
ATOM      2  C   UNL     1       1.955   7.508  20.233  0.00  0.00    +0.000 C 
ATOM      3  O   UNL     1       2.028   8.205  19.219  0.00  0.00    +0.000 OA
ATOM      4  N   UNL     1       2.529   6.252  20.243  0.00  0.00    +0.000 N 
ATOM      5  H   UNL     1       1.473   7.306  22.218  0.00  0.00    +0.000 HD
ATOM      6  H   UNL     1       2.743   5.807  21.125  0.00  0.00    +0.000 HD
ENDROOT
BRANCH   4   7
ATOM      7  C   UNL     1       3.178   5.793  19.009  0.00  0.00    +0.000 C 
ATOM      8  C   UNL     1       4.522   5.097  19.272  0.00  0.00    +0.000 C 
ATOM      9  C   UNL     1       4.700   3.696  18.691  0.00  0.00    +0.000 C 
ATOM     10  C   UNL     1       4.220   2.578  19.630  0.00  0.00    +0.000 C 
ATOM     11  C   UNL     1       2.732   2.254  19.591  0.00  0.00    +0.000 C 
ATOM     12  C   UNL     1       2.024   2.598  18.288  0.00  0.00    +0.000 C 
ATOM     13  C   UNL     1       2.646   3.745  17.478  0.00  0.00    +0.000 C 
ATOM     14  C   UNL     1       2.223   5.125  18.015  0.00  0.00    +0.000 C 
ATOM     15  N   UNL     1       4.101   3.546  17.363  0.00  0.00    +0.000 NA
BRANCH  15  16
ATOM     16  C   UNL     1       4.703   4.402  16.323  0.00  0.00    +0.000 C 
BRANCH  16  17
ATOM     17  C   UNL     1       6.019   3.892  15.684  0.00  0.00    +0.000 C 
ATOM     18  C   UNL     1       6.009   3.978  14.157  0.00  0.00    +0.000 C 
ATOM     19  C   UNL     1       7.199   4.689  16.247  0.00  0.00    +0.000 C 
ENDBRANCH  16  17
ENDBRANCH  15  16
ENDBRANCH   4   7
BRANCH   1  24
ATOM     20  C   UNL     1      -0.781  10.833  20.504  0.00  0.00    +0.000 A 
ATOM     21  C   UNL     1      -1.120  11.325  21.767  0.00  0.00    +0.000 A 
ATOM     22  C   UNL     1      -0.635  10.695  22.900  0.00  0.00    +0.000 A 
ATOM     23  C   UNL     1       0.179   9.570  22.771  0.00  0.00    +0.000 A 
ATOM     24  C   UNL     1       0.497   9.028  21.522  0.00  0.00    +0.000 A 
ATOM     25  C   UNL     1       0.026   9.688  20.374  0.00  0.00    +0.000 A 
BRANCH  20  27
ATOM     26  C   UNL     1      -1.692  10.693  18.085  0.00  0.00    +0.000 C 
ATOM     27  C   UNL     1      -1.278  11.529  19.273  0.00  0.00    +0.000 C 
ATOM     28  O   UNL     1      -1.345  12.753  19.255  0.00  0.00    +0.000 OA
ENDBRANCH  20  27
ENDBRANCH   1  24
TORSDOF 5
ENDMDL
MODEL 2
REMARK VINA RESULT:      -8.3      1.001      1.046
REMARK  Name = 
REMARK  8 active torsions:
REMARK  status: ('A' for Active; 'I' for Inactive)
REMARK    1  A    between atoms: C_1  and  C_2
REMARK    2  A    between atoms: C_2  and  C_4
REMARK    3  A    between atoms: C_8  and  N_9
REMARK    4  A    between atoms: N_12  and  C_13
REMARK    5  A    between atoms: N_21  and  C_22
REMARK    6  A    between atoms: C_22  and  C_23
REMARK    7  A    between atoms: C_23  and  C_24
REMARK    8  A    between atoms: C_23  and  C_25
REMARK                            x       y       z     vdW  Elec       q    Type
REMARK                         _______ _______ _______ _____ _____    ______ ____
ROOT
ATOM      1  N   UNL     1       1.233   8.529  20.583  0.00  0.00    +0.000 N 
ATOM      2  C   UNL     1       1.947   8.000  19.535  0.00  0.00    +0.000 C 
ATOM      3  O   UNL     1       2.153   8.567  18.459  0.00  0.00    +0.000 OA
ATOM      4  N   UNL     1       2.408   6.713  19.730  0.00  0.00    +0.000 N 
ATOM      5  H   UNL     1       1.307   8.069  21.484  0.00  0.00    +0.000 HD
ATOM      6  H   UNL     1       2.519   6.359  20.670  0.00  0.00    +0.000 HD
ENDROOT
BRANCH   4   7
ATOM      7  C   UNL     1       3.103   6.064  18.611  0.00  0.00    +0.000 C 
ATOM      8  C   UNL     1       4.459   5.471  19.022  0.00  0.00    +0.000 C 
ATOM      9  C   UNL     1       4.694   3.996  18.704  0.00  0.00    +0.000 C 
ATOM     10  C   UNL     1       4.221   3.047  19.817  0.00  0.00    +0.000 C 
ATOM     11  C   UNL     1       2.745   2.672  19.806  0.00  0.00    +0.000 C 
ATOM     12  C   UNL     1       2.062   2.755  18.448  0.00  0.00    +0.000 C 
ATOM     13  C   UNL     1       2.671   3.761  17.459  0.00  0.00    +0.000 C 
ATOM     14  C   UNL     1       2.195   5.199  17.733  0.00  0.00    +0.000 C 
ATOM     15  N   UNL     1       4.134   3.593  17.412  0.00  0.00    +0.000 NA
BRANCH  15  16
ATOM     16  C   UNL     1       4.738   4.270  16.248  0.00  0.00    +0.000 C 
BRANCH  16  17
ATOM     17  C   UNL     1       6.106   3.727  15.766  0.00  0.00    +0.000 C 
ATOM     18  C   UNL     1       6.286   3.834  14.251  0.00  0.00    +0.000 C 
ATOM     19  C   UNL     1       7.232   4.477  16.482  0.00  0.00    +0.000 C 
ENDBRANCH  16  17
ENDBRANCH  15  16
ENDBRANCH   4   7
BRANCH   1  24
ATOM     20  C   UNL     1      -1.309  11.105  19.666  0.00  0.00    +0.000 A 
ATOM     21  C   UNL     1      -0.892  12.198  20.430  0.00  0.00    +0.000 A 
ATOM     22  C   UNL     1       0.244  12.092  21.214  0.00  0.00    +0.000 A 
ATOM     23  C   UNL     1       0.956  10.893  21.242  0.00  0.00    +0.000 A 
ATOM     24  C   UNL     1       0.537   9.768  20.524  0.00  0.00    +0.000 A 
ATOM     25  C   UNL     1      -0.601   9.890  19.708  0.00  0.00    +0.000 A 
BRANCH  20  27
ATOM     26  C   UNL     1      -2.752  10.178  17.728  0.00  0.00    +0.000 C 
ATOM     27  C   UNL     1      -2.521  11.224  18.793  0.00  0.00    +0.000 C 
ATOM     28  O   UNL     1      -3.299  12.157  18.960  0.00  0.00    +0.000 OA
ENDBRANCH  20  27
ENDBRANCH   1  24
TORSDOF 5
ENDMDL
MODEL 3
REMARK VINA RESULT:      -8.1      1.359      1.634
REMARK  Name = 
REMARK  8 active torsions:
REMARK  status: ('A' for Active; 'I' for Inactive)
REMARK    1  A    between atoms: C_1  and  C_2
REMARK    2  A    between atoms: C_2  and  C_4
REMARK    3  A    between atoms: C_8  and  N_9
REMARK    4  A    between atoms: N_12  and  C_13
REMARK    5  A    between atoms: N_21  and  C_22
REMARK    6  A    between atoms: C_22  and  C_23
REMARK    7  A    between atoms: C_23  and  C_24
REMARK    8  A    between atoms: C_23  and  C_25
REMARK                            x       y       z     vdW  Elec       q    Type
REMARK                         _______ _______ _______ _____ _____    ______ ____
ROOT
ATOM      1  N   UNL     1       0.921   8.795  20.473  0.00  0.00    +0.000 N 
ATOM      2  C   UNL     1       1.864   8.195  19.673  0.00  0.00    +0.000 C 
ATOM      3  O   UNL     1       2.354   8.693  18.657  0.00  0.00    +0.000 OA
ATOM      4  N   UNL     1       2.224   6.916  20.051  0.00  0.00    +0.000 N 
ATOM      5  H   UNL     1       0.749   8.390  21.386  0.00  0.00    +0.000 HD
ATOM      6  H   UNL     1       2.081   6.617  21.006  0.00  0.00    +0.000 HD
ENDROOT
BRANCH   4   7
ATOM      7  C   UNL     1       3.163   6.192  19.185  0.00  0.00    +0.000 C 
ATOM      8  C   UNL     1       4.031   5.190  19.962  0.00  0.00    +0.000 C 
ATOM      9  C   UNL     1       4.031   3.746  19.466  0.00  0.00    +0.000 C 
ATOM     10  C   UNL     1       2.920   2.885  20.086  0.00  0.00    +0.000 C 
ATOM     11  C   UNL     1       1.551   2.966  19.423  0.00  0.00    +0.000 C 
ATOM     12  C   UNL     1       1.561   3.367  17.954  0.00  0.00    +0.000 C 
ATOM     13  C   UNL     1       2.752   4.231  17.510  0.00  0.00    +0.000 C 
ATOM     14  C   UNL     1       2.551   5.715  17.864  0.00  0.00    +0.000 C 
ATOM     15  N   UNL     1       4.009   3.642  18.005  0.00  0.00    +0.000 NA
BRANCH  15  16
ATOM     16  C   UNL     1       5.194   4.211  17.335  0.00  0.00    +0.000 C 
BRANCH  16  17
ATOM     17  C   UNL     1       5.031   4.582  15.840  0.00  0.00    +0.000 C 
ATOM     18  C   UNL     1       5.296   6.063  15.565  0.00  0.00    +0.000 C 
ATOM     19  C   UNL     1       5.969   3.715  14.995  0.00  0.00    +0.000 C 
ENDBRANCH  16  17
ENDBRANCH  15  16
ENDBRANCH   4   7
BRANCH   1  24
ATOM     20  C   UNL     1      -1.445  11.292  19.022  0.00  0.00    +0.000 A 
ATOM     21  C   UNL     1      -0.987  12.482  19.594  0.00  0.00    +0.000 A 
ATOM     22  C   UNL     1       0.120  12.459  20.424  0.00  0.00    +0.000 A 
ATOM     23  C   UNL     1       0.761  11.250  20.691  0.00  0.00    +0.000 A 
ATOM     24  C   UNL     1       0.298  10.038  20.170  0.00  0.00    +0.000 A 
ATOM     25  C   UNL     1      -0.808  10.070  19.304  0.00  0.00    +0.000 A 
BRANCH  20  27
ATOM     26  C   UNL     1      -2.459  10.770  16.698  0.00  0.00    +0.000 C 
ATOM     27  C   UNL     1      -2.624  11.314  18.097  0.00  0.00    +0.000 C 
ATOM     28  O   UNL     1      -3.695  11.764  18.492  0.00  0.00    +0.000 OA
ENDBRANCH  20  27
ENDBRANCH   1  24
TORSDOF 5
ENDMDL
MODEL 4
REMARK VINA RESULT:      -7.9      2.057      2.490
REMARK  Name = 
REMARK  8 active torsions:
REMARK  status: ('A' for Active; 'I' for Inactive)
REMARK    1  A    between atoms: C_1  and  C_2
REMARK    2  A    between atoms: C_2  and  C_4
REMARK    3  A    between atoms: C_8  and  N_9
REMARK    4  A    between atoms: N_12  and  C_13
REMARK    5  A    between atoms: N_21  and  C_22
REMARK    6  A    between atoms: C_22  and  C_23
REMARK    7  A    between atoms: C_23  and  C_24
REMARK    8  A    between atoms: C_23  and  C_25
REMARK                            x       y       z     vdW  Elec       q    Type
REMARK                         _______ _______ _______ _____ _____    ______ ____
ROOT
ATOM      1  N   UNL     1       1.459   9.021  19.344  0.00  0.00    +0.000 N 
ATOM      2  C   UNL     1       2.127   8.404  18.313  0.00  0.00    +0.000 C 
ATOM      3  O   UNL     1       2.188   8.824  17.156  0.00  0.00    +0.000 OA
ATOM      4  N   UNL     1       2.718   7.199  18.637  0.00  0.00    +0.000 N 
ATOM      5  H   UNL     1       1.650   8.703  20.288  0.00  0.00    +0.000 HD
ATOM      6  H   UNL     1       2.940   6.994  19.602  0.00  0.00    +0.000 HD
ENDROOT
BRANCH   4   7
ATOM      7  C   UNL     1       3.372   6.452  17.555  0.00  0.00    +0.000 C 
ATOM      8  C   UNL     1       4.854   6.825  17.392  0.00  0.00    +0.000 C 
ATOM      9  C   UNL     1       5.863   5.679  17.429  0.00  0.00    +0.000 C 
ATOM     10  C   UNL     1       6.359   5.345  18.844  0.00  0.00    +0.000 C 
ATOM     11  C   UNL     1       5.479   4.413  19.668  0.00  0.00    +0.000 C 
ATOM     12  C   UNL     1       4.591   3.475  18.862  0.00  0.00    +0.000 C 
ATOM     13  C   UNL     1       4.193   3.975  17.465  0.00  0.00    +0.000 C 
ATOM     14  C   UNL     1       3.014   4.964  17.522  0.00  0.00    +0.000 C 
ATOM     15  N   UNL     1       5.383   4.472  16.753  0.00  0.00    +0.000 NA
BRANCH  15  16
ATOM     16  C   UNL     1       5.140   4.638  15.307  0.00  0.00    +0.000 C 
BRANCH  16  17
ATOM     17  C   UNL     1       6.192   4.016  14.354  0.00  0.00    +0.000 C 
ATOM     18  C   UNL     1       5.592   3.567  13.021  0.00  0.00    +0.000 C 
ATOM     19  C   UNL     1       7.316   5.027  14.110  0.00  0.00    +0.000 C 
ENDBRANCH  16  17
ENDBRANCH  15  16
ENDBRANCH   4   7
BRANCH   1  24
ATOM     20  C   UNL     1      -1.307  11.264  18.220  0.00  0.00    +0.000 A 
ATOM     21  C   UNL     1      -1.000  12.450  18.893  0.00  0.00    +0.000 A 
ATOM     22  C   UNL     1       0.135  12.514  19.683  0.00  0.00    +0.000 A 
ATOM     23  C   UNL     1       0.955  11.394  19.809  0.00  0.00    +0.000 A 
ATOM     24  C   UNL     1       0.649  10.180  19.184  0.00  0.00    +0.000 A 
ATOM     25  C   UNL     1      -0.488  10.128  18.360  0.00  0.00    +0.000 A 
BRANCH  20  27
ATOM     26  C   UNL     1      -3.867  11.520  17.935  0.00  0.00    +0.000 C 
ATOM     27  C   UNL     1      -2.517  11.197  17.339  0.00  0.00    +0.000 C 
ATOM     28  O   UNL     1      -2.391  10.889  16.159  0.00  0.00    +0.000 OA
ENDBRANCH  20  27
ENDBRANCH   1  24
TORSDOF 5
ENDMDL
MODEL 5
REMARK VINA RESULT:      -7.9      2.592      9.277
REMARK  Name = 
REMARK  8 active torsions:
REMARK  status: ('A' for Active; 'I' for Inactive)
REMARK    1  A    between atoms: C_1  and  C_2
REMARK    2  A    between atoms: C_2  and  C_4
REMARK    3  A    between atoms: C_8  and  N_9
REMARK    4  A    between atoms: N_12  and  C_13
REMARK    5  A    between atoms: N_21  and  C_22
REMARK    6  A    between atoms: C_22  and  C_23
REMARK    7  A    between atoms: C_23  and  C_24
REMARK    8  A    between atoms: C_23  and  C_25
REMARK                            x       y       z     vdW  Elec       q    Type
REMARK                         _______ _______ _______ _____ _____    ______ ____
ROOT
ATOM      1  N   UNL     1       3.045   7.786  17.605  0.00  0.00    +0.000 N 
ATOM      2  C   UNL     1       2.171   8.293  18.536  0.00  0.00    +0.000 C 
ATOM      3  O   UNL     1       1.901   7.764  19.617  0.00  0.00    +0.000 OA
ATOM      4  N   UNL     1       1.534   9.461  18.166  0.00  0.00    +0.000 N 
ATOM      5  H   UNL     1       3.347   8.400  16.858  0.00  0.00    +0.000 HD
ATOM      6  H   UNL     1       1.946  10.053  17.459  0.00  0.00    +0.000 HD
ENDROOT
BRANCH   4   7
ATOM      7  C   UNL     1       0.524  10.003  19.085  0.00  0.00    +0.000 C 
ATOM      8  C   UNL     1       1.147  10.669  20.321  0.00  0.00    +0.000 C 
ATOM      9  C   UNL     1       0.726  12.107  20.617  0.00  0.00    +0.000 C 
ATOM     10  C   UNL     1       1.601  13.157  19.917  0.00  0.00    +0.000 C 
ATOM     11  C   UNL     1       1.234  13.494  18.477  0.00  0.00    +0.000 C 
ATOM     12  C   UNL     1      -0.220  13.249  18.101  0.00  0.00    +0.000 C 
ATOM     13  C   UNL     1      -0.940  12.158  18.909  0.00  0.00    +0.000 C 
ATOM     14  C   UNL     1      -0.618  10.747  18.386  0.00  0.00    +0.000 C 
ATOM     15  N   UNL     1      -0.692  12.355  20.348  0.00  0.00    +0.000 NA
BRANCH  15  16
ATOM     16  C   UNL     1      -1.618  11.572  21.188  0.00  0.00    +0.000 C 
BRANCH  16  17
ATOM     17  C   UNL     1      -1.409  11.665  22.720  0.00  0.00    +0.000 C 
ATOM     18  C   UNL     1      -2.667  12.111  23.465  0.00  0.00    +0.000 C 
ATOM     19  C   UNL     1      -0.938  10.308  23.252  0.00  0.00    +0.000 C 
ENDBRANCH  16  17
ENDBRANCH  15  16
ENDBRANCH   4   7
BRANCH   1  24
ATOM     20  C   UNL     1       5.707   5.185  17.905  0.00  0.00    +0.000 A 
ATOM     21  C   UNL     1       4.949   4.014  17.994  0.00  0.00    +0.000 A 
ATOM     22  C   UNL     1       3.569   4.085  17.918  0.00  0.00    +0.000 A 
ATOM     23  C   UNL     1       2.947   5.323  17.764  0.00  0.00    +0.000 A 
ATOM     24  C   UNL     1       3.676   6.516  17.717  0.00  0.00    +0.000 A 
ATOM     25  C   UNL     1       5.078   6.436  17.766  0.00  0.00    +0.000 A 
BRANCH  20  27
ATOM     26  C   UNL     1       7.925   5.814  19.081  0.00  0.00    +0.000 C 
ATOM     27  C   UNL     1       7.202   5.112  17.956  0.00  0.00    +0.000 C 
ATOM     28  O   UNL     1       7.808   4.483  17.094  0.00  0.00    +0.000 OA
ENDBRANCH  20  27
ENDBRANCH   1  24
TORSDOF 5
ENDMDL
MODEL 6
REMARK VINA RESULT:      -7.9      2.500      9.470
REMARK  Name = 
REMARK  8 active torsions:
REMARK  status: ('A' for Active; 'I' for Inactive)
REMARK    1  A    between atoms: C_1  and  C_2
REMARK    2  A    between atoms: C_2  and  C_4
REMARK    3  A    between atoms: C_8  and  N_9
REMARK    4  A    between atoms: N_12  and  C_13
REMARK    5  A    between atoms: N_21  and  C_22
REMARK    6  A    between atoms: C_22  and  C_23
REMARK    7  A    between atoms: C_23  and  C_24
REMARK    8  A    between atoms: C_23  and  C_25
REMARK                            x       y       z     vdW  Elec       q    Type
REMARK                         _______ _______ _______ _____ _____    ______ ____
ROOT
ATOM      1  N   UNL     1       2.814   7.761  17.828  0.00  0.00    +0.000 N 
ATOM      2  C   UNL     1       2.136   8.267  18.911  0.00  0.00    +0.000 C 
ATOM      3  O   UNL     1       2.093   7.746  20.028  0.00  0.00    +0.000 OA
ATOM      4  N   UNL     1       1.421   9.423  18.666  0.00  0.00    +0.000 N 
ATOM      5  H   UNL     1       2.954   8.372  17.031  0.00  0.00    +0.000 HD
ATOM      6  H   UNL     1       1.676  10.013  17.886  0.00  0.00    +0.000 HD
ENDROOT
BRANCH   4   7
ATOM      7  C   UNL     1       0.606   9.962  19.763  0.00  0.00    +0.000 C 
ATOM      8  C   UNL     1       1.276  11.152  20.466  0.00  0.00    +0.000 C 
ATOM      9  C   UNL     1       0.461  12.439  20.574  0.00  0.00    +0.000 C 
ATOM     10  C   UNL     1       0.632  13.375  19.368  0.00  0.00    +0.000 C 
ATOM     11  C   UNL     1      -0.246  13.085  18.156  0.00  0.00    +0.000 C 
ATOM     12  C   UNL     1      -1.546  12.352  18.454  0.00  0.00    +0.000 C 
ATOM     13  C   UNL     1      -1.533  11.458  19.704  0.00  0.00    +0.000 C 
ATOM     14  C   UNL     1      -0.882  10.091  19.427  0.00  0.00    +0.000 C 
ATOM     15  N   UNL     1      -0.959  12.197  20.841  0.00  0.00    +0.000 NA
BRANCH  15  16
ATOM     16  C   UNL     1      -1.232  11.536  22.133  0.00  0.00    +0.000 C 
BRANCH  16  17
ATOM     17  C   UNL     1      -2.035  12.357  23.172  0.00  0.00    +0.000 C 
ATOM     18  C   UNL     1      -1.386  13.703  23.494  0.00  0.00    +0.000 C 
ATOM     19  C   UNL     1      -3.462  12.572  22.657  0.00  0.00    +0.000 C 
ENDBRANCH  16  17
ENDBRANCH  15  16
ENDBRANCH   4   7
BRANCH   1  24
ATOM     20  C   UNL     1       5.535   5.203  17.841  0.00  0.00    +0.000 A 
ATOM     21  C   UNL     1       4.803   4.013  17.867  0.00  0.00    +0.000 A 
ATOM     22  C   UNL     1       3.420   4.059  17.843  0.00  0.00    +0.000 A 
ATOM     23  C   UNL     1       2.769   5.291  17.804  0.00  0.00    +0.000 A 
ATOM     24  C   UNL     1       3.474   6.500  17.823  0.00  0.00    +0.000 A 
ATOM     25  C   UNL     1       4.878   6.447  17.818  0.00  0.00    +0.000 A 
BRANCH  20  27
ATOM     26  C   UNL     1       7.781   5.822  18.967  0.00  0.00    +0.000 C 
ATOM     27  C   UNL     1       7.032   5.159  17.835  0.00  0.00    +0.000 C 
ATOM     28  O   UNL     1       7.618   4.586  16.923  0.00  0.00    +0.000 OA
ENDBRANCH  20  27
ENDBRANCH   1  24
TORSDOF 5
ENDMDL
MODEL 7
REMARK VINA RESULT:      -7.8      1.274      2.046
REMARK  Name = 
REMARK  8 active torsions:
REMARK  status: ('A' for Active; 'I' for Inactive)
REMARK    1  A    between atoms: C_1  and  C_2
REMARK    2  A    between atoms: C_2  and  C_4
REMARK    3  A    between atoms: C_8  and  N_9
REMARK    4  A    between atoms: N_12  and  C_13
REMARK    5  A    between atoms: N_21  and  C_22
REMARK    6  A    between atoms: C_22  and  C_23
REMARK    7  A    between atoms: C_23  and  C_24
REMARK    8  A    between atoms: C_23  and  C_25
REMARK                            x       y       z     vdW  Elec       q    Type
REMARK                         _______ _______ _______ _____ _____    ______ ____
ROOT
ATOM      1  N   UNL     1       1.145   8.579  20.393  0.00  0.00    +0.000 N 
ATOM      2  C   UNL     1       1.846   8.029  19.346  0.00  0.00    +0.000 C 
ATOM      3  O   UNL     1       1.967   8.537  18.228  0.00  0.00    +0.000 OA
ATOM      4  N   UNL     1       2.398   6.789  19.598  0.00  0.00    +0.000 N 
ATOM      5  H   UNL     1       1.288   8.183  21.315  0.00  0.00    +0.000 HD
ATOM      6  H   UNL     1       2.573   6.503  20.552  0.00  0.00    +0.000 HD
ENDROOT
BRANCH   4   7
ATOM      7  C   UNL     1       3.085   6.114  18.489  0.00  0.00    +0.000 C 
ATOM      8  C   UNL     1       4.474   5.590  18.886  0.00  0.00    +0.000 C 
ATOM      9  C   UNL     1       4.754   4.111  18.628  0.00  0.00    +0.000 C 
ATOM     10  C   UNL     1       4.349   3.199  19.796  0.00  0.00    +0.000 C 
ATOM     11  C   UNL     1       2.887   2.770  19.846  0.00  0.00    +0.000 C 
ATOM     12  C   UNL     1       2.164   2.766  18.507  0.00  0.00    +0.000 C 
ATOM     13  C   UNL     1       2.707   3.746  17.455  0.00  0.00    +0.000 C 
ATOM     14  C   UNL     1       2.185   5.177  17.678  0.00  0.00    +0.000 C 
ATOM     15  N   UNL     1       4.173   3.628  17.373  0.00  0.00    +0.000 NA
BRANCH  15  16
ATOM     16  C   UNL     1       4.718   4.273  16.162  0.00  0.00    +0.000 C 
BRANCH  16  17
ATOM     17  C   UNL     1       6.093   3.759  15.665  0.00  0.00    +0.000 C 
ATOM     18  C   UNL     1       6.231   3.810  14.144  0.00  0.00    +0.000 C 
ATOM     19  C   UNL     1       7.208   4.579  16.321  0.00  0.00    +0.000 C 
ENDBRANCH  16  17
ENDBRANCH  15  16
ENDBRANCH   4   7
BRANCH   1  24
ATOM     20  C   UNL     1      -0.584  11.753  21.327  0.00  0.00    +0.000 A 
ATOM     21  C   UNL     1      -1.128  12.150  20.102  0.00  0.00    +0.000 A 
ATOM     22  C   UNL     1      -0.953  11.351  18.985  0.00  0.00    +0.000 A 
ATOM     23  C   UNL     1      -0.227  10.165  19.089  0.00  0.00    +0.000 A 
ATOM     24  C   UNL     1       0.367   9.765  20.291  0.00  0.00    +0.000 A 
ATOM     25  C   UNL     1       0.162  10.564  21.428  0.00  0.00    +0.000 A 
BRANCH  20  27
ATOM     26  C   UNL     1      -0.422  14.060  22.490  0.00  0.00    +0.000 C 
ATOM     27  C   UNL     1      -0.797  12.598  22.546  0.00  0.00    +0.000 C 
ATOM     28  O   UNL     1      -1.272  12.092  23.558  0.00  0.00    +0.000 OA
ENDBRANCH  20  27
ENDBRANCH   1  24
TORSDOF 5
ENDMDL
MODEL 8
REMARK VINA RESULT:      -7.8      1.709      2.844
REMARK  Name = 
REMARK  8 active torsions:
REMARK  status: ('A' for Active; 'I' for Inactive)
REMARK    1  A    between atoms: C_1  and  C_2
REMARK    2  A    between atoms: C_2  and  C_4
REMARK    3  A    between atoms: C_8  and  N_9
REMARK    4  A    between atoms: N_12  and  C_13
REMARK    5  A    between atoms: N_21  and  C_22
REMARK    6  A    between atoms: C_22  and  C_23
REMARK    7  A    between atoms: C_23  and  C_24
REMARK    8  A    between atoms: C_23  and  C_25
REMARK                            x       y       z     vdW  Elec       q    Type
REMARK                         _______ _______ _______ _____ _____    ______ ____
ROOT
ATOM      1  N   UNL     1       2.316   7.340  20.391  0.00  0.00    +0.000 N 
ATOM      2  C   UNL     1       2.841   7.070  19.150  0.00  0.00    +0.000 C 
ATOM      3  O   UNL     1       2.653   7.747  18.137  0.00  0.00    +0.000 OA
ATOM      4  N   UNL     1       3.590   5.912  19.071  0.00  0.00    +0.000 N 
ATOM      5  H   UNL     1       2.703   6.843  21.186  0.00  0.00    +0.000 HD
ATOM      6  H   UNL     1       4.000   5.523  19.909  0.00  0.00    +0.000 HD
ENDROOT
BRANCH   4   7
ATOM      7  C   UNL     1       4.104   5.526  17.751  0.00  0.00    +0.000 C 
ATOM      8  C   UNL     1       4.632   6.725  16.948  0.00  0.00    +0.000 C 
ATOM      9  C   UNL     1       6.060   6.625  16.416  0.00  0.00    +0.000 C 
ATOM     10  C   UNL     1       7.119   7.137  17.404  0.00  0.00    +0.000 C 
ATOM     11  C   UNL     1       7.593   6.147  18.461  0.00  0.00    +0.000 C 
ATOM     12  C   UNL     1       7.455   4.678  18.087  0.00  0.00    +0.000 C 
ATOM     13  C   UNL     1       6.339   4.351  17.083  0.00  0.00    +0.000 C 
ATOM     14  C   UNL     1       4.961   4.257  17.764  0.00  0.00    +0.000 C 
ATOM     15  N   UNL     1       6.402   5.282  15.943  0.00  0.00    +0.000 NA
BRANCH  15  16
ATOM     16  C   UNL     1       5.600   4.817  14.795  0.00  0.00    +0.000 C 
BRANCH  16  17
ATOM     17  C   UNL     1       6.358   4.033  13.695  0.00  0.00    +0.000 C 
ATOM     18  C   UNL     1       5.435   3.523  12.588  0.00  0.00    +0.000 C 
ATOM     19  C   UNL     1       7.450   4.925  13.097  0.00  0.00    +0.000 C 
ENDBRANCH  16  17
ENDBRANCH  15  16
ENDBRANCH   4   7
BRANCH   1  24
ATOM     20  C   UNL     1      -0.092  10.137  19.825  0.00  0.00    +0.000 A 
ATOM     21  C   UNL     1      -0.494  10.432  21.131  0.00  0.00    +0.000 A 
ATOM     22  C   UNL     1       0.057   9.733  22.191  0.00  0.00    +0.000 A 
ATOM     23  C   UNL     1       1.000   8.736  21.947  0.00  0.00    +0.000 A 
ATOM     24  C   UNL     1       1.388   8.387  20.649  0.00  0.00    +0.000 A 
ATOM     25  C   UNL     1       0.847   9.119  19.578  0.00  0.00    +0.000 A 
BRANCH  20  27
ATOM     26  C   UNL     1      -1.627  10.217  17.743  0.00  0.00    +0.000 C 
ATOM     27  C   UNL     1      -0.663  10.910  18.676  0.00  0.00    +0.000 C 
ATOM     28  O   UNL     1      -0.343  12.084  18.517  0.00  0.00    +0.000 OA
ENDBRANCH  20  27
ENDBRANCH   1  24
TORSDOF 5
ENDMDL
MODEL 9
REMARK VINA RESULT:      -7.7      1.028      1.290
REMARK  Name = 
REMARK  8 active torsions:
REMARK  status: ('A' for Active; 'I' for Inactive)
REMARK    1  A    between atoms: C_1  and  C_2
REMARK    2  A    between atoms: C_2  and  C_4
REMARK    3  A    between atoms: C_8  and  N_9
REMARK    4  A    between atoms: N_12  and  C_13
REMARK    5  A    between atoms: N_21  and  C_22
REMARK    6  A    between atoms: C_22  and  C_23
REMARK    7  A    between atoms: C_23  and  C_24
REMARK    8  A    between atoms: C_23  and  C_25
REMARK                            x       y       z     vdW  Elec       q    Type
REMARK                         _______ _______ _______ _____ _____    ______ ____
ROOT
ATOM      1  N   UNL     1       0.397   8.011  21.614  0.00  0.00    +0.000 N 
ATOM      2  C   UNL     1       1.430   7.657  20.779  0.00  0.00    +0.000 C 
ATOM      3  O   UNL     1       2.113   8.446  20.121  0.00  0.00    +0.000 OA
ATOM      4  N   UNL     1       1.650   6.299  20.663  0.00  0.00    +0.000 N 
ATOM      5  H   UNL     1       0.049   7.310  22.258  0.00  0.00    +0.000 HD
ATOM      6  H   UNL     1       1.329   5.676  21.392  0.00  0.00    +0.000 HD
ENDROOT
BRANCH   4   7
ATOM      7  C   UNL     1       2.684   5.857  19.719  0.00  0.00    +0.000 C 
ATOM      8  C   UNL     1       3.607   4.782  20.313  0.00  0.00    +0.000 C 
ATOM      9  C   UNL     1       3.756   3.485  19.521  0.00  0.00    +0.000 C 
ATOM     10  C   UNL     1       2.703   2.425  19.877  0.00  0.00    +0.000 C 
ATOM     11  C   UNL     1       1.359   2.540  19.168  0.00  0.00    +0.000 C 
ATOM     12  C   UNL     1       1.392   3.251  17.822  0.00  0.00    +0.000 C 
ATOM     13  C   UNL     1       2.518   4.281  17.643  0.00  0.00    +0.000 C 
ATOM     14  C   UNL     1       2.170   5.632  18.294  0.00  0.00    +0.000 C 
ATOM     15  N   UNL     1       3.801   3.700  18.073  0.00  0.00    +0.000 NA
BRANCH  15  16
ATOM     16  C   UNL     1       4.957   4.493  17.610  0.00  0.00    +0.000 C 
BRANCH  16  17
ATOM     17  C   UNL     1       5.002   4.830  16.098  0.00  0.00    +0.000 C 
ATOM     18  C   UNL     1       5.200   6.322  15.829  0.00  0.00    +0.000 C 
ATOM     19  C   UNL     1       6.121   4.024  15.432  0.00  0.00    +0.000 C 
ENDBRANCH  16  17
ENDBRANCH  15  16
ENDBRANCH   4   7
BRANCH   1  24
ATOM     20  C   UNL     1      -0.544  11.524  20.769  0.00  0.00    +0.000 A 
ATOM     21  C   UNL     1      -1.118  11.959  21.967  0.00  0.00    +0.000 A 
ATOM     22  C   UNL     1      -1.159  11.105  23.055  0.00  0.00    +0.000 A 
ATOM     23  C   UNL     1      -0.637   9.817  22.945  0.00  0.00    +0.000 A 
ATOM     24  C   UNL     1      -0.097   9.339  21.746  0.00  0.00    +0.000 A 
ATOM     25  C   UNL     1      -0.032  10.219  20.652  0.00  0.00    +0.000 A 
BRANCH  20  27
ATOM     26  C   UNL     1       0.688  12.317  18.635  0.00  0.00    +0.000 C 
ATOM     27  C   UNL     1      -0.469  12.454  19.597  0.00  0.00    +0.000 C 
ATOM     28  O   UNL     1      -1.344  13.299  19.436  0.00  0.00    +0.000 OA
ENDBRANCH  20  27
ENDBRANCH   1  24
TORSDOF 5
ENDMDL
