MODEL 1
REMARK VINA RESULT:      -7.1      0.000      0.000
REMARK  Name = 
REMARK  7 active torsions:
REMARK  status: ('A' for Active; 'I' for Inactive)
REMARK    1  A    between atoms: C_1  and  C_2
REMARK    2  A    between atoms: C_2  and  C_3
REMARK    3  A    between atoms: C_2  and  C_4
REMARK    4  A    between atoms: C_2  and  N_11
REMARK    5  A    between atoms: C_4  and  N_5
REMARK    6  A    between atoms: N_11  and  C_12
REMARK    7  A    between atoms: C_14  and  C_15
REMARK                            x       y       z     vdW  Elec       q    Type
REMARK                         _______ _______ _______ _____ _____    ______ ____
ROOT
ATOM      1  C   UNL     1      -0.835  11.134  18.879  0.00  0.00    +0.000 A 
ATOM      2  N   UNL     1       0.115  10.253  18.533  0.00  0.00    +0.000 NA
ATOM      3  C   UNL     1       0.749   9.592  19.512  0.00  0.00    +0.000 A 
ATOM      4  N   UNL     1       0.533   9.769  20.820  0.00  0.00    +0.000 NA
ATOM      5  C   UNL     1      -0.358  10.708  21.163  0.00  0.00    +0.000 A 
ATOM      6  C   UNL     1      -0.619  10.966  22.500  0.00  0.00    +0.000 A 
ATOM      7  N   UNL     1      -1.510  11.868  22.982  0.00  0.00    +0.000 NA
ATOM      8  C   UNL     1      -2.191  12.576  22.067  0.00  0.00    +0.000 A 
ATOM      9  C   UNL     1      -2.018  12.413  20.704  0.00  0.00    +0.000 A 
ATOM     10  C   UNL     1      -1.086  11.454  20.230  0.00  0.00    +0.000 A 
ENDROOT
BRANCH   3  11
ATOM     11  C   UNL     1       1.703   8.552  19.102  0.00  0.00    +0.000 A 
ATOM     12  C   UNL     1       2.352   8.612  17.861  0.00  0.00    +0.000 A 
ATOM     13  C   UNL     1       3.217   7.596  17.496  0.00  0.00    +0.000 A 
ATOM     14  N   UNL     1       3.487   6.530  18.274  0.00  0.00    +0.000 NA
ATOM     15  C   UNL     1       2.867   6.481  19.471  0.00  0.00    +0.000 A 
ATOM     16  C   UNL     1       1.986   7.450  19.923  0.00  0.00    +0.000 A 
ENDBRANCH   3  11
BRANCH   1  17
ATOM     17  N   UNL     1      -1.568  11.754  17.848  0.00  0.00    +0.000 N 
ATOM     18  H   UNL     1      -1.785  12.706  18.118  0.00  0.00    +0.000 HD
BRANCH  17  20
ATOM     19  C   UNL     1      -2.704   9.616  17.788  0.00  0.00    +0.000 C 
ATOM     20  C   UNL     1      -2.818  11.093  17.335  0.00  0.00    +0.000 C 
ATOM     21  C   UNL     1      -2.834  11.087  15.792  0.00  0.00    +0.000 C 
BRANCH  20  22
ATOM     22  C   UNL     1      -4.092  11.753  17.994  0.00  0.00    +0.000 C 
BRANCH  22  23
ATOM     23  N   UNL     1      -5.448  11.507  17.425  0.00  0.00    +0.000 NA
ATOM     24  C   UNL     1      -6.241  12.712  17.107  0.00  0.00    +0.000 C 
ATOM     25  C   UNL     1      -6.777  13.482  18.324  0.00  0.00    +0.000 C 
ATOM     26  O   UNL     1      -7.555  12.634  19.175  0.00  0.00    +0.000 OA
ATOM     27  C   UNL     1      -6.795  11.487  19.585  0.00  0.00    +0.000 C 
ATOM     28  C   UNL     1      -6.270  10.700  18.371  0.00  0.00    +0.000 C 
ENDBRANCH  22  23
ENDBRANCH  20  22
ENDBRANCH  17  20
ENDBRANCH   1  17
TORSDOF 5
ENDMDL
MODEL 2
REMARK VINA RESULT:      -6.9      5.478     10.403
REMARK  Name = 
REMARK  7 active torsions:
REMARK  status: ('A' for Active; 'I' for Inactive)
REMARK    1  A    between atoms: C_1  and  C_2
REMARK    2  A    between atoms: C_2  and  C_3
REMARK    3  A    between atoms: C_2  and  C_4
REMARK    4  A    between atoms: C_2  and  N_11
REMARK    5  A    between atoms: C_4  and  N_5
REMARK    6  A    between atoms: N_11  and  C_12
REMARK    7  A    between atoms: C_14  and  C_15
REMARK                            x       y       z     vdW  Elec       q    Type
REMARK                         _______ _______ _______ _____ _____    ______ ____
ROOT
ATOM      1  C   UNL     1       4.755   5.176  18.985  0.00  0.00    +0.000 A 
ATOM      2  N   UNL     1       4.205   6.400  18.981  0.00  0.00    +0.000 NA
ATOM      3  C   UNL     1       2.900   6.503  18.693  0.00  0.00    +0.000 A 
ATOM      4  N   UNL     1       2.103   5.479  18.370  0.00  0.00    +0.000 NA
ATOM      5  C   UNL     1       2.674   4.270  18.296  0.00  0.00    +0.000 A 
ATOM      6  C   UNL     1       1.918   3.163  17.944  0.00  0.00    +0.000 A 
ATOM      7  N   UNL     1       2.364   1.884  17.855  0.00  0.00    +0.000 NA
ATOM      8  C   UNL     1       3.664   1.690  18.128  0.00  0.00    +0.000 A 
ATOM      9  C   UNL     1       4.522   2.714  18.488  0.00  0.00    +0.000 A 
ATOM     10  C   UNL     1       4.023   4.039  18.583  0.00  0.00    +0.000 A 
ENDROOT
BRANCH   3  11
ATOM     11  C   UNL     1       2.298   7.840  18.807  0.00  0.00    +0.000 A 
ATOM     12  C   UNL     1       1.624   8.234  19.971  0.00  0.00    +0.000 A 
ATOM     13  C   UNL     1       1.040   9.487  20.027  0.00  0.00    +0.000 A 
ATOM     14  N   UNL     1       1.081  10.376  19.015  0.00  0.00    +0.000 NA
ATOM     15  C   UNL     1       1.738   9.995  17.900  0.00  0.00    +0.000 A 
ATOM     16  C   UNL     1       2.354   8.762  17.752  0.00  0.00    +0.000 A 
ENDBRANCH   3  11
BRANCH   1  17
ATOM     17  N   UNL     1       6.100   5.059  19.385  0.00  0.00    +0.000 N 
ATOM     18  H   UNL     1       6.224   5.519  20.281  0.00  0.00    +0.000 HD
BRANCH  17  20
ATOM     19  C   UNL     1       8.505   5.021  19.102  0.00  0.00    +0.000 C 
ATOM     20  C   UNL     1       7.188   5.510  18.449  0.00  0.00    +0.000 C 
ATOM     21  C   UNL     1       7.257   7.050  18.400  0.00  0.00    +0.000 C 
BRANCH  20  22
ATOM     22  C   UNL     1       7.010   4.824  17.038  0.00  0.00    +0.000 C 
BRANCH  22  23
ATOM     23  N   UNL     1       6.718   5.648  15.831  0.00  0.00    +0.000 NA
ATOM     24  C   UNL     1       5.287   5.842  15.514  0.00  0.00    +0.000 C 
ATOM     25  C   UNL     1       4.564   4.600  14.970  0.00  0.00    +0.000 C 
ATOM     26  O   UNL     1       5.223   4.081  13.810  0.00  0.00    +0.000 OA
ATOM     27  C   UNL     1       6.600   3.792  14.092  0.00  0.00    +0.000 C 
ATOM     28  C   UNL     1       7.336   5.036  14.620  0.00  0.00    +0.000 C 
ENDBRANCH  22  23
ENDBRANCH  20  22
ENDBRANCH  17  20
ENDBRANCH   1  17
TORSDOF 5
ENDMDL
MODEL 3
REMARK VINA RESULT:      -6.7      5.512     10.207
REMARK  Name = 
REMARK  7 active torsions:
REMARK  status: ('A' for Active; 'I' for Inactive)
REMARK    1  A    between atoms: C_1  and  C_2
REMARK    2  A    between atoms: C_2  and  C_3
REMARK    3  A    between atoms: C_2  and  C_4
REMARK    4  A    between atoms: C_2  and  N_11
REMARK    5  A    between atoms: C_4  and  N_5
REMARK    6  A    between atoms: N_11  and  C_12
REMARK    7  A    between atoms: C_14  and  C_15
REMARK                            x       y       z     vdW  Elec       q    Type
REMARK                         _______ _______ _______ _____ _____    ______ ____
ROOT
ATOM      1  C   UNL     1       3.263   5.358  18.085  0.00  0.00    +0.000 A 
ATOM      2  N   UNL     1       2.756   6.598  18.139  0.00  0.00    +0.000 NA
ATOM      3  C   UNL     1       2.148   6.982  19.270  0.00  0.00    +0.000 A 
ATOM      4  N   UNL     1       1.971   6.208  20.346  0.00  0.00    +0.000 NA
ATOM      5  C   UNL     1       2.406   4.944  20.258  0.00  0.00    +0.000 A 
ATOM      6  C   UNL     1       2.237   4.074  21.324  0.00  0.00    +0.000 A 
ATOM      7  N   UNL     1       2.650   2.782  21.376  0.00  0.00    +0.000 NA
ATOM      8  C   UNL     1       3.271   2.314  20.281  0.00  0.00    +0.000 A 
ATOM      9  C   UNL     1       3.496   3.083  19.153  0.00  0.00    +0.000 A 
ATOM     10  C   UNL     1       3.063   4.434  19.133  0.00  0.00    +0.000 A 
ENDROOT
BRANCH   3  11
ATOM     11  C   UNL     1       1.704   8.382  19.343  0.00  0.00    +0.000 A 
ATOM     12  C   UNL     1       1.855   9.248  18.252  0.00  0.00    +0.000 A 
ATOM     13  C   UNL     1       1.457  10.568  18.371  0.00  0.00    +0.000 A 
ATOM     14  N   UNL     1       0.917  11.086  19.492  0.00  0.00    +0.000 NA
ATOM     15  C   UNL     1       0.765  10.247  20.536  0.00  0.00    +0.000 A 
ATOM     16  C   UNL     1       1.133   8.911  20.510  0.00  0.00    +0.000 A 
ENDBRANCH   3  11
BRANCH   1  17
ATOM     17  N   UNL     1       3.988   4.990  16.935  0.00  0.00    +0.000 N 
ATOM     18  H   UNL     1       4.096   3.982  16.917  0.00  0.00    +0.000 HD
BRANCH  17  20
ATOM     19  C   UNL     1       6.317   4.872  17.589  0.00  0.00    +0.000 C 
ATOM     20  C   UNL     1       5.324   5.630  16.672  0.00  0.00    +0.000 C 
ATOM     21  C   UNL     1       5.320   7.102  17.136  0.00  0.00    +0.000 C 
BRANCH  20  22
ATOM     22  C   UNL     1       5.737   5.427  15.162  0.00  0.00    +0.000 C 
BRANCH  22  23
ATOM     23  N   UNL     1       6.785   4.434  14.794  0.00  0.00    +0.000 NA
ATOM     24  C   UNL     1       7.898   4.947  13.968  0.00  0.00    +0.000 C 
ATOM     25  C   UNL     1       7.536   5.263  12.508  0.00  0.00    +0.000 C 
ATOM     26  O   UNL     1       6.969   4.122  11.854  0.00  0.00    +0.000 OA
ATOM     27  C   UNL     1       5.827   3.637  12.575  0.00  0.00    +0.000 C 
ATOM     28  C   UNL     1       6.185   3.301  14.033  0.00  0.00    +0.000 C 
ENDBRANCH  22  23
ENDBRANCH  20  22
ENDBRANCH  17  20
ENDBRANCH   1  17
TORSDOF 5
ENDMDL
MODEL 4
REMARK VINA RESULT:      -6.7      1.054      1.169
REMARK  Name = 
REMARK  7 active torsions:
REMARK  status: ('A' for Active; 'I' for Inactive)
REMARK    1  A    between atoms: C_1  and  C_2
REMARK    2  A    between atoms: C_2  and  C_3
REMARK    3  A    between atoms: C_2  and  C_4
REMARK    4  A    between atoms: C_2  and  N_11
REMARK    5  A    between atoms: C_4  and  N_5
REMARK    6  A    between atoms: N_11  and  C_12
REMARK    7  A    between atoms: C_14  and  C_15
REMARK                            x       y       z     vdW  Elec       q    Type
REMARK                         _______ _______ _______ _____ _____    ______ ____
ROOT
ATOM      1  C   UNL     1      -1.520  11.699  18.945  0.00  0.00    +0.000 A 
ATOM      2  N   UNL     1      -0.588  10.784  18.639  0.00  0.00    +0.000 NA
ATOM      3  C   UNL     1       0.197  10.330  19.626  0.00  0.00    +0.000 A 
ATOM      4  N   UNL     1       0.151  10.747  20.896  0.00  0.00    +0.000 NA
ATOM      5  C   UNL     1      -0.725  11.719  21.180  0.00  0.00    +0.000 A 
ATOM      6  C   UNL     1      -0.815  12.221  22.469  0.00  0.00    +0.000 A 
ATOM      7  N   UNL     1      -1.671  13.183  22.896  0.00  0.00    +0.000 NA
ATOM      8  C   UNL     1      -2.497  13.695  21.969  0.00  0.00    +0.000 A 
ATOM      9  C   UNL     1      -2.501  13.280  20.649  0.00  0.00    +0.000 A 
ATOM     10  C   UNL     1      -1.601  12.264  20.236  0.00  0.00    +0.000 A 
ENDROOT
BRANCH   3  11
ATOM     11  C   UNL     1       1.132   9.247  19.287  0.00  0.00    +0.000 A 
ATOM     12  C   UNL     1       1.740   9.183  18.025  0.00  0.00    +0.000 A 
ATOM     13  C   UNL     1       2.586   8.129  17.730  0.00  0.00    +0.000 A 
ATOM     14  N   UNL     1       2.875   7.138  18.598  0.00  0.00    +0.000 NA
ATOM     15  C   UNL     1       2.294   7.209  19.813  0.00  0.00    +0.000 A 
ATOM     16  C   UNL     1       1.434   8.225  20.199  0.00  0.00    +0.000 A 
ENDBRANCH   3  11
BRANCH   1  17
ATOM     17  N   UNL     1      -2.409  12.101  17.930  0.00  0.00    +0.000 N 
ATOM     18  H   UNL     1      -2.721  13.048  18.114  0.00  0.00    +0.000 HD
BRANCH  17  20
ATOM     19  C   UNL     1      -3.074   9.789  17.650  0.00  0.00    +0.000 C 
ATOM     20  C   UNL     1      -3.606  11.244  17.619  0.00  0.00    +0.000 C 
ATOM     21  C   UNL     1      -4.103  11.509  16.182  0.00  0.00    +0.000 C 
BRANCH  20  22
ATOM     22  C   UNL     1      -4.711  11.428  18.731  0.00  0.00    +0.000 C 
BRANCH  22  23
ATOM     23  N   UNL     1      -6.146  11.568  18.353  0.00  0.00    +0.000 NA
ATOM     24  C   UNL     1      -6.828  12.781  18.851  0.00  0.00    +0.000 C 
ATOM     25  C   UNL     1      -7.116  12.796  20.360  0.00  0.00    +0.000 C 
ATOM     26  O   UNL     1      -7.877  11.648  20.756  0.00  0.00    +0.000 OA
ATOM     27  C   UNL     1      -7.210  10.438  20.370  0.00  0.00    +0.000 C 
ATOM     28  C   UNL     1      -6.934  10.407  18.857  0.00  0.00    +0.000 C 
ENDBRANCH  22  23
ENDBRANCH  20  22
ENDBRANCH  17  20
ENDBRANCH   1  17
TORSDOF 5
ENDMDL
MODEL 5
REMARK VINA RESULT:      -6.6      5.384      9.999
REMARK  Name = 
REMARK  7 active torsions:
REMARK  status: ('A' for Active; 'I' for Inactive)
REMARK    1  A    between atoms: C_1  and  C_2
REMARK    2  A    between atoms: C_2  and  C_3
REMARK    3  A    between atoms: C_2  and  C_4
REMARK    4  A    between atoms: C_2  and  N_11
REMARK    5  A    between atoms: C_4  and  N_5
REMARK    6  A    between atoms: N_11  and  C_12
REMARK    7  A    between atoms: C_14  and  C_15
REMARK                            x       y       z     vdW  Elec       q    Type
REMARK                         _______ _______ _______ _____ _____    ______ ____
ROOT
ATOM      1  C   UNL     1       2.907   4.899  18.196  0.00  0.00    +0.000 A 
ATOM      2  N   UNL     1       2.507   6.178  18.158  0.00  0.00    +0.000 NA
ATOM      3  C   UNL     1       2.095   6.744  19.302  0.00  0.00    +0.000 A 
ATOM      4  N   UNL     1       2.014   6.117  20.480  0.00  0.00    +0.000 NA
ATOM      5  C   UNL     1       2.337   4.818  20.497  0.00  0.00    +0.000 A 
ATOM      6  C   UNL     1       2.256   4.095  21.677  0.00  0.00    +0.000 A 
ATOM      7  N   UNL     1       2.575   2.785  21.836  0.00  0.00    +0.000 NA
ATOM      8  C   UNL     1       2.999   2.140  20.738  0.00  0.00    +0.000 A 
ATOM      9  C   UNL     1       3.119   2.751  19.502  0.00  0.00    +0.000 A 
ATOM     10  C   UNL     1       2.789   4.124  19.369  0.00  0.00    +0.000 A 
ENDROOT
BRANCH   3  11
ATOM     11  C   UNL     1       1.770   8.177  19.256  0.00  0.00    +0.000 A 
ATOM     12  C   UNL     1       1.165   8.818  20.346  0.00  0.00    +0.000 A 
ATOM     13  C   UNL     1       0.842  10.160  20.251  0.00  0.00    +0.000 A 
ATOM     14  N   UNL     1       1.081  10.910  19.157  0.00  0.00    +0.000 NA
ATOM     15  C   UNL     1       1.671  10.291  18.115  0.00  0.00    +0.000 A 
ATOM     16  C   UNL     1       2.031   8.952  18.117  0.00  0.00    +0.000 A 
ENDBRANCH   3  11
BRANCH   1  17
ATOM     17  N   UNL     1       3.434   4.337  17.016  0.00  0.00    +0.000 N 
ATOM     18  H   UNL     1       3.429   3.326  17.097  0.00  0.00    +0.000 HD
BRANCH  17  20
ATOM     19  C   UNL     1       4.586   6.258  16.097  0.00  0.00    +0.000 C 
ATOM     20  C   UNL     1       4.785   4.784  16.528  0.00  0.00    +0.000 C 
ATOM     21  C   UNL     1       5.191   3.998  15.264  0.00  0.00    +0.000 C 
BRANCH  20  22
ATOM     22  C   UNL     1       5.838   4.712  17.702  0.00  0.00    +0.000 C 
BRANCH  22  23
ATOM     23  N   UNL     1       7.294   4.863  17.419  0.00  0.00    +0.000 NA
ATOM     24  C   UNL     1       8.191   4.772  18.590  0.00  0.00    +0.000 C 
ATOM     25  C   UNL     1       8.145   5.975  19.544  0.00  0.00    +0.000 C 
ATOM     26  O   UNL     1       8.419   7.199  18.852  0.00  0.00    +0.000 OA
ATOM     27  C   UNL     1       7.513   7.377  17.754  0.00  0.00    +0.000 C 
ATOM     28  C   UNL     1       7.567   6.183  16.783  0.00  0.00    +0.000 C 
ENDBRANCH  22  23
ENDBRANCH  20  22
ENDBRANCH  17  20
ENDBRANCH   1  17
TORSDOF 5
ENDMDL
MODEL 6
REMARK VINA RESULT:      -6.6      0.797      1.255
REMARK  Name = 
REMARK  7 active torsions:
REMARK  status: ('A' for Active; 'I' for Inactive)
REMARK    1  A    between atoms: C_1  and  C_2
REMARK    2  A    between atoms: C_2  and  C_3
REMARK    3  A    between atoms: C_2  and  C_4
REMARK    4  A    between atoms: C_2  and  N_11
REMARK    5  A    between atoms: C_4  and  N_5
REMARK    6  A    between atoms: N_11  and  C_12
REMARK    7  A    between atoms: C_14  and  C_15
REMARK                            x       y       z     vdW  Elec       q    Type
REMARK                         _______ _______ _______ _____ _____    ______ ____
ROOT
ATOM      1  C   UNL     1      -0.478  10.843  19.114  0.00  0.00    +0.000 A 
ATOM      2  N   UNL     1       0.439   9.967  18.679  0.00  0.00    +0.000 NA
ATOM      3  C   UNL     1       1.041   9.183  19.585  0.00  0.00    +0.000 A 
ATOM      4  N   UNL     1       0.824   9.231  20.904  0.00  0.00    +0.000 NA
ATOM      5  C   UNL     1      -0.032  10.163  21.342  0.00  0.00    +0.000 A 
ATOM      6  C   UNL     1      -0.290  10.290  22.698  0.00  0.00    +0.000 A 
ATOM      7  N   UNL     1      -1.149  11.171  23.270  0.00  0.00    +0.000 NA
ATOM      8  C   UNL     1      -1.796  11.997  22.433  0.00  0.00    +0.000 A 
ATOM      9  C   UNL     1      -1.622  11.970  21.060  0.00  0.00    +0.000 A 
ATOM     10  C   UNL     1      -0.725  11.030  20.490  0.00  0.00    +0.000 A 
ENDROOT
BRANCH   3  11
ATOM     11  C   UNL     1       1.957   8.155  19.071  0.00  0.00    +0.000 A 
ATOM     12  C   UNL     1       2.267   7.016  19.828  0.00  0.00    +0.000 A 
ATOM     13  C   UNL     1       3.162   6.088  19.325  0.00  0.00    +0.000 A 
ATOM     14  N   UNL     1       3.765   6.207  18.126  0.00  0.00    +0.000 NA
ATOM     15  C   UNL     1       3.457   7.299  17.398  0.00  0.00    +0.000 A 
ATOM     16  C   UNL     1       2.574   8.281  17.818  0.00  0.00    +0.000 A 
ENDBRANCH   3  11
BRANCH   1  17
ATOM     17  N   UNL     1      -1.180  11.595  18.152  0.00  0.00    +0.000 N 
ATOM     18  H   UNL     1      -1.258  12.555  18.469  0.00  0.00    +0.000 HD
BRANCH  17  20
ATOM     19  C   UNL     1      -2.482   9.579  17.829  0.00  0.00    +0.000 C 
ATOM     20  C   UNL     1      -2.532  11.121  17.691  0.00  0.00    +0.000 C 
ATOM     21  C   UNL     1      -2.732  11.430  16.192  0.00  0.00    +0.000 C 
BRANCH  20  22
ATOM     22  C   UNL     1      -3.661  11.701  18.629  0.00  0.00    +0.000 C 
BRANCH  22  23
ATOM     23  N   UNL     1      -4.953  12.170  18.052  0.00  0.00    +0.000 NA
ATOM     24  C   UNL     1      -5.739  13.094  18.897  0.00  0.00    +0.000 C 
ATOM     25  C   UNL     1      -6.400  12.452  20.126  0.00  0.00    +0.000 C 
ATOM     26  O   UNL     1      -7.237  11.352  19.752  0.00  0.00    +0.000 OA
ATOM     27  C   UNL     1      -6.494  10.380  19.000  0.00  0.00    +0.000 C 
ATOM     28  C   UNL     1      -5.843  11.012  17.757  0.00  0.00    +0.000 C 
ENDBRANCH  22  23
ENDBRANCH  20  22
ENDBRANCH  17  20
ENDBRANCH   1  17
TORSDOF 5
ENDMDL
MODEL 7
REMARK VINA RESULT:      -6.5      0.885      1.285
REMARK  Name = 
REMARK  7 active torsions:
REMARK  status: ('A' for Active; 'I' for Inactive)
REMARK    1  A    between atoms: C_1  and  C_2
REMARK    2  A    between atoms: C_2  and  C_3
REMARK    3  A    between atoms: C_2  and  C_4
REMARK    4  A    between atoms: C_2  and  N_11
REMARK    5  A    between atoms: C_4  and  N_5
REMARK    6  A    between atoms: N_11  and  C_12
REMARK    7  A    between atoms: C_14  and  C_15
REMARK                            x       y       z     vdW  Elec       q    Type
REMARK                         _______ _______ _______ _____ _____    ______ ____
ROOT
ATOM      1  C   UNL     1      -1.414  11.642  18.740  0.00  0.00    +0.000 A 
ATOM      2  N   UNL     1      -0.473  10.736  18.437  0.00  0.00    +0.000 NA
ATOM      3  C   UNL     1       0.292  10.266  19.433  0.00  0.00    +0.000 A 
ATOM      4  N   UNL     1       0.217  10.660  20.708  0.00  0.00    +0.000 NA
ATOM      5  C   UNL     1      -0.668  11.625  20.991  0.00  0.00    +0.000 A 
ATOM      6  C   UNL     1      -0.787  12.103  22.287  0.00  0.00    +0.000 A 
ATOM      7  N   UNL     1      -1.655  13.056  22.712  0.00  0.00    +0.000 NA
ATOM      8  C   UNL     1      -2.462  13.582  21.777  0.00  0.00    +0.000 A 
ATOM      9  C   UNL     1      -2.437  13.191  20.450  0.00  0.00    +0.000 A 
ATOM     10  C   UNL     1      -1.525  12.184  20.038  0.00  0.00    +0.000 A 
ENDROOT
BRANCH   3  11
ATOM     11  C   UNL     1       1.237   9.191  19.094  0.00  0.00    +0.000 A 
ATOM     12  C   UNL     1       1.865   9.147  17.842  0.00  0.00    +0.000 A 
ATOM     13  C   UNL     1       2.721   8.100  17.547  0.00  0.00    +0.000 A 
ATOM     14  N   UNL     1       3.000   7.100  18.407  0.00  0.00    +0.000 NA
ATOM     15  C   UNL     1       2.400   7.152  19.613  0.00  0.00    +0.000 A 
ATOM     16  C   UNL     1       1.529   8.159  19.998  0.00  0.00    +0.000 A 
ENDBRANCH   3  11
BRANCH   1  17
ATOM     17  N   UNL     1      -2.283  12.060  17.712  0.00  0.00    +0.000 N 
ATOM     18  H   UNL     1      -2.814  12.863  18.030  0.00  0.00    +0.000 HD
BRANCH  17  20
ATOM     19  C   UNL     1      -2.916   9.725  17.813  0.00  0.00    +0.000 C 
ATOM     20  C   UNL     1      -3.224  11.062  17.094  0.00  0.00    +0.000 C 
ATOM     21  C   UNL     1      -2.892  10.856  15.602  0.00  0.00    +0.000 C 
BRANCH  20  22
ATOM     22  C   UNL     1      -4.721  11.481  17.373  0.00  0.00    +0.000 C 
BRANCH  22  23
ATOM     23  N   UNL     1      -5.046  12.415  18.489  0.00  0.00    +0.000 NA
ATOM     24  C   UNL     1      -5.540  11.786  19.732  0.00  0.00    +0.000 C 
ATOM     25  C   UNL     1      -6.964  11.215  19.654  0.00  0.00    +0.000 C 
ATOM     26  O   UNL     1      -7.904  12.214  19.243  0.00  0.00    +0.000 OA
ATOM     27  C   UNL     1      -7.513  12.796  17.991  0.00  0.00    +0.000 C 
ATOM     28  C   UNL     1      -6.094  13.387  18.065  0.00  0.00    +0.000 C 
ENDBRANCH  22  23
ENDBRANCH  20  22
ENDBRANCH  17  20
ENDBRANCH   1  17
TORSDOF 5
ENDMDL
MODEL 8
REMARK VINA RESULT:      -6.5      3.948      7.177
REMARK  Name = 
REMARK  7 active torsions:
REMARK  status: ('A' for Active; 'I' for Inactive)
REMARK    1  A    between atoms: C_1  and  C_2
REMARK    2  A    between atoms: C_2  and  C_3
REMARK    3  A    between atoms: C_2  and  C_4
REMARK    4  A    between atoms: C_2  and  N_11
REMARK    5  A    between atoms: C_4  and  N_5
REMARK    6  A    between atoms: N_11  and  C_12
REMARK    7  A    between atoms: C_14  and  C_15
REMARK                            x       y       z     vdW  Elec       q    Type
REMARK                         _______ _______ _______ _____ _____    ______ ____
ROOT
ATOM      1  C   UNL     1       3.044   5.952  19.192  0.00  0.00    +0.000 A 
ATOM      2  N   UNL     1       4.049   5.994  18.306  0.00  0.00    +0.000 NA
ATOM      3  C   UNL     1       4.418   4.849  17.714  0.00  0.00    +0.000 A 
ATOM      4  N   UNL     1       3.882   3.650  17.968  0.00  0.00    +0.000 NA
ATOM      5  C   UNL     1       2.935   3.599  18.912  0.00  0.00    +0.000 A 
ATOM      6  C   UNL     1       2.349   2.388  19.247  0.00  0.00    +0.000 A 
ATOM      7  N   UNL     1       1.366   2.200  20.164  0.00  0.00    +0.000 NA
ATOM      8  C   UNL     1       0.936   3.298  20.805  0.00  0.00    +0.000 A 
ATOM      9  C   UNL     1       1.444   4.562  20.562  0.00  0.00    +0.000 A 
ATOM     10  C   UNL     1       2.464   4.728  19.590  0.00  0.00    +0.000 A 
ENDROOT
BRANCH   3  11
ATOM     11  C   UNL     1       5.443   4.942  16.665  0.00  0.00    +0.000 A 
ATOM     12  C   UNL     1       6.557   5.781  16.813  0.00  0.00    +0.000 A 
ATOM     13  C   UNL     1       7.483   5.869  15.789  0.00  0.00    +0.000 A 
ATOM     14  N   UNL     1       7.385   5.181  14.634  0.00  0.00    +0.000 NA
ATOM     15  C   UNL     1       6.317   4.369  14.500  0.00  0.00    +0.000 A 
ATOM     16  C   UNL     1       5.340   4.215  15.470  0.00  0.00    +0.000 A 
ENDBRANCH   3  11
BRANCH   1  17
ATOM     17  N   UNL     1       2.592   7.169  19.737  0.00  0.00    +0.000 N 
ATOM     18  H   UNL     1       1.902   6.979  20.455  0.00  0.00    +0.000 HD
BRANCH  17  20
ATOM     19  C   UNL     1       0.921   7.545  18.025  0.00  0.00    +0.000 C 
ATOM     20  C   UNL     1       2.060   8.235  18.817  0.00  0.00    +0.000 C 
ATOM     21  C   UNL     1       3.134   8.648  17.788  0.00  0.00    +0.000 C 
BRANCH  20  22
ATOM     22  C   UNL     1       1.471   9.434  19.657  0.00  0.00    +0.000 C 
BRANCH  22  23
ATOM     23  N   UNL     1       0.083   9.367  20.196  0.00  0.00    +0.000 NA
ATOM     24  C   UNL     1      -0.581  10.666  20.430  0.00  0.00    +0.000 C 
ATOM     25  C   UNL     1      -0.043  11.469  21.625  0.00  0.00    +0.000 C 
ATOM     26  O   UNL     1      -0.098  10.703  22.834  0.00  0.00    +0.000 OA
ATOM     27  C   UNL     1       0.611   9.464  22.684  0.00  0.00    +0.000 C 
ATOM     28  C   UNL     1       0.066   8.645  21.500  0.00  0.00    +0.000 C 
ENDBRANCH  22  23
ENDBRANCH  20  22
ENDBRANCH  17  20
ENDBRANCH   1  17
TORSDOF 5
ENDMDL
MODEL 9
REMARK VINA RESULT:      -6.4      4.160      7.287
REMARK  Name = 
REMARK  7 active torsions:
REMARK  status: ('A' for Active; 'I' for Inactive)
REMARK    1  A    between atoms: C_1  and  C_2
REMARK    2  A    between atoms: C_2  and  C_3
REMARK    3  A    between atoms: C_2  and  C_4
REMARK    4  A    between atoms: C_2  and  N_11
REMARK    5  A    between atoms: C_4  and  N_5
REMARK    6  A    between atoms: N_11  and  C_12
REMARK    7  A    between atoms: C_14  and  C_15
REMARK                            x       y       z     vdW  Elec       q    Type
REMARK                         _______ _______ _______ _____ _____    ______ ____
ROOT
ATOM      1  C   UNL     1       3.199   5.985  19.238  0.00  0.00    +0.000 A 
ATOM      2  N   UNL     1       4.168   6.000  18.312  0.00  0.00    +0.000 NA
ATOM      3  C   UNL     1       4.505   4.838  17.733  0.00  0.00    +0.000 A 
ATOM      4  N   UNL     1       3.974   3.649  18.037  0.00  0.00    +0.000 NA
ATOM      5  C   UNL     1       3.065   3.627  19.020  0.00  0.00    +0.000 A 
ATOM      6  C   UNL     1       2.486   2.428  19.406  0.00  0.00    +0.000 A 
ATOM      7  N   UNL     1       1.540   2.269  20.366  0.00  0.00    +0.000 NA
ATOM      8  C   UNL     1       1.143   3.385  20.998  0.00  0.00    +0.000 A 
ATOM      9  C   UNL     1       1.647   4.640  20.705  0.00  0.00    +0.000 A 
ATOM     10  C   UNL     1       2.628   4.776  19.688  0.00  0.00    +0.000 A 
ENDROOT
BRANCH   3  11
ATOM     11  C   UNL     1       5.489   4.899  16.642  0.00  0.00    +0.000 A 
ATOM     12  C   UNL     1       6.647   5.682  16.753  0.00  0.00    +0.000 A 
ATOM     13  C   UNL     1       7.531   5.742  15.691  0.00  0.00    +0.000 A 
ATOM     14  N   UNL     1       7.351   5.080  14.531  0.00  0.00    +0.000 NA
ATOM     15  C   UNL     1       6.240   4.322  14.433  0.00  0.00    +0.000 A 
ATOM     16  C   UNL     1       5.298   4.199  15.442  0.00  0.00    +0.000 A 
ENDBRANCH   3  11
BRANCH   1  17
ATOM     17  N   UNL     1       2.777   7.218  19.772  0.00  0.00    +0.000 N 
ATOM     18  H   UNL     1       2.310   7.057  20.657  0.00  0.00    +0.000 HD
BRANCH  17  20
ATOM     19  C   UNL     1       1.180   7.192  17.952  0.00  0.00    +0.000 C 
ATOM     20  C   UNL     1       1.928   8.132  18.930  0.00  0.00    +0.000 C 
ATOM     21  C   UNL     1       2.815   9.058  18.072  0.00  0.00    +0.000 C 
BRANCH  20  22
ATOM     22  C   UNL     1       0.883   8.893  19.837  0.00  0.00    +0.000 C 
BRANCH  22  23
ATOM     23  N   UNL     1       1.348   9.748  20.966  0.00  0.00    +0.000 NA
ATOM     24  C   UNL     1       1.055   9.240  22.322  0.00  0.00    +0.000 C 
ATOM     25  C   UNL     1      -0.422   9.307  22.740  0.00  0.00    +0.000 C 
ATOM     26  O   UNL     1      -0.934  10.641  22.632  0.00  0.00    +0.000 OA
ATOM     27  C   UNL     1      -0.751  11.149  21.302  0.00  0.00    +0.000 C 
ATOM     28  C   UNL     1       0.729  11.102  20.882  0.00  0.00    +0.000 C 
ENDBRANCH  22  23
ENDBRANCH  20  22
ENDBRANCH  17  20
ENDBRANCH   1  17
TORSDOF 5
ENDMDL
