MODEL 1
REMARK VINA RESULT:      -7.3      0.000      0.000
REMARK  Name = 
REMARK  5 active torsions:
REMARK  status: ('A' for Active; 'I' for Inactive)
REMARK    1  A    between atoms: N_1  and  N_2
REMARK    2  A    between atoms: C_3  and  S_4
REMARK    3  A    between atoms: S_4  and  C_5
REMARK    4  A    between atoms: C_5  and  C_6
REMARK    5  A    between atoms: C_16  and  C_17
REMARK                            x       y       z     vdW  Elec       q    Type
REMARK                         _______ _______ _______ _____ _____    ______ ____
ROOT
ATOM      1  N   UNL     1       5.996   4.657  16.666  0.00  0.00    +0.000 N 
ATOM      2  C   UNL     1       6.293   5.452  17.754  0.00  0.00    +0.000 A 
ATOM      3  N   UNL     1       7.174   6.365  17.415  0.00  0.00    +0.000 NA
ATOM      4  N   UNL     1       7.441   6.202  16.073  0.00  0.00    +0.000 NA
ATOM      5  C   UNL     1       6.704   5.204  15.603  0.00  0.00    +0.000 A 
ENDROOT
BRANCH   5   6
ATOM      6  C   UNL     1       6.716   4.708  14.224  0.00  0.00    +0.000 A 
ATOM      7  C   UNL     1       5.813   3.758  13.746  0.00  0.00    +0.000 A 
ATOM      8  C   UNL     1       5.912   3.295  12.432  0.00  0.00    +0.000 A 
ATOM      9  C   UNL     1       6.905   3.820  11.626  0.00  0.00    +0.000 A 
ATOM     10  N   UNL     1       7.781   4.761  12.038  0.00  0.00    +0.000 NA
ATOM     11  C   UNL     1       7.657   5.191  13.318  0.00  0.00    +0.000 A 
ENDBRANCH   5   6
BRANCH   1  12
ATOM     12  N   UNL     1       5.207   3.441  16.650  0.00  0.00    +0.000 N 
ATOM     13  H   UNL     1       4.223   3.654  16.798  0.00  0.00    +0.000 HD
ATOM     14  H   UNL     1       5.463   2.829  17.425  0.00  0.00    +0.000 HD
ENDBRANCH   1  12
BRANCH   2  15
ATOM     15  S   UNL     1       5.639   5.201  19.339  0.00  0.00    +0.000 S 
BRANCH  15  16
ATOM     16  C   UNL     1       4.017   6.033  19.210  0.00  0.00    +0.000 C 
BRANCH  16  17
ATOM     17  C   UNL     1       2.908   5.123  18.683  0.00  0.00    +0.000 C 
ATOM     18  O   UNL     1       2.740   4.917  17.480  0.00  0.00    +0.000 OA
ATOM     19  N   UNL     1       2.106   4.492  19.632  0.00  0.00    +0.000 N 
ATOM     20  C   UNL     1       2.180   4.628  21.091  0.00  0.00    +0.000 C 
ATOM     21  C   UNL     1       2.294   3.243  21.751  0.00  0.00    +0.000 C 
ATOM     22  O   UNL     1       1.237   2.370  21.323  0.00  0.00    +0.000 OA
ATOM     23  C   UNL     1       1.248   2.209  19.894  0.00  0.00    +0.000 C 
ATOM     24  C   UNL     1       1.067   3.557  19.191  0.00  0.00    +0.000 C 
ENDBRANCH  16  17
ENDBRANCH  15  16
ENDBRANCH   2  15
TORSDOF 5
ENDMDL
MODEL 2
REMARK VINA RESULT:      -7.2      1.909      2.463
REMARK  Name = 
REMARK  5 active torsions:
REMARK  status: ('A' for Active; 'I' for Inactive)
REMARK    1  A    between atoms: N_1  and  N_2
REMARK    2  A    between atoms: C_3  and  S_4
REMARK    3  A    between atoms: S_4  and  C_5
REMARK    4  A    between atoms: C_5  and  C_6
REMARK    5  A    between atoms: C_16  and  C_17
REMARK                            x       y       z     vdW  Elec       q    Type
REMARK                         _______ _______ _______ _____ _____    ______ ____
ROOT
ATOM      1  N   UNL     1       6.383   3.955  15.487  0.00  0.00    +0.000 N 
ATOM      2  C   UNL     1       7.033   4.911  16.240  0.00  0.00    +0.000 A 
ATOM      3  N   UNL     1       7.604   5.792  15.450  0.00  0.00    +0.000 NA
ATOM      4  N   UNL     1       7.300   5.439  14.153  0.00  0.00    +0.000 NA
ATOM      5  C   UNL     1       6.529   4.361  14.166  0.00  0.00    +0.000 A 
ENDROOT
BRANCH   5   6
ATOM      6  C   UNL     1       6.009   3.666  12.985  0.00  0.00    +0.000 A 
ATOM      7  C   UNL     1       4.705   3.828  12.516  0.00  0.00    +0.000 A 
ATOM      8  C   UNL     1       4.261   3.098  11.412  0.00  0.00    +0.000 A 
ATOM      9  C   UNL     1       5.151   2.241  10.793  0.00  0.00    +0.000 A 
ATOM     10  N   UNL     1       6.430   2.075  11.195  0.00  0.00    +0.000 NA
ATOM     11  C   UNL     1       6.830   2.800  12.268  0.00  0.00    +0.000 A 
ENDBRANCH   5   6
BRANCH   1  12
ATOM     12  N   UNL     1       5.773   2.726  15.956  0.00  0.00    +0.000 N 
ATOM     13  H   UNL     1       5.654   2.072  15.184  0.00  0.00    +0.000 HD
ATOM     14  H   UNL     1       4.830   2.896  16.304  0.00  0.00    +0.000 HD
ENDBRANCH   1  12
BRANCH   2  15
ATOM     15  S   UNL     1       7.126   4.878  17.970  0.00  0.00    +0.000 S 
BRANCH  15  16
ATOM     16  C   UNL     1       5.367   5.031  18.442  0.00  0.00    +0.000 C 
BRANCH  16  17
ATOM     17  C   UNL     1       4.772   3.736  18.997  0.00  0.00    +0.000 C 
ATOM     18  O   UNL     1       5.298   3.112  19.919  0.00  0.00    +0.000 OA
ATOM     19  N   UNL     1       3.571   3.305  18.438  0.00  0.00    +0.000 N 
ATOM     20  C   UNL     1       2.821   3.935  17.345  0.00  0.00    +0.000 C 
ATOM     21  C   UNL     1       1.363   4.180  17.769  0.00  0.00    +0.000 C 
ATOM     22  O   UNL     1       0.747   2.975  18.249  0.00  0.00    +0.000 OA
ATOM     23  C   UNL     1       1.474   2.433  19.365  0.00  0.00    +0.000 C 
ATOM     24  C   UNL     1       2.918   2.106  18.971  0.00  0.00    +0.000 C 
ENDBRANCH  16  17
ENDBRANCH  15  16
ENDBRANCH   2  15
TORSDOF 5
ENDMDL
MODEL 3
REMARK VINA RESULT:      -7.2      0.603      1.026
REMARK  Name = 
REMARK  5 active torsions:
REMARK  status: ('A' for Active; 'I' for Inactive)
REMARK    1  A    between atoms: N_1  and  N_2
REMARK    2  A    between atoms: C_3  and  S_4
REMARK    3  A    between atoms: S_4  and  C_5
REMARK    4  A    between atoms: C_5  and  C_6
REMARK    5  A    between atoms: C_16  and  C_17
REMARK                            x       y       z     vdW  Elec       q    Type
REMARK                         _______ _______ _______ _____ _____    ______ ____
ROOT
ATOM      1  N   UNL     1       6.136   4.643  16.651  0.00  0.00    +0.000 N 
ATOM      2  C   UNL     1       6.400   5.444  17.742  0.00  0.00    +0.000 A 
ATOM      3  N   UNL     1       7.242   6.394  17.408  0.00  0.00    +0.000 NA
ATOM      4  N   UNL     1       7.516   6.248  16.065  0.00  0.00    +0.000 NA
ATOM      5  C   UNL     1       6.821   5.223  15.591  0.00  0.00    +0.000 A 
ENDROOT
BRANCH   5   6
ATOM      6  C   UNL     1       6.853   4.735  14.209  0.00  0.00    +0.000 A 
ATOM      7  C   UNL     1       7.744   5.215  13.249  0.00  0.00    +0.000 A 
ATOM      8  C   UNL     1       7.686   4.738  11.938  0.00  0.00    +0.000 A 
ATOM      9  C   UNL     1       6.748   3.770  11.634  0.00  0.00    +0.000 A 
ATOM     10  N   UNL     1       5.886   3.257  12.538  0.00  0.00    +0.000 NA
ATOM     11  C   UNL     1       5.969   3.739  13.802  0.00  0.00    +0.000 A 
ENDBRANCH   5   6
BRANCH   1  12
ATOM     12  N   UNL     1       5.397   3.395  16.629  0.00  0.00    +0.000 N 
ATOM     13  H   UNL     1       4.460   3.531  17.004  0.00  0.00    +0.000 HD
ATOM     14  H   UNL     1       5.828   2.705  17.243  0.00  0.00    +0.000 HD
ENDBRANCH   1  12
BRANCH   2  15
ATOM     15  S   UNL     1       5.757   5.160  19.327  0.00  0.00    +0.000 S 
BRANCH  15  16
ATOM     16  C   UNL     1       4.136   6.000  19.228  0.00  0.00    +0.000 C 
BRANCH  16  17
ATOM     17  C   UNL     1       3.023   5.109  18.676  0.00  0.00    +0.000 C 
ATOM     18  O   UNL     1       2.903   4.874  17.473  0.00  0.00    +0.000 OA
ATOM     19  N   UNL     1       2.159   4.532  19.604  0.00  0.00    +0.000 N 
ATOM     20  C   UNL     1       2.172   4.708  21.061  0.00  0.00    +0.000 C 
ATOM     21  C   UNL     1       2.210   3.341  21.764  0.00  0.00    +0.000 C 
ATOM     22  O   UNL     1       1.146   2.488  21.312  0.00  0.00    +0.000 OA
ATOM     23  C   UNL     1       1.217   2.285  19.890  0.00  0.00    +0.000 C 
ATOM     24  C   UNL     1       1.111   3.618  19.142  0.00  0.00    +0.000 C 
ENDBRANCH  16  17
ENDBRANCH  15  16
ENDBRANCH   2  15
TORSDOF 5
ENDMDL
MODEL 4
REMARK VINA RESULT:      -7.0      1.931      2.465
REMARK  Name = 
REMARK  5 active torsions:
REMARK  status: ('A' for Active; 'I' for Inactive)
REMARK    1  A    between atoms: N_1  and  N_2
REMARK    2  A    between atoms: C_3  and  S_4
REMARK    3  A    between atoms: S_4  and  C_5
REMARK    4  A    between atoms: C_5  and  C_6
REMARK    5  A    between atoms: C_16  and  C_17
REMARK                            x       y       z     vdW  Elec       q    Type
REMARK                         _______ _______ _______ _____ _____    ______ ____
ROOT
ATOM      1  N   UNL     1       6.353   3.924  15.330  0.00  0.00    +0.000 N 
ATOM      2  C   UNL     1       7.113   4.854  16.009  0.00  0.00    +0.000 A 
ATOM      3  N   UNL     1       7.684   5.675  15.158  0.00  0.00    +0.000 NA
ATOM      4  N   UNL     1       7.270   5.312  13.895  0.00  0.00    +0.000 NA
ATOM      5  C   UNL     1       6.434   4.287  13.991  0.00  0.00    +0.000 A 
ENDROOT
BRANCH   5   6
ATOM      6  C   UNL     1       5.790   3.599  12.868  0.00  0.00    +0.000 A 
ATOM      7  C   UNL     1       4.551   3.977  12.350  0.00  0.00    +0.000 A 
ATOM      8  C   UNL     1       3.974   3.247  11.308  0.00  0.00    +0.000 A 
ATOM      9  C   UNL     1       4.673   2.169  10.800  0.00  0.00    +0.000 A 
ATOM     10  N   UNL     1       5.886   1.786  11.251  0.00  0.00    +0.000 NA
ATOM     11  C   UNL     1       6.420   2.516  12.261  0.00  0.00    +0.000 A 
ENDBRANCH   5   6
BRANCH   1  12
ATOM     12  N   UNL     1       5.700   2.750  15.874  0.00  0.00    +0.000 N 
ATOM     13  H   UNL     1       6.090   1.904  15.462  0.00  0.00    +0.000 HD
ATOM     14  H   UNL     1       4.712   2.732  15.622  0.00  0.00    +0.000 HD
ENDBRANCH   1  12
BRANCH   2  15
ATOM     15  S   UNL     1       7.323   4.857  17.730  0.00  0.00    +0.000 S 
BRANCH  15  16
ATOM     16  C   UNL     1       6.143   6.153  18.248  0.00  0.00    +0.000 C 
BRANCH  16  17
ATOM     17  C   UNL     1       4.739   5.962  17.674  0.00  0.00    +0.000 C 
ATOM     18  O   UNL     1       4.344   6.573  16.682  0.00  0.00    +0.000 OA
ATOM     19  N   UNL     1       3.925   5.022  18.304  0.00  0.00    +0.000 N 
ATOM     20  C   UNL     1       4.247   4.213  19.485  0.00  0.00    +0.000 C 
ATOM     21  C   UNL     1       4.010   2.723  19.192  0.00  0.00    +0.000 C 
ATOM     22  O   UNL     1       2.682   2.489  18.699  0.00  0.00    +0.000 OA
ATOM     23  C   UNL     1       2.435   3.246  17.501  0.00  0.00    +0.000 C 
ATOM     24  C   UNL     1       2.591   4.747  17.762  0.00  0.00    +0.000 C 
ENDBRANCH  16  17
ENDBRANCH  15  16
ENDBRANCH   2  15
TORSDOF 5
ENDMDL
MODEL 5
REMARK VINA RESULT:      -7.0      6.162      7.744
REMARK  Name = 
REMARK  5 active torsions:
REMARK  status: ('A' for Active; 'I' for Inactive)
REMARK    1  A    between atoms: N_1  and  N_2
REMARK    2  A    between atoms: C_3  and  S_4
REMARK    3  A    between atoms: S_4  and  C_5
REMARK    4  A    between atoms: C_5  and  C_6
REMARK    5  A    between atoms: C_16  and  C_17
REMARK                            x       y       z     vdW  Elec       q    Type
REMARK                         _______ _______ _______ _____ _____    ______ ____
ROOT
ATOM      1  N   UNL     1       1.777   8.117  19.398  0.00  0.00    +0.000 N 
ATOM      2  C   UNL     1       1.347   9.372  19.020  0.00  0.00    +0.000 A 
ATOM      3  N   UNL     1       1.751   9.636  17.799  0.00  0.00    +0.000 NA
ATOM      4  N   UNL     1       2.429   8.527  17.341  0.00  0.00    +0.000 NA
ATOM      5  C   UNL     1       2.412   7.591  18.280  0.00  0.00    +0.000 A 
ENDROOT
BRANCH   5   6
ATOM      6  C   UNL     1       3.042   6.270  18.183  0.00  0.00    +0.000 A 
ATOM      7  C   UNL     1       2.317   5.080  18.124  0.00  0.00    +0.000 A 
ATOM      8  C   UNL     1       2.983   3.854  18.081  0.00  0.00    +0.000 A 
ATOM      9  C   UNL     1       4.365   3.860  18.075  0.00  0.00    +0.000 A 
ATOM     10  N   UNL     1       5.106   4.989  18.102  0.00  0.00    +0.000 NA
ATOM     11  C   UNL     1       4.429   6.162  18.141  0.00  0.00    +0.000 A 
ENDBRANCH   5   6
BRANCH   1  12
ATOM     12  N   UNL     1       1.691   7.512  20.713  0.00  0.00    +0.000 N 
ATOM     13  H   UNL     1       2.584   7.096  20.972  0.00  0.00    +0.000 HD
ATOM     14  H   UNL     1       1.030   6.736  20.715  0.00  0.00    +0.000 HD
ENDBRANCH   1  12
BRANCH   2  15
ATOM     15  S   UNL     1       0.471  10.446  20.061  0.00  0.00    +0.000 S 
BRANCH  15  16
ATOM     16  C   UNL     1      -0.333  11.560  18.857  0.00  0.00    +0.000 C 
BRANCH  16  17
ATOM     17  C   UNL     1      -1.852  11.632  19.015  0.00  0.00    +0.000 C 
ATOM     18  O   UNL     1      -2.390  12.251  19.933  0.00  0.00    +0.000 OA
ATOM     19  N   UNL     1      -2.618  10.994  18.041  0.00  0.00    +0.000 N 
ATOM     20  C   UNL     1      -2.132  10.224  16.890  0.00  0.00    +0.000 C 
ATOM     21  C   UNL     1      -2.761  10.754  15.591  0.00  0.00    +0.000 C 
ATOM     22  O   UNL     1      -4.194  10.788  15.676  0.00  0.00    +0.000 OA
ATOM     23  C   UNL     1      -4.625  11.612  16.773  0.00  0.00    +0.000 C 
ATOM     24  C   UNL     1      -4.080  11.081  18.103  0.00  0.00    +0.000 C 
ENDBRANCH  16  17
ENDBRANCH  15  16
ENDBRANCH   2  15
TORSDOF 5
ENDMDL
MODEL 6
REMARK VINA RESULT:      -6.9      1.988      2.580
REMARK  Name = 
REMARK  5 active torsions:
REMARK  status: ('A' for Active; 'I' for Inactive)
REMARK    1  A    between atoms: N_1  and  N_2
REMARK    2  A    between atoms: C_3  and  S_4
REMARK    3  A    between atoms: S_4  and  C_5
REMARK    4  A    between atoms: C_5  and  C_6
REMARK    5  A    between atoms: C_16  and  C_17
REMARK                            x       y       z     vdW  Elec       q    Type
REMARK                         _______ _______ _______ _____ _____    ______ ____
ROOT
ATOM      1  N   UNL     1       6.377   3.959  15.446  0.00  0.00    +0.000 N 
ATOM      2  C   UNL     1       7.027   4.934  16.174  0.00  0.00    +0.000 A 
ATOM      3  N   UNL     1       7.624   5.776  15.363  0.00  0.00    +0.000 NA
ATOM      4  N   UNL     1       7.339   5.380  14.074  0.00  0.00    +0.000 NA
ATOM      5  C   UNL     1       6.552   4.313  14.114  0.00  0.00    +0.000 A 
ENDROOT
BRANCH   5   6
ATOM      6  C   UNL     1       6.043   3.581  12.950  0.00  0.00    +0.000 A 
ATOM      7  C   UNL     1       6.834   2.735  12.173  0.00  0.00    +0.000 A 
ATOM      8  C   UNL     1       6.295   2.107  11.048  0.00  0.00    +0.000 A 
ATOM      9  C   UNL     1       4.964   2.329  10.750  0.00  0.00    +0.000 A 
ATOM     10  N   UNL     1       4.154   3.117  11.490  0.00  0.00    +0.000 NA
ATOM     11  C   UNL     1       4.708   3.710  12.576  0.00  0.00    +0.000 A 
ENDBRANCH   5   6
BRANCH   1  12
ATOM     12  N   UNL     1       5.742   2.757  15.949  0.00  0.00    +0.000 N 
ATOM     13  H   UNL     1       5.654   2.064  15.207  0.00  0.00    +0.000 HD
ATOM     14  H   UNL     1       4.785   2.946  16.246  0.00  0.00    +0.000 HD
ENDBRANCH   1  12
BRANCH   2  15
ATOM     15  S   UNL     1       7.089   4.965  17.906  0.00  0.00    +0.000 S 
BRANCH  15  16
ATOM     16  C   UNL     1       5.318   5.066  18.342  0.00  0.00    +0.000 C 
BRANCH  16  17
ATOM     17  C   UNL     1       4.766   3.775  18.948  0.00  0.00    +0.000 C 
ATOM     18  O   UNL     1       5.326   3.193  19.878  0.00  0.00    +0.000 OA
ATOM     19  N   UNL     1       3.565   3.298  18.427  0.00  0.00    +0.000 N 
ATOM     20  C   UNL     1       2.778   3.875  17.332  0.00  0.00    +0.000 C 
ATOM     21  C   UNL     1       1.324   4.096  17.778  0.00  0.00    +0.000 C 
ATOM     22  O   UNL     1       0.748   2.892  18.308  0.00  0.00    +0.000 OA
ATOM     23  C   UNL     1       1.510   2.403  19.424  0.00  0.00    +0.000 C 
ATOM     24  C   UNL     1       2.953   2.100  19.010  0.00  0.00    +0.000 C 
ENDBRANCH  16  17
ENDBRANCH  15  16
ENDBRANCH   2  15
TORSDOF 5
ENDMDL
MODEL 7
REMARK VINA RESULT:      -6.9      6.168      7.761
REMARK  Name = 
REMARK  5 active torsions:
REMARK  status: ('A' for Active; 'I' for Inactive)
REMARK    1  A    between atoms: N_1  and  N_2
REMARK    2  A    between atoms: C_3  and  S_4
REMARK    3  A    between atoms: S_4  and  C_5
REMARK    4  A    between atoms: C_5  and  C_6
REMARK    5  A    between atoms: C_16  and  C_17
REMARK                            x       y       z     vdW  Elec       q    Type
REMARK                         _______ _______ _______ _____ _____    ______ ____
ROOT
ATOM      1  N   UNL     1       1.811   8.135  19.386  0.00  0.00    +0.000 N 
ATOM      2  C   UNL     1       1.285   9.367  19.058  0.00  0.00    +0.000 A 
ATOM      3  N   UNL     1       1.629   9.689  17.832  0.00  0.00    +0.000 NA
ATOM      4  N   UNL     1       2.365   8.642  17.322  0.00  0.00    +0.000 NA
ATOM      5  C   UNL     1       2.443   7.683  18.234  0.00  0.00    +0.000 A 
ENDROOT
BRANCH   5   6
ATOM      6  C   UNL     1       3.157   6.412  18.080  0.00  0.00    +0.000 A 
ATOM      7  C   UNL     1       4.528   6.331  17.834  0.00  0.00    +0.000 A 
ATOM      8  C   UNL     1       5.136   5.087  17.650  0.00  0.00    +0.000 A 
ATOM      9  C   UNL     1       4.349   3.955  17.744  0.00  0.00    +0.000 A 
ATOM     10  N   UNL     1       3.025   3.985  18.009  0.00  0.00    +0.000 NA
ATOM     11  C   UNL     1       2.467   5.208  18.184  0.00  0.00    +0.000 A 
ENDBRANCH   5   6
BRANCH   1  12
ATOM     12  N   UNL     1       1.811   7.492  20.686  0.00  0.00    +0.000 N 
ATOM     13  H   UNL     1       2.461   6.708  20.694  0.00  0.00    +0.000 HD
ATOM     14  H   UNL     1       0.901   7.079  20.889  0.00  0.00    +0.000 HD
ENDBRANCH   1  12
BRANCH   2  15
ATOM     15  S   UNL     1       0.373  10.350  20.156  0.00  0.00    +0.000 S 
BRANCH  15  16
ATOM     16  C   UNL     1      -0.386  11.568  19.024  0.00  0.00    +0.000 C 
BRANCH  16  17
ATOM     17  C   UNL     1      -1.910  11.632  19.133  0.00  0.00    +0.000 C 
ATOM     18  O   UNL     1      -2.481  12.253  20.029  0.00  0.00    +0.000 OA
ATOM     19  N   UNL     1      -2.639  10.983  18.138  0.00  0.00    +0.000 N 
ATOM     20  C   UNL     1      -2.112  10.209  17.008  0.00  0.00    +0.000 C 
ATOM     21  C   UNL     1      -2.700  10.727  15.686  0.00  0.00    +0.000 C 
ATOM     22  O   UNL     1      -4.136  10.754  15.725  0.00  0.00    +0.000 OA
ATOM     23  C   UNL     1      -4.607  11.581  16.802  0.00  0.00    +0.000 C 
ATOM     24  C   UNL     1      -4.103  11.061  18.152  0.00  0.00    +0.000 C 
ENDBRANCH  16  17
ENDBRANCH  15  16
ENDBRANCH   2  15
TORSDOF 5
ENDMDL
MODEL 8
REMARK VINA RESULT:      -6.8      1.248      1.629
REMARK  Name = 
REMARK  5 active torsions:
REMARK  status: ('A' for Active; 'I' for Inactive)
REMARK    1  A    between atoms: N_1  and  N_2
REMARK    2  A    between atoms: C_3  and  S_4
REMARK    3  A    between atoms: S_4  and  C_5
REMARK    4  A    between atoms: C_5  and  C_6
REMARK    5  A    between atoms: C_16  and  C_17
REMARK                            x       y       z     vdW  Elec       q    Type
REMARK                         _______ _______ _______ _____ _____    ______ ____
ROOT
ATOM      1  N   UNL     1       5.189   5.571  16.271  0.00  0.00    +0.000 N 
ATOM      2  C   UNL     1       4.808   5.128  17.520  0.00  0.00    +0.000 A 
ATOM      3  N   UNL     1       5.025   3.837  17.624  0.00  0.00    +0.000 NA
ATOM      4  N   UNL     1       5.594   3.419  16.441  0.00  0.00    +0.000 NA
ATOM      5  C   UNL     1       5.737   4.464  15.636  0.00  0.00    +0.000 A 
ENDROOT
BRANCH   5   6
ATOM      6  C   UNL     1       6.288   4.428  14.278  0.00  0.00    +0.000 A 
ATOM      7  C   UNL     1       5.807   3.581  13.280  0.00  0.00    +0.000 A 
ATOM      8  C   UNL     1       6.411   3.565  12.021  0.00  0.00    +0.000 A 
ATOM      9  C   UNL     1       7.470   4.424  11.793  0.00  0.00    +0.000 A 
ATOM     10  N   UNL     1       7.949   5.280  12.721  0.00  0.00    +0.000 NA
ATOM     11  C   UNL     1       7.340   5.272  13.931  0.00  0.00    +0.000 A 
ENDBRANCH   5   6
BRANCH   1  12
ATOM     12  N   UNL     1       4.966   6.882  15.692  0.00  0.00    +0.000 N 
ATOM     13  H   UNL     1       5.636   7.553  16.063  0.00  0.00    +0.000 HD
ATOM     14  H   UNL     1       4.053   7.248  15.961  0.00  0.00    +0.000 HD
ENDBRANCH   1  12
BRANCH   2  15
ATOM     15  S   UNL     1       4.079   6.141  18.723  0.00  0.00    +0.000 S 
BRANCH  15  16
ATOM     16  C   UNL     1       2.327   6.138  18.203  0.00  0.00    +0.000 C 
BRANCH  16  17
ATOM     17  C   UNL     1       1.717   4.738  18.130  0.00  0.00    +0.000 C 
ATOM     18  O   UNL     1       1.578   4.134  17.066  0.00  0.00    +0.000 OA
ATOM     19  N   UNL     1       1.355   4.145  19.338  0.00  0.00    +0.000 N 
ATOM     20  C   UNL     1       1.461   4.727  20.682  0.00  0.00    +0.000 C 
ATOM     21  C   UNL     1       2.234   3.779  21.614  0.00  0.00    +0.000 C 
ATOM     22  O   UNL     1       1.661   2.462  21.617  0.00  0.00    +0.000 OA
ATOM     23  C   UNL     1       1.645   1.904  20.292  0.00  0.00    +0.000 C 
ATOM     24  C   UNL     1       0.825   2.779  19.340  0.00  0.00    +0.000 C 
ENDBRANCH  16  17
ENDBRANCH  15  16
ENDBRANCH   2  15
TORSDOF 5
ENDMDL
MODEL 9
REMARK VINA RESULT:      -6.8      4.509      7.911
REMARK  Name = 
REMARK  5 active torsions:
REMARK  status: ('A' for Active; 'I' for Inactive)
REMARK    1  A    between atoms: N_1  and  N_2
REMARK    2  A    between atoms: C_3  and  S_4
REMARK    3  A    between atoms: S_4  and  C_5
REMARK    4  A    between atoms: C_5  and  C_6
REMARK    5  A    between atoms: C_16  and  C_17
REMARK                            x       y       z     vdW  Elec       q    Type
REMARK                         _______ _______ _______ _____ _____    ______ ____
ROOT
ATOM      1  N   UNL     1       1.821   8.254  19.687  0.00  0.00    +0.000 N 
ATOM      2  C   UNL     1       2.282   8.167  18.390  0.00  0.00    +0.000 A 
ATOM      3  N   UNL     1       1.756   9.125  17.662  0.00  0.00    +0.000 NA
ATOM      4  N   UNL     1       0.961   9.885  18.492  0.00  0.00    +0.000 NA
ATOM      5  C   UNL     1       1.028   9.395  19.723  0.00  0.00    +0.000 A 
ENDROOT
BRANCH   5   6
ATOM      6  C   UNL     1       0.309   9.914  20.890  0.00  0.00    +0.000 A 
ATOM      7  C   UNL     1       0.237   9.235  22.107  0.00  0.00    +0.000 A 
ATOM      8  C   UNL     1      -0.506   9.766  23.164  0.00  0.00    +0.000 A 
ATOM      9  C   UNL     1      -1.138  10.980  22.973  0.00  0.00    +0.000 A 
ATOM     10  N   UNL     1      -1.072  11.684  21.823  0.00  0.00    +0.000 NA
ATOM     11  C   UNL     1      -0.341  11.143  20.818  0.00  0.00    +0.000 A 
ENDBRANCH   5   6
BRANCH   1  12
ATOM     12  N   UNL     1       2.021   7.302  20.762  0.00  0.00    +0.000 N 
ATOM     13  H   UNL     1       1.372   6.522  20.670  0.00  0.00    +0.000 HD
ATOM     14  H   UNL     1       1.801   7.720  21.665  0.00  0.00    +0.000 HD
ENDBRANCH   1  12
BRANCH   2  15
ATOM     15  S   UNL     1       3.339   6.916  17.824  0.00  0.00    +0.000 S 
BRANCH  15  16
ATOM     16  C   UNL     1       2.233   5.462  17.828  0.00  0.00    +0.000 C 
BRANCH  16  17
ATOM     17  C   UNL     1       2.968   4.139  18.043  0.00  0.00    +0.000 C 
ATOM     18  O   UNL     1       3.855   3.748  17.283  0.00  0.00    +0.000 OA
ATOM     19  N   UNL     1       2.620   3.400  19.172  0.00  0.00    +0.000 N 
ATOM     20  C   UNL     1       1.595   3.730  20.170  0.00  0.00    +0.000 C 
ATOM     21  C   UNL     1       2.199   3.700  21.584  0.00  0.00    +0.000 C 
ATOM     22  O   UNL     1       2.856   2.451  21.848  0.00  0.00    +0.000 OA
ATOM     23  C   UNL     1       3.900   2.205  20.890  0.00  0.00    +0.000 C 
ATOM     24  C   UNL     1       3.334   2.155  19.467  0.00  0.00    +0.000 C 
ENDBRANCH  16  17
ENDBRANCH  15  16
ENDBRANCH   2  15
TORSDOF 5
ENDMDL
