MODEL 1
REMARK VINA RESULT:      -9.4      0.000      0.000
REMARK  Name = 
REMARK  7 active torsions:
REMARK  status: ('A' for Active; 'I' for Inactive)
REMARK    1  A    between atoms: C_1  and  O_2
REMARK    2  A    between atoms: O_2  and  C_3
REMARK    3  A    between atoms: N_10  and  C_11
REMARK    4  A    between atoms: C_14  and  N_15
REMARK    5  A    between atoms: C_16  and  C_18
REMARK    6  A    between atoms: C_29  and  O_30
REMARK    7  A    between atoms: O_30  and  C_31
REMARK                            x       y       z     vdW  Elec       q    Type
REMARK                         _______ _______ _______ _____ _____    ______ ____
ROOT
ATOM      1  C   UNL     1       2.023   7.779  19.666  0.00  0.00    +0.000 A 
ATOM      2  C   UNL     1       1.410   7.593  20.905  0.00  0.00    +0.000 A 
ATOM      3  C   UNL     1       0.519   8.540  21.415  0.00  0.00    +0.000 A 
ATOM      4  C   UNL     1       0.236   9.712  20.717  0.00  0.00    +0.000 A 
ATOM      5  C   UNL     1       0.794   9.875  19.446  0.00  0.00    +0.000 A 
ATOM      6  C   UNL     1       1.678   8.910  18.924  0.00  0.00    +0.000 A 
ENDROOT
BRANCH   1  14
ATOM      7  C   UNL     1       5.997   4.688  15.779  0.00  0.00    +0.000 A 
ATOM      8  C   UNL     1       4.899   3.852  16.056  0.00  0.00    +0.000 A 
ATOM      9  C   UNL     1       3.904   4.191  16.964  0.00  0.00    +0.000 A 
ATOM     10  N   UNL     1       2.836   3.398  17.085  0.00  0.00    +0.000 NA
ATOM     11  C   UNL     1       1.860   3.823  17.899  0.00  0.00    +0.000 A 
ATOM     12  N   UNL     1       1.859   4.956  18.605  0.00  0.00    +0.000 NA
ATOM     13  C   UNL     1       2.963   5.718  18.515  0.00  0.00    +0.000 A 
ATOM     14  N   UNL     1       3.047   6.896  19.281  0.00  0.00    +0.000 N 
ATOM     15  C   UNL     1       4.048   5.374  17.687  0.00  0.00    +0.000 A 
ATOM     16  C   UNL     1       5.210   6.158  17.507  0.00  0.00    +0.000 A 
ATOM     17  C   UNL     1       6.179   5.840  16.549  0.00  0.00    +0.000 A 
ATOM     18  H   UNL     1       3.817   6.844  19.937  0.00  0.00    +0.000 HD
BRANCH   7  20
ATOM     19  C   UNL     1       6.315   3.899  13.565  0.00  0.00    +0.000 C 
ATOM     20  O   UNL     1       6.888   4.387  14.781  0.00  0.00    +0.000 OA
ENDBRANCH   7  20
BRANCH  17  21
ATOM     21  O   UNL     1       7.170   6.778  16.507  0.00  0.00    +0.000 OA
ATOM     22  C   UNL     1       7.504   7.518  17.669  0.00  0.00    +0.000 C 
ENDBRANCH  17  21
ENDBRANCH   1  14
BRANCH   4  23
ATOM     23  N   UNL     1      -0.567  10.754  21.247  0.00  0.00    +0.000 N 
ATOM     24  C   UNL     1      -0.662  11.094  22.590  0.00  0.00    +0.000 C 
ATOM     25  O   UNL     1      -0.090  10.542  23.523  0.00  0.00    +0.000 OA
ATOM     26  H   UNL     1      -1.093  11.296  20.576  0.00  0.00    +0.000 HD
BRANCH  24  27
ATOM     27  C   UNL     1      -1.558  12.229  22.946  0.00  0.00    +0.000 A 
ATOM     28  C   UNL     1      -2.904  11.918  23.206  0.00  0.00    +0.000 A 
ATOM     29  C   UNL     1      -3.804  12.913  23.585  0.00  0.00    +0.000 A 
ATOM     30  C   UNL     1      -3.358  14.225  23.717  0.00  0.00    +0.000 A 
ATOM     31 CL   UNL     1      -4.461  15.455  24.189  0.00  0.00    +0.000 Cl
ATOM     32  C   UNL     1      -2.017  14.544  23.483  0.00  0.00    +0.000 A 
ATOM     33  C   UNL     1      -1.111  13.546  23.099  0.00  0.00    +0.000 A 
ENDBRANCH  24  27
ENDBRANCH   4  23
TORSDOF 5
ENDMDL
MODEL 2
REMARK VINA RESULT:      -9.0      3.038      3.351
REMARK  Name = 
REMARK  7 active torsions:
REMARK  status: ('A' for Active; 'I' for Inactive)
REMARK    1  A    between atoms: C_1  and  O_2
REMARK    2  A    between atoms: O_2  and  C_3
REMARK    3  A    between atoms: N_10  and  C_11
REMARK    4  A    between atoms: C_14  and  N_15
REMARK    5  A    between atoms: C_16  and  C_18
REMARK    6  A    between atoms: C_29  and  O_30
REMARK    7  A    between atoms: O_30  and  C_31
REMARK                            x       y       z     vdW  Elec       q    Type
REMARK                         _______ _______ _______ _____ _____    ______ ____
ROOT
ATOM      1  C   UNL     1       2.034   8.443  18.991  0.00  0.00    +0.000 A 
ATOM      2  C   UNL     1       1.635   9.166  17.868  0.00  0.00    +0.000 A 
ATOM      3  C   UNL     1       0.491   9.967  17.898  0.00  0.00    +0.000 A 
ATOM      4  C   UNL     1      -0.303  10.047  19.041  0.00  0.00    +0.000 A 
ATOM      5  C   UNL     1       0.127   9.377  20.191  0.00  0.00    +0.000 A 
ATOM      6  C   UNL     1       1.291   8.585  20.164  0.00  0.00    +0.000 A 
ENDROOT
BRANCH   1  14
ATOM      7  C   UNL     1       6.374   4.822  16.071  0.00  0.00    +0.000 A 
ATOM      8  C   UNL     1       5.236   4.036  16.334  0.00  0.00    +0.000 A 
ATOM      9  C   UNL     1       4.150   4.503  17.064  0.00  0.00    +0.000 A 
ATOM     10  N   UNL     1       3.061   3.736  17.171  0.00  0.00    +0.000 NA
ATOM     11  C   UNL     1       2.006   4.274  17.797  0.00  0.00    +0.000 A 
ATOM     12  N   UNL     1       1.944   5.496  18.330  0.00  0.00    +0.000 NA
ATOM     13  C   UNL     1       3.064   6.236  18.262  0.00  0.00    +0.000 A 
ATOM     14  N   UNL     1       3.079   7.512  18.857  0.00  0.00    +0.000 N 
ATOM     15  C   UNL     1       4.230   5.776  17.623  0.00  0.00    +0.000 A 
ATOM     16  C   UNL     1       5.419   6.526  17.469  0.00  0.00    +0.000 A 
ATOM     17  C   UNL     1       6.486   6.073  16.686  0.00  0.00    +0.000 A 
ATOM     18  H   UNL     1       3.768   7.553  19.599  0.00  0.00    +0.000 HD
BRANCH   7  20
ATOM     19  C   UNL     1       7.216   4.725  13.856  0.00  0.00    +0.000 C 
ATOM     20  O   UNL     1       7.367   4.381  15.237  0.00  0.00    +0.000 OA
ENDBRANCH   7  20
BRANCH  17  21
ATOM     21  O   UNL     1       7.491   6.995  16.626  0.00  0.00    +0.000 OA
ATOM     22  C   UNL     1       7.739   7.855  17.725  0.00  0.00    +0.000 C 
ENDBRANCH  17  21
ENDBRANCH   1  14
BRANCH   4  23
ATOM     23  N   UNL     1      -1.533  10.751  19.081  0.00  0.00    +0.000 N 
ATOM     24  C   UNL     1      -2.541  10.667  18.130  0.00  0.00    +0.000 C 
ATOM     25  O   UNL     1      -2.519   9.995  17.104  0.00  0.00    +0.000 OA
ATOM     26  H   UNL     1      -1.680  11.344  19.886  0.00  0.00    +0.000 HD
BRANCH  24  27
ATOM     27  C   UNL     1      -3.765  11.481  18.358  0.00  0.00    +0.000 A 
ATOM     28  C   UNL     1      -4.766  11.412  17.373  0.00  0.00    +0.000 A 
ATOM     29  C   UNL     1      -5.964  12.110  17.524  0.00  0.00    +0.000 A 
ATOM     30  C   UNL     1      -6.169  12.875  18.668  0.00  0.00    +0.000 A 
ATOM     31 CL   UNL     1      -7.645  13.736  18.862  0.00  0.00    +0.000 Cl
ATOM     32  C   UNL     1      -5.191  12.937  19.665  0.00  0.00    +0.000 A 
ATOM     33  C   UNL     1      -3.986  12.237  19.515  0.00  0.00    +0.000 A 
ENDBRANCH  24  27
ENDBRANCH   4  23
TORSDOF 5
ENDMDL
MODEL 3
REMARK VINA RESULT:      -8.8      0.949      1.066
REMARK  Name = 
REMARK  7 active torsions:
REMARK  status: ('A' for Active; 'I' for Inactive)
REMARK    1  A    between atoms: C_1  and  O_2
REMARK    2  A    between atoms: O_2  and  C_3
REMARK    3  A    between atoms: N_10  and  C_11
REMARK    4  A    between atoms: C_14  and  N_15
REMARK    5  A    between atoms: C_16  and  C_18
REMARK    6  A    between atoms: C_29  and  O_30
REMARK    7  A    between atoms: O_30  and  C_31
REMARK                            x       y       z     vdW  Elec       q    Type
REMARK                         _______ _______ _______ _____ _____    ______ ____
ROOT
ATOM      1  C   UNL     1       2.114   7.659  19.538  0.00  0.00    +0.000 A 
ATOM      2  C   UNL     1       1.528   7.544  20.798  0.00  0.00    +0.000 A 
ATOM      3  C   UNL     1       0.614   8.497  21.255  0.00  0.00    +0.000 A 
ATOM      4  C   UNL     1       0.281   9.606  20.479  0.00  0.00    +0.000 A 
ATOM      5  C   UNL     1       0.814   9.694  19.189  0.00  0.00    +0.000 A 
ATOM      6  C   UNL     1       1.720   8.721  18.723  0.00  0.00    +0.000 A 
ENDROOT
BRANCH   1  14
ATOM      7  C   UNL     1       6.192   4.497  15.819  0.00  0.00    +0.000 A 
ATOM      8  C   UNL     1       5.109   3.650  16.119  0.00  0.00    +0.000 A 
ATOM      9  C   UNL     1       4.098   4.005  17.004  0.00  0.00    +0.000 A 
ATOM     10  N   UNL     1       3.046   3.194  17.146  0.00  0.00    +0.000 NA
ATOM     11  C   UNL     1       2.053   3.631  17.933  0.00  0.00    +0.000 A 
ATOM     12  N   UNL     1       2.021   4.792  18.592  0.00  0.00    +0.000 NA
ATOM     13  C   UNL     1       3.109   5.573  18.482  0.00  0.00    +0.000 A 
ATOM     14  N   UNL     1       3.160   6.783  19.199  0.00  0.00    +0.000 N 
ATOM     15  C   UNL     1       4.209   5.219  17.679  0.00  0.00    +0.000 A 
ATOM     16  C   UNL     1       5.357   6.020  17.477  0.00  0.00    +0.000 A 
ATOM     17  C   UNL     1       6.342   5.683  16.543  0.00  0.00    +0.000 A 
ATOM     18  H   UNL     1       3.925   6.774  19.864  0.00  0.00    +0.000 HD
BRANCH   7  20
ATOM     19  C   UNL     1       6.647   4.344  13.496  0.00  0.00    +0.000 C 
ATOM     20  O   UNL     1       7.099   4.175  14.843  0.00  0.00    +0.000 OA
ENDBRANCH   7  20
BRANCH  17  21
ATOM     21  O   UNL     1       7.313   6.640  16.471  0.00  0.00    +0.000 OA
ATOM     22  C   UNL     1       7.621   7.433  17.605  0.00  0.00    +0.000 C 
ENDBRANCH  17  21
ENDBRANCH   1  14
BRANCH   4  23
ATOM     23  N   UNL     1      -0.547  10.658  20.947  0.00  0.00    +0.000 N 
ATOM     24  C   UNL     1      -0.107  11.911  21.350  0.00  0.00    +0.000 C 
ATOM     25  O   UNL     1       1.056  12.297  21.386  0.00  0.00    +0.000 OA
ATOM     26  H   UNL     1      -1.540  10.468  20.963  0.00  0.00    +0.000 HD
BRANCH  24  27
ATOM     27  C   UNL     1      -1.138  12.884  21.803  0.00  0.00    +0.000 A 
ATOM     28  C   UNL     1      -1.263  13.079  23.189  0.00  0.00    +0.000 A 
ATOM     29  C   UNL     1      -2.175  14.002  23.701  0.00  0.00    +0.000 A 
ATOM     30  C   UNL     1      -2.961  14.743  22.823  0.00  0.00    +0.000 A 
ATOM     31 CL   UNL     1      -4.085  15.885  23.446  0.00  0.00    +0.000 Cl
ATOM     32  C   UNL     1      -2.833  14.575  21.441  0.00  0.00    +0.000 A 
ATOM     33  C   UNL     1      -1.918  13.647  20.926  0.00  0.00    +0.000 A 
ENDBRANCH  24  27
ENDBRANCH   4  23
TORSDOF 5
ENDMDL
MODEL 4
REMARK VINA RESULT:      -8.6      1.112      1.470
REMARK  Name = 
REMARK  7 active torsions:
REMARK  status: ('A' for Active; 'I' for Inactive)
REMARK    1  A    between atoms: C_1  and  O_2
REMARK    2  A    between atoms: O_2  and  C_3
REMARK    3  A    between atoms: N_10  and  C_11
REMARK    4  A    between atoms: C_14  and  N_15
REMARK    5  A    between atoms: C_16  and  C_18
REMARK    6  A    between atoms: C_29  and  O_30
REMARK    7  A    between atoms: O_30  and  C_31
REMARK                            x       y       z     vdW  Elec       q    Type
REMARK                         _______ _______ _______ _____ _____    ______ ____
ROOT
ATOM      1  C   UNL     1       2.176   7.731  19.929  0.00  0.00    +0.000 A 
ATOM      2  C   UNL     1       1.846   8.716  18.999  0.00  0.00    +0.000 A 
ATOM      3  C   UNL     1       0.834   9.641  19.261  0.00  0.00    +0.000 A 
ATOM      4  C   UNL     1       0.104   9.594  20.448  0.00  0.00    +0.000 A 
ATOM      5  C   UNL     1       0.473   8.652  21.413  0.00  0.00    +0.000 A 
ATOM      6  C   UNL     1       1.507   7.731  21.154  0.00  0.00    +0.000 A 
ENDROOT
BRANCH   1  14
ATOM      7  C   UNL     1       5.861   4.254  16.083  0.00  0.00    +0.000 A 
ATOM      8  C   UNL     1       4.626   3.596  16.237  0.00  0.00    +0.000 A 
ATOM      9  C   UNL     1       3.639   4.042  17.106  0.00  0.00    +0.000 A 
ATOM     10  N   UNL     1       2.451   3.430  17.109  0.00  0.00    +0.000 NA
ATOM     11  C   UNL     1       1.503   3.963  17.891  0.00  0.00    +0.000 A 
ATOM     12  N   UNL     1       1.635   5.039  18.671  0.00  0.00    +0.000 NA
ATOM     13  C   UNL     1       2.850   5.612  18.699  0.00  0.00    +0.000 A 
ATOM     14  N   UNL     1       3.069   6.714  19.546  0.00  0.00    +0.000 N 
ATOM     15  C   UNL     1       3.920   5.142  17.915  0.00  0.00    +0.000 A 
ATOM     16  C   UNL     1       5.203   5.733  17.857  0.00  0.00    +0.000 A 
ATOM     17  C   UNL     1       6.172   5.315  16.938  0.00  0.00    +0.000 A 
ATOM     18  H   UNL     1       3.774   6.499  20.241  0.00  0.00    +0.000 HD
BRANCH   7  20
ATOM     19  C   UNL     1       6.300   3.965  13.769  0.00  0.00    +0.000 C 
ATOM     20  O   UNL     1       6.759   3.868  15.121  0.00  0.00    +0.000 OA
ENDBRANCH   7  20
BRANCH  17  21
ATOM     21  O   UNL     1       7.302   6.078  17.018  0.00  0.00    +0.000 OA
ATOM     22  C   UNL     1       7.717   6.612  18.263  0.00  0.00    +0.000 C 
ENDBRANCH  17  21
ENDBRANCH   1  14
BRANCH   4  23
ATOM     23  N   UNL     1      -1.009  10.435  20.707  0.00  0.00    +0.000 N 
ATOM     24  C   UNL     1      -1.011  11.523  21.568  0.00  0.00    +0.000 C 
ATOM     25  O   UNL     1      -0.071  11.914  22.250  0.00  0.00    +0.000 OA
ATOM     26  H   UNL     1      -1.856  10.221  20.200  0.00  0.00    +0.000 HD
BRANCH  24  27
ATOM     27  C   UNL     1      -2.281  12.289  21.698  0.00  0.00    +0.000 A 
ATOM     28  C   UNL     1      -2.869  12.331  22.975  0.00  0.00    +0.000 A 
ATOM     29  C   UNL     1      -4.039  13.058  23.197  0.00  0.00    +0.000 A 
ATOM     30  C   UNL     1      -4.620  13.756  22.142  0.00  0.00    +0.000 A 
ATOM     31 CL   UNL     1      -6.058  14.658  22.411  0.00  0.00    +0.000 Cl
ATOM     32  C   UNL     1      -4.034  13.740  20.873  0.00  0.00    +0.000 A 
ATOM     33  C   UNL     1      -2.861  13.008  20.647  0.00  0.00    +0.000 A 
ENDBRANCH  24  27
ENDBRANCH   4  23
TORSDOF 5
ENDMDL
MODEL 5
REMARK VINA RESULT:      -8.6      2.059      2.391
REMARK  Name = 
REMARK  7 active torsions:
REMARK  status: ('A' for Active; 'I' for Inactive)
REMARK    1  A    between atoms: C_1  and  O_2
REMARK    2  A    between atoms: O_2  and  C_3
REMARK    3  A    between atoms: N_10  and  C_11
REMARK    4  A    between atoms: C_14  and  N_15
REMARK    5  A    between atoms: C_16  and  C_18
REMARK    6  A    between atoms: C_29  and  O_30
REMARK    7  A    between atoms: O_30  and  C_31
REMARK                            x       y       z     vdW  Elec       q    Type
REMARK                         _______ _______ _______ _____ _____    ______ ____
ROOT
ATOM      1  C   UNL     1       2.009   8.328  19.176  0.00  0.00    +0.000 A 
ATOM      2  C   UNL     1       1.538   9.061  18.088  0.00  0.00    +0.000 A 
ATOM      3  C   UNL     1       0.422   9.892  18.211  0.00  0.00    +0.000 A 
ATOM      4  C   UNL     1      -0.271   9.993  19.416  0.00  0.00    +0.000 A 
ATOM      5  C   UNL     1       0.234   9.313  20.528  0.00  0.00    +0.000 A 
ATOM      6  C   UNL     1       1.371   8.490  20.407  0.00  0.00    +0.000 A 
ENDROOT
BRANCH   1  14
ATOM      7  C   UNL     1       6.066   4.668  15.918  0.00  0.00    +0.000 A 
ATOM      8  C   UNL     1       4.920   3.909  16.219  0.00  0.00    +0.000 A 
ATOM      9  C   UNL     1       3.890   4.386  17.020  0.00  0.00    +0.000 A 
ATOM     10  N   UNL     1       2.784   3.650  17.164  0.00  0.00    +0.000 NA
ATOM     11  C   UNL     1       1.782   4.201  17.862  0.00  0.00    +0.000 A 
ATOM     12  N   UNL     1       1.788   5.408  18.434  0.00  0.00    +0.000 NA
ATOM     13  C   UNL     1       2.927   6.115  18.327  0.00  0.00    +0.000 A 
ATOM     14  N   UNL     1       3.015   7.370  18.957  0.00  0.00    +0.000 N 
ATOM     15  C   UNL     1       4.041   5.639  17.612  0.00  0.00    +0.000 A 
ATOM     16  C   UNL     1       5.244   6.356  17.416  0.00  0.00    +0.000 A 
ATOM     17  C   UNL     1       6.252   5.894  16.562  0.00  0.00    +0.000 A 
ATOM     18  H   UNL     1       3.744   7.367  19.661  0.00  0.00    +0.000 HD
BRANCH   7  20
ATOM     19  C   UNL     1       6.527   4.024  13.682  0.00  0.00    +0.000 C 
ATOM     20  O   UNL     1       6.999   4.222  15.018  0.00  0.00    +0.000 OA
ENDBRANCH   7  20
BRANCH  17  21
ATOM     21  O   UNL     1       7.283   6.786  16.475  0.00  0.00    +0.000 OA
ATOM     22  C   UNL     1       7.549   7.678  17.543  0.00  0.00    +0.000 C 
ENDBRANCH  17  21
ENDBRANCH   1  14
BRANCH   4  23
ATOM     23  N   UNL     1      -1.476  10.729  19.557  0.00  0.00    +0.000 N 
ATOM     24  C   UNL     1      -1.573  12.030  20.033  0.00  0.00    +0.000 C 
ATOM     25  O   UNL     1      -0.648  12.734  20.423  0.00  0.00    +0.000 OA
ATOM     26  H   UNL     1      -2.321  10.260  19.264  0.00  0.00    +0.000 HD
BRANCH  24  27
ATOM     27  C   UNL     1      -2.932  12.633  20.098  0.00  0.00    +0.000 A 
ATOM     28  C   UNL     1      -3.074  13.796  20.875  0.00  0.00    +0.000 A 
ATOM     29  C   UNL     1      -4.303  14.452  20.960  0.00  0.00    +0.000 A 
ATOM     30  C   UNL     1      -5.394  13.950  20.257  0.00  0.00    +0.000 A 
ATOM     31 CL   UNL     1      -6.910  14.755  20.354  0.00  0.00    +0.000 Cl
ATOM     32  C   UNL     1      -5.262  12.806  19.464  0.00  0.00    +0.000 A 
ATOM     33  C   UNL     1      -4.029  12.145  19.379  0.00  0.00    +0.000 A 
ENDBRANCH  24  27
ENDBRANCH   4  23
TORSDOF 5
ENDMDL
MODEL 6
REMARK VINA RESULT:      -8.5      1.499      1.499
REMARK  Name = 
REMARK  7 active torsions:
REMARK  status: ('A' for Active; 'I' for Inactive)
REMARK    1  A    between atoms: C_1  and  O_2
REMARK    2  A    between atoms: O_2  and  C_3
REMARK    3  A    between atoms: N_10  and  C_11
REMARK    4  A    between atoms: C_14  and  N_15
REMARK    5  A    between atoms: C_16  and  C_18
REMARK    6  A    between atoms: C_29  and  O_30
REMARK    7  A    between atoms: O_30  and  C_31
REMARK                            x       y       z     vdW  Elec       q    Type
REMARK                         _______ _______ _______ _____ _____    ______ ____
ROOT
ATOM      1  C   UNL     1       1.958   7.972  19.513  0.00  0.00    +0.000 A 
ATOM      2  C   UNL     1       1.362   7.873  20.770  0.00  0.00    +0.000 A 
ATOM      3  C   UNL     1       0.444   8.832  21.206  0.00  0.00    +0.000 A 
ATOM      4  C   UNL     1       0.116   9.929  20.412  0.00  0.00    +0.000 A 
ATOM      5  C   UNL     1       0.658  10.000  19.125  0.00  0.00    +0.000 A 
ATOM      6  C   UNL     1       1.569   9.022  18.680  0.00  0.00    +0.000 A 
ENDROOT
BRANCH   1  14
ATOM      7  C   UNL     1       6.061   4.754  15.869  0.00  0.00    +0.000 A 
ATOM      8  C   UNL     1       4.978   3.909  16.180  0.00  0.00    +0.000 A 
ATOM      9  C   UNL     1       3.963   4.277  17.054  0.00  0.00    +0.000 A 
ATOM     10  N   UNL     1       2.912   3.467  17.207  0.00  0.00    +0.000 NA
ATOM     11  C   UNL     1       1.915   3.916  17.981  0.00  0.00    +0.000 A 
ATOM     12  N   UNL     1       1.876   5.088  18.619  0.00  0.00    +0.000 NA
ATOM     13  C   UNL     1       2.963   5.870  18.499  0.00  0.00    +0.000 A 
ATOM     14  N   UNL     1       3.008   7.092  19.195  0.00  0.00    +0.000 N 
ATOM     15  C   UNL     1       4.068   5.504  17.707  0.00  0.00    +0.000 A 
ATOM     16  C   UNL     1       5.214   6.304  17.496  0.00  0.00    +0.000 A 
ATOM     17  C   UNL     1       6.204   5.953  16.572  0.00  0.00    +0.000 A 
ATOM     18  H   UNL     1       3.770   7.098  19.862  0.00  0.00    +0.000 HD
BRANCH   7  20
ATOM     19  C   UNL     1       6.423   4.017  13.644  0.00  0.00    +0.000 C 
ATOM     20  O   UNL     1       6.972   4.417  14.903  0.00  0.00    +0.000 OA
ENDBRANCH   7  20
BRANCH  17  21
ATOM     21  O   UNL     1       7.173   6.911  16.487  0.00  0.00    +0.000 OA
ATOM     22  C   UNL     1       7.655   7.547  17.659  0.00  0.00    +0.000 C 
ENDBRANCH  17  21
ENDBRANCH   1  14
BRANCH   4  23
ATOM     23  N   UNL     1      -0.718  10.986  20.859  0.00  0.00    +0.000 N 
ATOM     24  C   UNL     1      -1.711  11.601  20.108  0.00  0.00    +0.000 C 
ATOM     25  O   UNL     1      -2.008  11.346  18.947  0.00  0.00    +0.000 OA
ATOM     26  H   UNL     1      -0.576  11.292  21.812  0.00  0.00    +0.000 HD
BRANCH  24  27
ATOM     27  C   UNL     1      -2.486  12.691  20.762  0.00  0.00    +0.000 A 
ATOM     28  C   UNL     1      -3.808  12.881  20.324  0.00  0.00    +0.000 A 
ATOM     29  C   UNL     1      -4.620  13.853  20.908  0.00  0.00    +0.000 A 
ATOM     30  C   UNL     1      -4.114  14.633  21.944  0.00  0.00    +0.000 A 
ATOM     31 CL   UNL     1      -5.111  15.829  22.671  0.00  0.00    +0.000 Cl
ATOM     32  C   UNL     1      -2.808  14.440  22.404  0.00  0.00    +0.000 A 
ATOM     33  C   UNL     1      -1.990  13.465  21.817  0.00  0.00    +0.000 A 
ENDBRANCH  24  27
ENDBRANCH   4  23
TORSDOF 5
ENDMDL
MODEL 7
REMARK VINA RESULT:      -8.3      1.283      1.701
REMARK  Name = 
REMARK  7 active torsions:
REMARK  status: ('A' for Active; 'I' for Inactive)
REMARK    1  A    between atoms: C_1  and  O_2
REMARK    2  A    between atoms: O_2  and  C_3
REMARK    3  A    between atoms: N_10  and  C_11
REMARK    4  A    between atoms: C_14  and  N_15
REMARK    5  A    between atoms: C_16  and  C_18
REMARK    6  A    between atoms: C_29  and  O_30
REMARK    7  A    between atoms: O_30  and  C_31
REMARK                            x       y       z     vdW  Elec       q    Type
REMARK                         _______ _______ _______ _____ _____    ______ ____
ROOT
ATOM      1  C   UNL     1       1.921   7.949  20.325  0.00  0.00    +0.000 A 
ATOM      2  C   UNL     1       1.501   8.842  19.340  0.00  0.00    +0.000 A 
ATOM      3  C   UNL     1       0.479   9.760  19.592  0.00  0.00    +0.000 A 
ATOM      4  C   UNL     1      -0.170   9.795  20.825  0.00  0.00    +0.000 A 
ATOM      5  C   UNL     1       0.290   8.949  21.838  0.00  0.00    +0.000 A 
ATOM      6  C   UNL     1       1.334   8.036  21.588  0.00  0.00    +0.000 A 
ENDROOT
BRANCH   1  14
ATOM      7  C   UNL     1       5.228   4.056  16.533  0.00  0.00    +0.000 A 
ATOM      8  C   UNL     1       4.083   3.375  16.986  0.00  0.00    +0.000 A 
ATOM      9  C   UNL     1       3.208   3.913  17.922  0.00  0.00    +0.000 A 
ATOM     10  N   UNL     1       2.083   3.254  18.213  0.00  0.00    +0.000 NA
ATOM     11  C   UNL     1       1.227   3.864  19.044  0.00  0.00    +0.000 A 
ATOM     12  N   UNL     1       1.396   5.060  19.612  0.00  0.00    +0.000 NA
ATOM     13  C   UNL     1       2.556   5.688  19.352  0.00  0.00    +0.000 A 
ATOM     14  N   UNL     1       2.818   6.926  19.968  0.00  0.00    +0.000 N 
ATOM     15  C   UNL     1       3.527   5.145  18.490  0.00  0.00    +0.000 A 
ATOM     16  C   UNL     1       4.739   5.779  18.133  0.00  0.00    +0.000 A 
ATOM     17  C   UNL     1       5.586   5.259  17.148  0.00  0.00    +0.000 A 
ATOM     18  H   UNL     1       3.634   6.864  20.566  0.00  0.00    +0.000 HD
BRANCH   7  20
ATOM     19  C   UNL     1       5.825   4.192  14.241  0.00  0.00    +0.000 C 
ATOM     20  O   UNL     1       5.996   3.559  15.512  0.00  0.00    +0.000 OA
ENDBRANCH   7  20
BRANCH  17  21
ATOM     21  O   UNL     1       6.655   6.078  16.923  0.00  0.00    +0.000 OA
ATOM     22  C   UNL     1       7.526   6.426  17.986  0.00  0.00    +0.000 C 
ENDBRANCH  17  21
ENDBRANCH   1  14
BRANCH   4  23
ATOM     23  N   UNL     1      -1.289  10.627  21.087  0.00  0.00    +0.000 N 
ATOM     24  C   UNL     1      -1.352  11.604  22.071  0.00  0.00    +0.000 C 
ATOM     25  O   UNL     1      -0.470  11.887  22.874  0.00  0.00    +0.000 OA
ATOM     26  H   UNL     1      -2.091  10.496  20.487  0.00  0.00    +0.000 HD
BRANCH  24  27
ATOM     27  C   UNL     1      -2.618  12.380  22.183  0.00  0.00    +0.000 A 
ATOM     28  C   UNL     1      -3.190  12.839  20.984  0.00  0.00    +0.000 A 
ATOM     29  C   UNL     1      -4.396  13.539  20.992  0.00  0.00    +0.000 A 
ATOM     30  C   UNL     1      -5.041  13.774  22.202  0.00  0.00    +0.000 A 
ATOM     31 CL   UNL     1      -6.530  14.633  22.218  0.00  0.00    +0.000 Cl
ATOM     32  C   UNL     1      -4.494  13.306  23.400  0.00  0.00    +0.000 A 
ATOM     33  C   UNL     1      -3.282  12.603  23.395  0.00  0.00    +0.000 A 
ENDBRANCH  24  27
ENDBRANCH   4  23
TORSDOF 5
ENDMDL
MODEL 8
REMARK VINA RESULT:      -8.3      4.129     11.867
REMARK  Name = 
REMARK  7 active torsions:
REMARK  status: ('A' for Active; 'I' for Inactive)
REMARK    1  A    between atoms: C_1  and  O_2
REMARK    2  A    between atoms: O_2  and  C_3
REMARK    3  A    between atoms: N_10  and  C_11
REMARK    4  A    between atoms: C_14  and  N_15
REMARK    5  A    between atoms: C_16  and  C_18
REMARK    6  A    between atoms: C_29  and  O_30
REMARK    7  A    between atoms: O_30  and  C_31
REMARK                            x       y       z     vdW  Elec       q    Type
REMARK                         _______ _______ _______ _____ _____    ______ ____
ROOT
ATOM      1  C   UNL     1      -0.297  10.190  21.978  0.00  0.00    +0.000 A 
ATOM      2  C   UNL     1      -0.479  10.341  20.604  0.00  0.00    +0.000 A 
ATOM      3  C   UNL     1       0.285   9.607  19.693  0.00  0.00    +0.000 A 
ATOM      4  C   UNL     1       1.270   8.723  20.127  0.00  0.00    +0.000 A 
ATOM      5  C   UNL     1       1.413   8.516  21.503  0.00  0.00    +0.000 A 
ATOM      6  C   UNL     1       0.629   9.243  22.420  0.00  0.00    +0.000 A 
ENDROOT
BRANCH   1  14
ATOM      7  C   UNL     1      -4.570  14.499  23.886  0.00  0.00    +0.000 A 
ATOM      8  C   UNL     1      -3.384  15.169  23.530  0.00  0.00    +0.000 A 
ATOM      9  C   UNL     1      -2.219  14.502  23.176  0.00  0.00    +0.000 A 
ATOM     10  N   UNL     1      -1.172  15.208  22.739  0.00  0.00    +0.000 NA
ATOM     11  C   UNL     1      -0.111  14.509  22.314  0.00  0.00    +0.000 A 
ATOM     12  N   UNL     1       0.002  13.179  22.294  0.00  0.00    +0.000 NA
ATOM     13  C   UNL     1      -1.037  12.483  22.786  0.00  0.00    +0.000 A 
ATOM     14  N   UNL     1      -0.954  11.079  22.846  0.00  0.00    +0.000 N 
ATOM     15  C   UNL     1      -2.206  13.110  23.255  0.00  0.00    +0.000 A 
ATOM     16  C   UNL     1      -3.353  12.434  23.731  0.00  0.00    +0.000 A 
ATOM     17  C   UNL     1      -4.541  13.109  24.032  0.00  0.00    +0.000 A 
ATOM     18  H   UNL     1      -1.008  10.758  23.805  0.00  0.00    +0.000 HD
BRANCH   7  20
ATOM     19  C   UNL     1      -5.789  16.508  23.561  0.00  0.00    +0.000 C 
ATOM     20  O   UNL     1      -5.738  15.183  24.099  0.00  0.00    +0.000 OA
ENDBRANCH   7  20
BRANCH  17  21
ATOM     21  O   UNL     1      -5.530  12.244  24.401  0.00  0.00    +0.000 OA
ATOM     22  C   UNL     1      -6.806  12.311  23.787  0.00  0.00    +0.000 C 
ENDBRANCH  17  21
ENDBRANCH   1  14
BRANCH   4  23
ATOM     23  N   UNL     1       2.148   8.046  19.242  0.00  0.00    +0.000 N 
ATOM     24  C   UNL     1       2.362   6.675  19.211  0.00  0.00    +0.000 C 
ATOM     25  O   UNL     1       1.848   5.842  19.949  0.00  0.00    +0.000 OA
ATOM     26  H   UNL     1       2.637   8.624  18.573  0.00  0.00    +0.000 HD
BRANCH  24  27
ATOM     27  C   UNL     1       3.321   6.155  18.198  0.00  0.00    +0.000 A 
ATOM     28  C   UNL     1       3.337   4.765  17.994  0.00  0.00    +0.000 A 
ATOM     29  C   UNL     1       4.175   4.194  17.036  0.00  0.00    +0.000 A 
ATOM     30  C   UNL     1       4.995   5.017  16.270  0.00  0.00    +0.000 A 
ATOM     31 CL   UNL     1       6.028   4.321  15.084  0.00  0.00    +0.000 Cl
ATOM     32  C   UNL     1       4.974   6.404  16.448  0.00  0.00    +0.000 A 
ATOM     33  C   UNL     1       4.134   6.978  17.411  0.00  0.00    +0.000 A 
ENDBRANCH  24  27
ENDBRANCH   4  23
TORSDOF 5
ENDMDL
MODEL 9
REMARK VINA RESULT:      -8.1      4.212     11.999
REMARK  Name = 
REMARK  7 active torsions:
REMARK  status: ('A' for Active; 'I' for Inactive)
REMARK    1  A    between atoms: C_1  and  O_2
REMARK    2  A    between atoms: O_2  and  C_3
REMARK    3  A    between atoms: N_10  and  C_11
REMARK    4  A    between atoms: C_14  and  N_15
REMARK    5  A    between atoms: C_16  and  C_18
REMARK    6  A    between atoms: C_29  and  O_30
REMARK    7  A    between atoms: O_30  and  C_31
REMARK                            x       y       z     vdW  Elec       q    Type
REMARK                         _______ _______ _______ _____ _____    ______ ____
ROOT
ATOM      1  C   UNL     1      -0.562  10.705  22.133  0.00  0.00    +0.000 A 
ATOM      2  C   UNL     1       0.251   9.729  22.705  0.00  0.00    +0.000 A 
ATOM      3  C   UNL     1       1.079   8.928  21.913  0.00  0.00    +0.000 A 
ATOM      4  C   UNL     1       1.096   9.061  20.526  0.00  0.00    +0.000 A 
ATOM      5  C   UNL     1       0.333  10.083  19.951  0.00  0.00    +0.000 A 
ATOM      6  C   UNL     1      -0.486  10.901  20.753  0.00  0.00    +0.000 A 
ENDROOT
BRANCH   1  14
ATOM      7  C   UNL     1      -5.448  14.495  23.627  0.00  0.00    +0.000 A 
ATOM      8  C   UNL     1      -4.250  15.196  23.856  0.00  0.00    +0.000 A 
ATOM      9  C   UNL     1      -2.997  14.608  23.732  0.00  0.00    +0.000 A 
ATOM     10  N   UNL     1      -1.907  15.370  23.853  0.00  0.00    +0.000 NA
ATOM     11  C   UNL     1      -0.729  14.774  23.623  0.00  0.00    +0.000 A 
ATOM     12  N   UNL     1      -0.542  13.494  23.295  0.00  0.00    +0.000 NA
ATOM     13  C   UNL     1      -1.645  12.727  23.229  0.00  0.00    +0.000 A 
ATOM     14  N   UNL     1      -1.509  11.355  22.945  0.00  0.00    +0.000 N 
ATOM     15  C   UNL     1      -2.935  13.246  23.446  0.00  0.00    +0.000 A 
ATOM     16  C   UNL     1      -4.135  12.505  23.336  0.00  0.00    +0.000 A 
ATOM     17  C   UNL     1      -5.392  13.116  23.406  0.00  0.00    +0.000 A 
ATOM     18  H   UNL     1      -1.846  10.793  23.718  0.00  0.00    +0.000 HD
BRANCH   7  20
ATOM     19  C   UNL     1      -6.606  16.565  23.587  0.00  0.00    +0.000 C 
ATOM     20  O   UNL     1      -6.660  15.136  23.625  0.00  0.00    +0.000 OA
ENDBRANCH   7  20
BRANCH  17  21
ATOM     21  O   UNL     1      -6.398  12.216  23.201  0.00  0.00    +0.000 OA
ATOM     22  C   UNL     1      -7.127  12.223  21.986  0.00  0.00    +0.000 C 
ENDBRANCH  17  21
ENDBRANCH   1  14
BRANCH   4  23
ATOM     23  N   UNL     1       1.828   8.195  19.674  0.00  0.00    +0.000 N 
ATOM     24  C   UNL     1       1.989   6.829  19.861  0.00  0.00    +0.000 C 
ATOM     25  O   UNL     1       1.548   6.165  20.792  0.00  0.00    +0.000 OA
ATOM     26  H   UNL     1       2.244   8.621  18.858  0.00  0.00    +0.000 HD
BRANCH  24  27
ATOM     27  C   UNL     1       2.789   6.090  18.847  0.00  0.00    +0.000 A 
ATOM     28  C   UNL     1       3.613   6.858  18.005  0.00  0.00    +0.000 A 
ATOM     29  C   UNL     1       4.427   6.246  17.053  0.00  0.00    +0.000 A 
ATOM     30  C   UNL     1       4.429   4.858  16.946  0.00  0.00    +0.000 A 
ATOM     31 CL   UNL     1       5.434   4.097  15.777  0.00  0.00    +0.000 Cl
ATOM     32  C   UNL     1       3.631   4.081  17.791  0.00  0.00    +0.000 A 
ATOM     33  C   UNL     1       2.811   4.694  18.747  0.00  0.00    +0.000 A 
ENDBRANCH  24  27
ENDBRANCH   4  23
TORSDOF 5
ENDMDL
