MODEL 1
REMARK VINA RESULT:      -7.0      0.000      0.000
REMARK  Name = 
REMARK  10 active torsions:
REMARK  status: ('A' for Active; 'I' for Inactive)
REMARK    1  A    between atoms: C_12  and  O_13
REMARK    2  A    between atoms: O_13  and  C_14
REMARK    3  A    between atoms: C_14  and  C_15
REMARK    4  A    between atoms: C_15  and  O_16
REMARK    5  A    between atoms: C_15  and  C_17
REMARK    6  A    between atoms: C_17  and  S_18
REMARK    7  A    between atoms: S_18  and  C_19
REMARK    8  A    between atoms: C_19  and  C_20
REMARK    9  A    between atoms: C_20  and  O_21
REMARK   10  A    between atoms: C_23  and  O_24
REMARK                            x       y       z     vdW  Elec       q    Type
REMARK                         _______ _______ _______ _____ _____    ______ ____
ROOT
ATOM      1  O   UNL     1       2.467   9.045  17.031  0.00  0.00    +0.000 OA
ATOM      2  C   UNL     1       2.388   8.417  18.079  0.00  0.00    +0.000 A 
ATOM      3  C   UNL     1       1.474   8.883  19.130  0.00  0.00    +0.000 A 
ATOM      4  C   UNL     1       0.701  10.034  18.938  0.00  0.00    +0.000 A 
ATOM      5  C   UNL     1      -0.163  10.461  19.945  0.00  0.00    +0.000 A 
ATOM      6  C   UNL     1      -0.257   9.742  21.137  0.00  0.00    +0.000 A 
ATOM      7  C   UNL     1       0.517   8.592  21.323  0.00  0.00    +0.000 A 
ATOM      8  C   UNL     1       1.384   8.162  20.315  0.00  0.00    +0.000 A 
ATOM      9  O   UNL     1       2.104   7.024  20.569  0.00  0.00    +0.000 OA
ATOM     10  C   UNL     1       2.958   6.564  19.594  0.00  0.00    +0.000 A 
ATOM     11  C   UNL     1       3.646   5.387  19.915  0.00  0.00    +0.000 A 
ATOM     12  C   UNL     1       4.538   4.824  19.006  0.00  0.00    +0.000 A 
ATOM     13  C   UNL     1       4.747   5.448  17.775  0.00  0.00    +0.000 A 
ATOM     14  C   UNL     1       4.061   6.624  17.456  0.00  0.00    +0.000 A 
ATOM     15  C   UNL     1       3.160   7.184  18.358  0.00  0.00    +0.000 A 
ENDROOT
BRANCH  14  16
ATOM     16  O   UNL     1       4.292   7.201  16.238  0.00  0.00    +0.000 OA
ATOM     17  H   UNL     1       3.760   6.774  15.551  0.00  0.00    +0.000 HD
ENDBRANCH  14  16
BRANCH  12  18
ATOM     18  O   UNL     1       5.260   3.679  19.192  0.00  0.00    +0.000 OA
BRANCH  18  19
ATOM     19  C   UNL     1       4.559   2.555  19.740  0.00  0.00    +0.000 C 
BRANCH  19  20
ATOM     20  C   UNL     1       3.686   1.938  18.634  0.00  0.00    +0.000 C 
BRANCH  20  21
ATOM     21  O   UNL     1       4.288   0.721  18.168  0.00  0.00    +0.000 OA
ATOM     22  H   UNL     1       5.025   0.518  18.773  0.00  0.00    +0.000 HD
ENDBRANCH  20  21
BRANCH  20  23
ATOM     23  C   UNL     1       2.247   1.645  19.091  0.00  0.00    +0.000 C 
BRANCH  23  24
ATOM     24  S   UNL     1       1.157   3.039  18.646  0.00  0.00    +0.000 S 
BRANCH  24  25
ATOM     25  C   UNL     1       0.769   3.693  20.300  0.00  0.00    +0.000 C 
BRANCH  25  26
ATOM     26  C   UNL     1       1.272   2.690  21.340  0.00  0.00    +0.000 C 
BRANCH  26  27
ATOM     27  O   UNL     1       2.182   3.296  22.255  0.00  0.00    +0.000 OA
ATOM     28  H   UNL     1       1.632   3.668  22.971  0.00  0.00    +0.000 HD
ENDBRANCH  26  27
ENDBRANCH  25  26
ENDBRANCH  24  25
ENDBRANCH  23  24
ENDBRANCH  20  23
ENDBRANCH  19  20
ENDBRANCH  18  19
ENDBRANCH  12  18
TORSDOF 10
ENDMDL
MODEL 2
REMARK VINA RESULT:      -6.9      2.207      3.913
REMARK  Name = 
REMARK  10 active torsions:
REMARK  status: ('A' for Active; 'I' for Inactive)
REMARK    1  A    between atoms: C_12  and  O_13
REMARK    2  A    between atoms: O_13  and  C_14
REMARK    3  A    between atoms: C_14  and  C_15
REMARK    4  A    between atoms: C_15  and  O_16
REMARK    5  A    between atoms: C_15  and  C_17
REMARK    6  A    between atoms: C_17  and  S_18
REMARK    7  A    between atoms: S_18  and  C_19
REMARK    8  A    between atoms: C_19  and  C_20
REMARK    9  A    between atoms: C_20  and  O_21
REMARK   10  A    between atoms: C_23  and  O_24
REMARK                            x       y       z     vdW  Elec       q    Type
REMARK                         _______ _______ _______ _____ _____    ______ ____
ROOT
ATOM      1  O   UNL     1       0.623  11.655  18.874  0.00  0.00    +0.000 OA
ATOM      2  C   UNL     1       0.721  10.669  19.594  0.00  0.00    +0.000 A 
ATOM      3  C   UNL     1       0.046  10.661  20.899  0.00  0.00    +0.000 A 
ATOM      4  C   UNL     1      -0.700  11.768  21.317  0.00  0.00    +0.000 A 
ATOM      5  C   UNL     1      -1.336  11.743  22.557  0.00  0.00    +0.000 A 
ATOM      6  C   UNL     1      -1.229  10.618  23.375  0.00  0.00    +0.000 A 
ATOM      7  C   UNL     1      -0.481   9.514  22.951  0.00  0.00    +0.000 A 
ATOM      8  C   UNL     1       0.156   9.538  21.708  0.00  0.00    +0.000 A 
ATOM      9  O   UNL     1       0.865   8.416  21.361  0.00  0.00    +0.000 OA
ATOM     10  C   UNL     1       1.496   8.398  20.139  0.00  0.00    +0.000 A 
ATOM     11  C   UNL     1       2.183   7.215  19.844  0.00  0.00    +0.000 A 
ATOM     12  C   UNL     1       2.859   7.078  18.634  0.00  0.00    +0.000 A 
ATOM     13  C   UNL     1       2.853   8.134  17.723  0.00  0.00    +0.000 A 
ATOM     14  C   UNL     1       2.168   9.317  18.019  0.00  0.00    +0.000 A 
ATOM     15  C   UNL     1       1.481   9.453  19.223  0.00  0.00    +0.000 A 
ENDROOT
BRANCH  14  16
ATOM     16  O   UNL     1       2.183  10.326  17.097  0.00  0.00    +0.000 OA
ATOM     17  H   UNL     1       2.998  10.843  17.169  0.00  0.00    +0.000 HD
ENDBRANCH  14  16
BRANCH  12  18
ATOM     18  O   UNL     1       3.556   5.977  18.222  0.00  0.00    +0.000 OA
BRANCH  18  19
ATOM     19  C   UNL     1       3.838   4.982  19.215  0.00  0.00    +0.000 C 
BRANCH  19  20
ATOM     20  C   UNL     1       4.884   4.008  18.646  0.00  0.00    +0.000 C 
BRANCH  20  21
ATOM     21  O   UNL     1       5.058   2.906  19.549  0.00  0.00    +0.000 OA
ATOM     22  H   UNL     1       5.963   2.567  19.414  0.00  0.00    +0.000 HD
ENDBRANCH  20  21
BRANCH  20  23
ATOM     23  C   UNL     1       4.513   3.466  17.256  0.00  0.00    +0.000 C 
BRANCH  23  24
ATOM     24  S   UNL     1       5.469   4.342  15.971  0.00  0.00    +0.000 S 
BRANCH  24  25
ATOM     25  C   UNL     1       7.019   4.656  16.873  0.00  0.00    +0.000 C 
BRANCH  25  26
ATOM     26  C   UNL     1       7.148   6.165  17.089  0.00  0.00    +0.000 C 
BRANCH  26  27
ATOM     27  O   UNL     1       6.034   6.870  16.547  0.00  0.00    +0.000 OA
ATOM     28  H   UNL     1       6.317   7.802  16.474  0.00  0.00    +0.000 HD
ENDBRANCH  26  27
ENDBRANCH  25  26
ENDBRANCH  24  25
ENDBRANCH  23  24
ENDBRANCH  20  23
ENDBRANCH  19  20
ENDBRANCH  18  19
ENDBRANCH  12  18
TORSDOF 10
ENDMDL
MODEL 3
REMARK VINA RESULT:      -6.9      1.813      2.924
REMARK  Name = 
REMARK  10 active torsions:
REMARK  status: ('A' for Active; 'I' for Inactive)
REMARK    1  A    between atoms: C_12  and  O_13
REMARK    2  A    between atoms: O_13  and  C_14
REMARK    3  A    between atoms: C_14  and  C_15
REMARK    4  A    between atoms: C_15  and  O_16
REMARK    5  A    between atoms: C_15  and  C_17
REMARK    6  A    between atoms: C_17  and  S_18
REMARK    7  A    between atoms: S_18  and  C_19
REMARK    8  A    between atoms: C_19  and  C_20
REMARK    9  A    between atoms: C_20  and  O_21
REMARK   10  A    between atoms: C_23  and  O_24
REMARK                            x       y       z     vdW  Elec       q    Type
REMARK                         _______ _______ _______ _____ _____    ______ ____
ROOT
ATOM      1  O   UNL     1       0.509  11.293  18.742  0.00  0.00    +0.000 OA
ATOM      2  C   UNL     1       0.559  10.439  19.618  0.00  0.00    +0.000 A 
ATOM      3  C   UNL     1      -0.136  10.674  20.891  0.00  0.00    +0.000 A 
ATOM      4  C   UNL     1      -0.847  11.860  21.102  0.00  0.00    +0.000 A 
ATOM      5  C   UNL     1      -1.503  12.066  22.315  0.00  0.00    +0.000 A 
ATOM      6  C   UNL     1      -1.451  11.091  23.311  0.00  0.00    +0.000 A 
ATOM      7  C   UNL     1      -0.739   9.905  23.094  0.00  0.00    +0.000 A 
ATOM      8  C   UNL     1      -0.081   9.699  21.879  0.00  0.00    +0.000 A 
ATOM      9  O   UNL     1       0.590   8.511  21.740  0.00  0.00    +0.000 OA
ATOM     10  C   UNL     1       1.239   8.266  20.551  0.00  0.00    +0.000 A 
ATOM     11  C   UNL     1       1.885   7.027  20.474  0.00  0.00    +0.000 A 
ATOM     12  C   UNL     1       2.575   6.666  19.318  0.00  0.00    +0.000 A 
ATOM     13  C   UNL     1       2.623   7.555  18.243  0.00  0.00    +0.000 A 
ATOM     14  C   UNL     1       1.978   8.793  18.323  0.00  0.00    +0.000 A 
ATOM     15  C   UNL     1       1.278   9.153  19.472  0.00  0.00    +0.000 A 
ENDROOT
BRANCH  14  16
ATOM     16  O   UNL     1       2.046   9.632  17.246  0.00  0.00    +0.000 OA
ATOM     17  H   UNL     1       1.984   9.133  16.419  0.00  0.00    +0.000 HD
ENDBRANCH  14  16
BRANCH  12  18
ATOM     18  O   UNL     1       3.236   5.488  19.112  0.00  0.00    +0.000 OA
BRANCH  18  19
ATOM     19  C   UNL     1       4.652   5.570  18.904  0.00  0.00    +0.000 C 
BRANCH  19  20
ATOM     20  C   UNL     1       5.122   4.268  18.231  0.00  0.00    +0.000 C 
BRANCH  20  21
ATOM     21  O   UNL     1       5.595   3.354  19.231  0.00  0.00    +0.000 OA
ATOM     22  H   UNL     1       4.828   3.112  19.783  0.00  0.00    +0.000 HD
ENDBRANCH  20  21
BRANCH  20  23
ATOM     23  C   UNL     1       4.021   3.584  17.404  0.00  0.00    +0.000 C 
BRANCH  23  24
ATOM     24  S   UNL     1       3.598   1.970  18.143  0.00  0.00    +0.000 S 
BRANCH  24  25
ATOM     25  C   UNL     1       2.365   2.488  19.378  0.00  0.00    +0.000 C 
BRANCH  25  26
ATOM     26  C   UNL     1       0.992   2.505  18.703  0.00  0.00    +0.000 C 
BRANCH  26  27
ATOM     27  O   UNL     1      -0.056   2.693  19.651  0.00  0.00    +0.000 OA
ATOM     28  H   UNL     1      -0.316   3.632  19.579  0.00  0.00    +0.000 HD
ENDBRANCH  26  27
ENDBRANCH  25  26
ENDBRANCH  24  25
ENDBRANCH  23  24
ENDBRANCH  20  23
ENDBRANCH  19  20
ENDBRANCH  18  19
ENDBRANCH  12  18
TORSDOF 10
ENDMDL
MODEL 4
REMARK VINA RESULT:      -6.8      1.554      2.600
REMARK  Name = 
REMARK  10 active torsions:
REMARK  status: ('A' for Active; 'I' for Inactive)
REMARK    1  A    between atoms: C_12  and  O_13
REMARK    2  A    between atoms: O_13  and  C_14
REMARK    3  A    between atoms: C_14  and  C_15
REMARK    4  A    between atoms: C_15  and  O_16
REMARK    5  A    between atoms: C_15  and  C_17
REMARK    6  A    between atoms: C_17  and  S_18
REMARK    7  A    between atoms: S_18  and  C_19
REMARK    8  A    between atoms: C_19  and  C_20
REMARK    9  A    between atoms: C_20  and  O_21
REMARK   10  A    between atoms: C_23  and  O_24
REMARK                            x       y       z     vdW  Elec       q    Type
REMARK                         _______ _______ _______ _____ _____    ______ ____
ROOT
ATOM      1  O   UNL     1       0.511  11.240  18.675  0.00  0.00    +0.000 OA
ATOM      2  C   UNL     1       0.633  10.370  19.528  0.00  0.00    +0.000 A 
ATOM      3  C   UNL     1      -0.034  10.536  20.826  0.00  0.00    +0.000 A 
ATOM      4  C   UNL     1      -0.800  11.676  21.088  0.00  0.00    +0.000 A 
ATOM      5  C   UNL     1      -1.429  11.817  22.324  0.00  0.00    +0.000 A 
ATOM      6  C   UNL     1      -1.294  10.823  23.294  0.00  0.00    +0.000 A 
ATOM      7  C   UNL     1      -0.527   9.683  23.026  0.00  0.00    +0.000 A 
ATOM      8  C   UNL     1       0.103   9.542  21.787  0.00  0.00    +0.000 A 
ATOM      9  O   UNL     1       0.832   8.395  21.597  0.00  0.00    +0.000 OA
ATOM     10  C   UNL     1       1.456   8.215  20.385  0.00  0.00    +0.000 A 
ATOM     11  C   UNL     1       2.165   7.015  20.257  0.00  0.00    +0.000 A 
ATOM     12  C   UNL     1       2.837   6.719  19.073  0.00  0.00    +0.000 A 
ATOM     13  C   UNL     1       2.805   7.634  18.020  0.00  0.00    +0.000 A 
ATOM     14  C   UNL     1       2.098   8.834  18.150  0.00  0.00    +0.000 A 
ATOM     15  C   UNL     1       1.415   9.128  19.328  0.00  0.00    +0.000 A 
ENDROOT
BRANCH  14  16
ATOM     16  O   UNL     1       2.088   9.701  17.093  0.00  0.00    +0.000 OA
ATOM     17  H   UNL     1       2.869  10.272  17.111  0.00  0.00    +0.000 HD
ENDBRANCH  14  16
BRANCH  12  18
ATOM     18  O   UNL     1       3.553   5.584  18.817  0.00  0.00    +0.000 OA
BRANCH  18  19
ATOM     19  C   UNL     1       3.751   5.241  17.438  0.00  0.00    +0.000 C 
BRANCH  19  20
ATOM     20  C   UNL     1       4.247   3.787  17.365  0.00  0.00    +0.000 C 
BRANCH  20  21
ATOM     21  O   UNL     1       5.682   3.766  17.393  0.00  0.00    +0.000 OA
ATOM     22  H   UNL     1       5.987   3.951  16.485  0.00  0.00    +0.000 HD
ENDBRANCH  20  21
BRANCH  20  23
ATOM     23  C   UNL     1       3.708   2.905  18.503  0.00  0.00    +0.000 C 
BRANCH  23  24
ATOM     24  S   UNL     1       1.897   2.738  18.357  0.00  0.00    +0.000 S 
BRANCH  24  25
ATOM     25  C   UNL     1       1.475   2.247  20.059  0.00  0.00    +0.000 C 
BRANCH  25  26
ATOM     26  C   UNL     1       1.393   3.512  20.915  0.00  0.00    +0.000 C 
BRANCH  26  27
ATOM     27  O   UNL     1       2.155   3.384  22.113  0.00  0.00    +0.000 OA
ATOM     28  H   UNL     1       2.140   4.265  22.534  0.00  0.00    +0.000 HD
ENDBRANCH  26  27
ENDBRANCH  25  26
ENDBRANCH  24  25
ENDBRANCH  23  24
ENDBRANCH  20  23
ENDBRANCH  19  20
ENDBRANCH  18  19
ENDBRANCH  12  18
TORSDOF 10
ENDMDL
MODEL 5
REMARK VINA RESULT:      -6.8      1.775      3.295
REMARK  Name = 
REMARK  10 active torsions:
REMARK  status: ('A' for Active; 'I' for Inactive)
REMARK    1  A    between atoms: C_12  and  O_13
REMARK    2  A    between atoms: O_13  and  C_14
REMARK    3  A    between atoms: C_14  and  C_15
REMARK    4  A    between atoms: C_15  and  O_16
REMARK    5  A    between atoms: C_15  and  C_17
REMARK    6  A    between atoms: C_17  and  S_18
REMARK    7  A    between atoms: S_18  and  C_19
REMARK    8  A    between atoms: C_19  and  C_20
REMARK    9  A    between atoms: C_20  and  O_21
REMARK   10  A    between atoms: C_23  and  O_24
REMARK                            x       y       z     vdW  Elec       q    Type
REMARK                         _______ _______ _______ _____ _____    ______ ____
ROOT
ATOM      1  O   UNL     1       0.708  11.074  18.570  0.00  0.00    +0.000 OA
ATOM      2  C   UNL     1       0.667  10.330  19.542  0.00  0.00    +0.000 A 
ATOM      3  C   UNL     1      -0.057  10.759  20.746  0.00  0.00    +0.000 A 
ATOM      4  C   UNL     1      -0.693  12.004  20.785  0.00  0.00    +0.000 A 
ATOM      5  C   UNL     1      -1.377  12.395  21.934  0.00  0.00    +0.000 A 
ATOM      6  C   UNL     1      -1.428  11.545  23.039  0.00  0.00    +0.000 A 
ATOM      7  C   UNL     1      -0.792  10.300  22.995  0.00  0.00    +0.000 A 
ATOM      8  C   UNL     1      -0.105   9.908  21.843  0.00  0.00    +0.000 A 
ATOM      9  O   UNL     1       0.488   8.671  21.874  0.00  0.00    +0.000 OA
ATOM     10  C   UNL     1       1.162   8.246  20.753  0.00  0.00    +0.000 A 
ATOM     11  C   UNL     1       1.725   6.968  20.850  0.00  0.00    +0.000 A 
ATOM     12  C   UNL     1       2.431   6.428  19.777  0.00  0.00    +0.000 A 
ATOM     13  C   UNL     1       2.580   7.176  18.609  0.00  0.00    +0.000 A 
ATOM     14  C   UNL     1       2.018   8.454  18.514  0.00  0.00    +0.000 A 
ATOM     15  C   UNL     1       1.302   8.992  19.580  0.00  0.00    +0.000 A 
ENDROOT
BRANCH  14  16
ATOM     16  O   UNL     1       2.183   9.152  17.350  0.00  0.00    +0.000 OA
ATOM     17  H   UNL     1       2.400   8.553  16.620  0.00  0.00    +0.000 HD
ENDBRANCH  14  16
BRANCH  12  18
ATOM     18  O   UNL     1       3.018   5.194  19.740  0.00  0.00    +0.000 OA
BRANCH  18  19
ATOM     19  C   UNL     1       2.558   4.231  20.698  0.00  0.00    +0.000 C 
BRANCH  19  20
ATOM     20  C   UNL     1       1.765   3.144  19.953  0.00  0.00    +0.000 C 
BRANCH  20  21
ATOM     21  O   UNL     1       0.370   3.262  20.272  0.00  0.00    +0.000 OA
ATOM     22  H   UNL     1       0.125   2.463  20.776  0.00  0.00    +0.000 HD
ENDBRANCH  20  21
BRANCH  20  23
ATOM     23  C   UNL     1       1.939   3.207  18.426  0.00  0.00    +0.000 C 
BRANCH  23  24
ATOM     24  S   UNL     1       3.515   2.423  17.946  0.00  0.00    +0.000 S 
BRANCH  24  25
ATOM     25  C   UNL     1       4.227   3.731  16.899  0.00  0.00    +0.000 C 
BRANCH  25  26
ATOM     26  C   UNL     1       5.480   4.269  17.592  0.00  0.00    +0.000 C 
BRANCH  26  27
ATOM     27  O   UNL     1       5.652   3.693  18.885  0.00  0.00    +0.000 OA
ATOM     28  H   UNL     1       6.126   2.851  18.742  0.00  0.00    +0.000 HD
ENDBRANCH  26  27
ENDBRANCH  25  26
ENDBRANCH  24  25
ENDBRANCH  23  24
ENDBRANCH  20  23
ENDBRANCH  19  20
ENDBRANCH  18  19
ENDBRANCH  12  18
TORSDOF 10
ENDMDL
MODEL 6
REMARK VINA RESULT:      -6.8      2.605      4.386
REMARK  Name = 
REMARK  10 active torsions:
REMARK  status: ('A' for Active; 'I' for Inactive)
REMARK    1  A    between atoms: C_12  and  O_13
REMARK    2  A    between atoms: O_13  and  C_14
REMARK    3  A    between atoms: C_14  and  C_15
REMARK    4  A    between atoms: C_15  and  O_16
REMARK    5  A    between atoms: C_15  and  C_17
REMARK    6  A    between atoms: C_17  and  S_18
REMARK    7  A    between atoms: S_18  and  C_19
REMARK    8  A    between atoms: C_19  and  C_20
REMARK    9  A    between atoms: C_20  and  O_21
REMARK   10  A    between atoms: C_23  and  O_24
REMARK                            x       y       z     vdW  Elec       q    Type
REMARK                         _______ _______ _______ _____ _____    ______ ____
ROOT
ATOM      1  O   UNL     1       0.309  11.437  18.607  0.00  0.00    +0.000 OA
ATOM      2  C   UNL     1       0.389  10.653  19.544  0.00  0.00    +0.000 A 
ATOM      3  C   UNL     1      -0.312  10.957  20.799  0.00  0.00    +0.000 A 
ATOM      4  C   UNL     1      -1.062  12.131  20.924  0.00  0.00    +0.000 A 
ATOM      5  C   UNL     1      -1.723  12.404  22.121  0.00  0.00    +0.000 A 
ATOM      6  C   UNL     1      -1.637  11.508  23.187  0.00  0.00    +0.000 A 
ATOM      7  C   UNL     1      -0.886  10.334  23.055  0.00  0.00    +0.000 A 
ATOM      8  C   UNL     1      -0.223  10.060  21.856  0.00  0.00    +0.000 A 
ATOM      9  O   UNL     1       0.487   8.888  21.802  0.00  0.00    +0.000 OA
ATOM     10  C   UNL     1       1.142   8.579  20.633  0.00  0.00    +0.000 A 
ATOM     11  C   UNL     1       1.830   7.360  20.645  0.00  0.00    +0.000 A 
ATOM     12  C   UNL     1       2.530   6.937  19.516  0.00  0.00    +0.000 A 
ATOM     13  C   UNL     1       2.547   7.744  18.379  0.00  0.00    +0.000 A 
ATOM     14  C   UNL     1       1.861   8.963  18.369  0.00  0.00    +0.000 A 
ATOM     15  C   UNL     1       1.150   9.384  19.491  0.00  0.00    +0.000 A 
ENDROOT
BRANCH  14  16
ATOM     16  O   UNL     1       1.899   9.722  17.232  0.00  0.00    +0.000 OA
ATOM     17  H   UNL     1       1.678   9.187  16.456  0.00  0.00    +0.000 HD
ENDBRANCH  14  16
BRANCH  12  18
ATOM     18  O   UNL     1       3.229   5.770  19.395  0.00  0.00    +0.000 OA
BRANCH  18  19
ATOM     19  C   UNL     1       4.392   5.798  18.556  0.00  0.00    +0.000 C 
BRANCH  19  20
ATOM     20  C   UNL     1       5.494   4.956  19.223  0.00  0.00    +0.000 C 
BRANCH  20  21
ATOM     21  O   UNL     1       5.426   3.606  18.741  0.00  0.00    +0.000 OA
ATOM     22  H   UNL     1       5.822   3.601  17.850  0.00  0.00    +0.000 HD
ENDBRANCH  20  21
BRANCH  20  23
ATOM     23  C   UNL     1       6.908   5.507  18.979  0.00  0.00    +0.000 C 
BRANCH  23  24
ATOM     24  S   UNL     1       6.903   6.614  17.527  0.00  0.00    +0.000 S 
BRANCH  24  25
ATOM     25  C   UNL     1       7.152   5.403  16.191  0.00  0.00    +0.000 C 
BRANCH  25  26
ATOM     26  C   UNL     1       5.859   5.317  15.378  0.00  0.00    +0.000 C 
BRANCH  26  27
ATOM     27  O   UNL     1       5.264   6.600  15.200  0.00  0.00    +0.000 OA
ATOM     28  H   UNL     1       5.369   7.063  16.053  0.00  0.00    +0.000 HD
ENDBRANCH  26  27
ENDBRANCH  25  26
ENDBRANCH  24  25
ENDBRANCH  23  24
ENDBRANCH  20  23
ENDBRANCH  19  20
ENDBRANCH  18  19
ENDBRANCH  12  18
TORSDOF 10
ENDMDL
MODEL 7
REMARK VINA RESULT:      -6.7      2.563      4.334
REMARK  Name = 
REMARK  10 active torsions:
REMARK  status: ('A' for Active; 'I' for Inactive)
REMARK    1  A    between atoms: C_12  and  O_13
REMARK    2  A    between atoms: O_13  and  C_14
REMARK    3  A    between atoms: C_14  and  C_15
REMARK    4  A    between atoms: C_15  and  O_16
REMARK    5  A    between atoms: C_15  and  C_17
REMARK    6  A    between atoms: C_17  and  S_18
REMARK    7  A    between atoms: S_18  and  C_19
REMARK    8  A    between atoms: C_19  and  C_20
REMARK    9  A    between atoms: C_20  and  O_21
REMARK   10  A    between atoms: C_23  and  O_24
REMARK                            x       y       z     vdW  Elec       q    Type
REMARK                         _______ _______ _______ _____ _____    ______ ____
ROOT
ATOM      1  O   UNL     1       0.815  11.012  18.709  0.00  0.00    +0.000 OA
ATOM      2  C   UNL     1       0.778  10.202  19.627  0.00  0.00    +0.000 A 
ATOM      3  C   UNL     1       0.048  10.540  20.855  0.00  0.00    +0.000 A 
ATOM      4  C   UNL     1      -0.598  11.774  20.979  0.00  0.00    +0.000 A 
ATOM      5  C   UNL     1      -1.289  12.078  22.151  0.00  0.00    +0.000 A 
ATOM      6  C   UNL     1      -1.336  11.153  23.194  0.00  0.00    +0.000 A 
ATOM      7  C   UNL     1      -0.689   9.919  23.065  0.00  0.00    +0.000 A 
ATOM      8  C   UNL     1       0.004   9.614  21.890  0.00  0.00    +0.000 A 
ATOM      9  O   UNL     1       0.607   8.383  21.836  0.00  0.00    +0.000 OA
ATOM     10  C   UNL     1       1.288   8.043  20.690  0.00  0.00    +0.000 A 
ATOM     11  C   UNL     1       1.861   6.766  20.700  0.00  0.00    +0.000 A 
ATOM     12  C   UNL     1       2.574   6.307  19.594  0.00  0.00    +0.000 A 
ATOM     13  C   UNL     1       2.719   7.137  18.481  0.00  0.00    +0.000 A 
ATOM     14  C   UNL     1       2.147   8.413  18.474  0.00  0.00    +0.000 A 
ATOM     15  C   UNL     1       1.424   8.870  19.573  0.00  0.00    +0.000 A 
ENDROOT
BRANCH  14  16
ATOM     16  O   UNL     1       2.309   9.192  17.361  0.00  0.00    +0.000 OA
ATOM     17  H   UNL     1       1.859   8.798  16.600  0.00  0.00    +0.000 HD
ENDBRANCH  14  16
BRANCH  12  18
ATOM     18  O   UNL     1       3.171   5.084  19.472  0.00  0.00    +0.000 OA
BRANCH  18  19
ATOM     19  C   UNL     1       3.518   4.664  18.146  0.00  0.00    +0.000 C 
BRANCH  19  20
ATOM     20  C   UNL     1       5.022   4.342  18.116  0.00  0.00    +0.000 C 
BRANCH  20  21
ATOM     21  O   UNL     1       5.291   3.218  18.967  0.00  0.00    +0.000 OA
ATOM     22  H   UNL     1       6.219   3.295  19.256  0.00  0.00    +0.000 HD
ENDBRANCH  20  21
BRANCH  20  23
ATOM     23  C   UNL     1       5.549   4.042  16.703  0.00  0.00    +0.000 C 
BRANCH  23  24
ATOM     24  S   UNL     1       6.564   5.437  16.107  0.00  0.00    +0.000 S 
BRANCH  24  25
ATOM     25  C   UNL     1       7.030   4.823  14.458  0.00  0.00    +0.000 C 
BRANCH  25  26
ATOM     26  C   UNL     1       5.873   3.978  13.919  0.00  0.00    +0.000 C 
BRANCH  26  27
ATOM     27  O   UNL     1       6.316   3.055  12.926  0.00  0.00    +0.000 OA
ATOM     28  H   UNL     1       6.154   3.489  12.067  0.00  0.00    +0.000 HD
ENDBRANCH  26  27
ENDBRANCH  25  26
ENDBRANCH  24  25
ENDBRANCH  23  24
ENDBRANCH  20  23
ENDBRANCH  19  20
ENDBRANCH  18  19
ENDBRANCH  12  18
TORSDOF 10
ENDMDL
MODEL 8
REMARK VINA RESULT:      -6.6      2.687      7.312
REMARK  Name = 
REMARK  10 active torsions:
REMARK  status: ('A' for Active; 'I' for Inactive)
REMARK    1  A    between atoms: C_12  and  O_13
REMARK    2  A    between atoms: O_13  and  C_14
REMARK    3  A    between atoms: C_14  and  C_15
REMARK    4  A    between atoms: C_15  and  O_16
REMARK    5  A    between atoms: C_15  and  C_17
REMARK    6  A    between atoms: C_17  and  S_18
REMARK    7  A    between atoms: S_18  and  C_19
REMARK    8  A    between atoms: C_19  and  C_20
REMARK    9  A    between atoms: C_20  and  O_21
REMARK   10  A    between atoms: C_23  and  O_24
REMARK                            x       y       z     vdW  Elec       q    Type
REMARK                         _______ _______ _______ _____ _____    ______ ____
ROOT
ATOM      1  O   UNL     1       3.403   2.472  18.022  0.00  0.00    +0.000 OA
ATOM      2  C   UNL     1       3.549   3.686  17.965  0.00  0.00    +0.000 A 
ATOM      3  C   UNL     1       4.424   4.258  16.933  0.00  0.00    +0.000 A 
ATOM      4  C   UNL     1       5.085   3.425  16.024  0.00  0.00    +0.000 A 
ATOM      5  C   UNL     1       5.910   3.984  15.049  0.00  0.00    +0.000 A 
ATOM      6  C   UNL     1       6.072   5.368  14.981  0.00  0.00    +0.000 A 
ATOM      7  C   UNL     1       5.408   6.197  15.893  0.00  0.00    +0.000 A 
ATOM      8  C   UNL     1       4.581   5.637  16.870  0.00  0.00    +0.000 A 
ATOM      9  O   UNL     1       3.960   6.513  17.723  0.00  0.00    +0.000 OA
ATOM     10  C   UNL     1       3.128   5.999  18.691  0.00  0.00    +0.000 A 
ATOM     11  C   UNL     1       2.515   6.953  19.511  0.00  0.00    +0.000 A 
ATOM     12  C   UNL     1       1.649   6.553  20.527  0.00  0.00    +0.000 A 
ATOM     13  C   UNL     1       1.406   5.193  20.724  0.00  0.00    +0.000 A 
ATOM     14  C   UNL     1       2.021   4.241  19.904  0.00  0.00    +0.000 A 
ATOM     15  C   UNL     1       2.878   4.638  18.880  0.00  0.00    +0.000 A 
ENDROOT
BRANCH  14  16
ATOM     16  O   UNL     1       1.752   2.919  20.127  0.00  0.00    +0.000 OA
ATOM     17  H   UNL     1       1.767   2.723  21.075  0.00  0.00    +0.000 HD
ENDBRANCH  14  16
BRANCH  12  18
ATOM     18  O   UNL     1       0.981   7.379  21.386  0.00  0.00    +0.000 OA
BRANCH  18  19
ATOM     19  C   UNL     1       1.132   8.790  21.175  0.00  0.00    +0.000 C 
BRANCH  19  20
ATOM     20  C   UNL     1      -0.008   9.517  21.909  0.00  0.00    +0.000 C 
BRANCH  20  21
ATOM     21  O   UNL     1       0.464   9.992  23.179  0.00  0.00    +0.000 OA
ATOM     22  H   UNL     1       0.765  10.910  23.046  0.00  0.00    +0.000 HD
ENDBRANCH  20  21
BRANCH  20  23
ATOM     23  C   UNL     1      -0.584  10.698  21.112  0.00  0.00    +0.000 C 
BRANCH  23  24
ATOM     24  S   UNL     1      -0.306  10.439  19.327  0.00  0.00    +0.000 S 
BRANCH  24  25
ATOM     25  C   UNL     1       0.504  12.010  18.890  0.00  0.00    +0.000 C 
BRANCH  25  26
ATOM     26  C   UNL     1      -0.579  13.008  18.478  0.00  0.00    +0.000 C 
BRANCH  26  27
ATOM     27  O   UNL     1      -1.233  12.607  17.277  0.00  0.00    +0.000 OA
ATOM     28  H   UNL     1      -0.532  12.545  16.599  0.00  0.00    +0.000 HD
ENDBRANCH  26  27
ENDBRANCH  25  26
ENDBRANCH  24  25
ENDBRANCH  23  24
ENDBRANCH  20  23
ENDBRANCH  19  20
ENDBRANCH  18  19
ENDBRANCH  12  18
TORSDOF 10
ENDMDL
MODEL 9
REMARK VINA RESULT:      -6.6      2.533      4.552
REMARK  Name = 
REMARK  10 active torsions:
REMARK  status: ('A' for Active; 'I' for Inactive)
REMARK    1  A    between atoms: C_12  and  O_13
REMARK    2  A    between atoms: O_13  and  C_14
REMARK    3  A    between atoms: C_14  and  C_15
REMARK    4  A    between atoms: C_15  and  O_16
REMARK    5  A    between atoms: C_15  and  C_17
REMARK    6  A    between atoms: C_17  and  S_18
REMARK    7  A    between atoms: S_18  and  C_19
REMARK    8  A    between atoms: C_19  and  C_20
REMARK    9  A    between atoms: C_20  and  O_21
REMARK   10  A    between atoms: C_23  and  O_24
REMARK                            x       y       z     vdW  Elec       q    Type
REMARK                         _______ _______ _______ _____ _____    ______ ____
ROOT
ATOM      1  O   UNL     1       0.588  11.987  18.806  0.00  0.00    +0.000 OA
ATOM      2  C   UNL     1       0.568  11.063  19.610  0.00  0.00    +0.000 A 
ATOM      3  C   UNL     1      -0.148  11.232  20.881  0.00  0.00    +0.000 A 
ATOM      4  C   UNL     1      -0.800  12.435  21.173  0.00  0.00    +0.000 A 
ATOM      5  C   UNL     1      -1.477  12.578  22.383  0.00  0.00    +0.000 A 
ATOM      6  C   UNL     1      -1.504  11.524  23.297  0.00  0.00    +0.000 A 
ATOM      7  C   UNL     1      -0.851  10.322  22.999  0.00  0.00    +0.000 A 
ATOM      8  C   UNL     1      -0.173  10.179  21.787  0.00  0.00    +0.000 A 
ATOM      9  O   UNL     1       0.438   8.970  21.565  0.00  0.00    +0.000 OA
ATOM     10  C   UNL     1       1.105   8.788  20.376  0.00  0.00    +0.000 A 
ATOM     11  C   UNL     1       1.686   7.525  20.212  0.00  0.00    +0.000 A 
ATOM     12  C   UNL     1       2.387   7.220  19.046  0.00  0.00    +0.000 A 
ATOM     13  C   UNL     1       2.512   8.189  18.050  0.00  0.00    +0.000 A 
ATOM     14  C   UNL     1       1.933   9.451  18.217  0.00  0.00    +0.000 A 
ATOM     15  C   UNL     1       1.221   9.755  19.375  0.00  0.00    +0.000 A 
ENDROOT
BRANCH  14  16
ATOM     16  O   UNL     1       2.075  10.370  17.214  0.00  0.00    +0.000 OA
ATOM     17  H   UNL     1       2.832  10.149  16.653  0.00  0.00    +0.000 HD
ENDBRANCH  14  16
BRANCH  12  18
ATOM     18  O   UNL     1       2.990   6.029  18.759  0.00  0.00    +0.000 OA
BRANCH  18  19
ATOM     19  C   UNL     1       3.997   5.576  19.674  0.00  0.00    +0.000 C 
BRANCH  19  20
ATOM     20  C   UNL     1       5.251   5.196  18.868  0.00  0.00    +0.000 C 
BRANCH  20  21
ATOM     21  O   UNL     1       6.377   5.088  19.752  0.00  0.00    +0.000 OA
ATOM     22  H   UNL     1       7.173   5.293  19.227  0.00  0.00    +0.000 HD
ENDBRANCH  20  21
BRANCH  20  23
ATOM     23  C   UNL     1       5.094   3.880  18.088  0.00  0.00    +0.000 C 
BRANCH  23  24
ATOM     24  S   UNL     1       5.006   4.224  16.298  0.00  0.00    +0.000 S 
BRANCH  24  25
ATOM     25  C   UNL     1       6.772   4.455  15.921  0.00  0.00    +0.000 C 
BRANCH  25  26
ATOM     26  C   UNL     1       6.919   4.626  14.408  0.00  0.00    +0.000 C 
BRANCH  26  27
ATOM     27  O   UNL     1       7.896   5.613  14.084  0.00  0.00    +0.000 OA
ATOM     28  H   UNL     1       8.377   5.268  13.308  0.00  0.00    +0.000 HD
ENDBRANCH  26  27
ENDBRANCH  25  26
ENDBRANCH  24  25
ENDBRANCH  23  24
ENDBRANCH  20  23
ENDBRANCH  19  20
ENDBRANCH  18  19
ENDBRANCH  12  18
TORSDOF 10
ENDMDL
