MODEL 1
REMARK VINA RESULT:      -5.9      0.000      0.000
REMARK  Name = 
REMARK  5 active torsions:
REMARK  status: ('A' for Active; 'I' for Inactive)
REMARK    1  A    between atoms: C_2  and  C_3
REMARK    2  A    between atoms: C_3  and  C_19
REMARK    3  A    between atoms: C_6  and  C_7
REMARK    4  A    between atoms: C_10  and  N_11
REMARK    5  A    between atoms: N_12  and  C_13
REMARK                            x       y       z     vdW  Elec       q    Type
REMARK                         _______ _______ _______ _____ _____    ______ ____
ROOT
ATOM      1  C   UNL     1      -4.337  12.415  19.229  0.00  0.00    +0.000 C 
ATOM      2  C   UNL     1      -4.783  12.668  20.501  0.00  0.00    +0.000 C 
ATOM      3  S   UNL     1      -6.578  12.659  20.757  0.00  0.00    +0.000 S 
ATOM      4  C   UNL     1      -6.303  12.454  22.455  0.00  0.00    +0.000 C 
ATOM      5  C   UNL     1      -5.007  12.562  22.858  0.00  0.00    +0.000 C 
ATOM      6  N   UNL     1      -4.096  12.766  21.762  0.00  0.00    +0.000 N 
ENDROOT
BRANCH   1   7
ATOM      7  C   UNL     1      -2.993  12.028  18.940  0.00  0.00    +0.000 A 
ATOM      8  N   UNL     1      -2.459  10.823  18.870  0.00  0.00    +0.000 NA
ATOM      9  C   UNL     1      -1.098  11.010  18.799  0.00  0.00    +0.000 A 
ATOM     10  C   UNL     1      -0.061  10.068  18.768  0.00  0.00    +0.000 A 
ATOM     11  C   UNL     1       1.263  10.528  18.761  0.00  0.00    +0.000 A 
ATOM     12  C   UNL     1       1.547  11.896  18.753  0.00  0.00    +0.000 A 
ATOM     13  C   UNL     1       0.524  12.850  18.753  0.00  0.00    +0.000 A 
ATOM     14  C   UNL     1      -0.784  12.361  18.793  0.00  0.00    +0.000 A 
ATOM     15  N   UNL     1      -2.000  12.985  18.857  0.00  0.00    +0.000 N 
ATOM     16  H   UNL     1      -2.141  13.986  18.868  0.00  0.00    +0.000 HD
ENDBRANCH   1   7
BRANCH   6  17
ATOM     17  C   UNL     1      -2.804  13.389  21.960  0.00  0.00    +0.000 A 
ATOM     18  C   UNL     1      -1.654  12.641  22.292  0.00  0.00    +0.000 A 
ATOM     19  C   UNL     1      -0.408  13.234  22.536  0.00  0.00    +0.000 A 
ATOM     20  C   UNL     1      -0.258  14.604  22.398  0.00  0.00    +0.000 A 
ATOM     21  C   UNL     1      -1.356  15.373  22.033  0.00  0.00    +0.000 A 
ATOM     22  C   UNL     1      -2.615  14.778  21.841  0.00  0.00    +0.000 A 
ENDBRANCH   6  17
BRANCH   4  23
ATOM     23  C   UNL     1      -7.436  12.143  23.384  0.00  0.00    +0.000 C 
ATOM     24  N   UNL     1      -7.917  10.873  23.366  0.00  0.00    +0.000 N 
ATOM     25  O   UNL     1      -7.911  12.983  24.147  0.00  0.00    +0.000 OA
ATOM     26  H   UNL     1      -7.559  10.165  22.743  0.00  0.00    +0.000 HD
ATOM     27  H   UNL     1      -8.682  10.642  23.987  0.00  0.00    +0.000 HD
ENDBRANCH   4  23
BRANCH   5  28
ATOM     28  N   UNL     1      -4.660  12.477  24.203  0.00  0.00    +0.000 N 
ATOM     29  H   UNL     1      -5.218  13.127  24.777  0.00  0.00    +0.000 HD
ATOM     30  H   UNL     1      -4.831  11.548  24.571  0.00  0.00    +0.000 HD
ENDBRANCH   5  28
BRANCH   1  32
ATOM     31  N   UNL     1      -6.149  12.054  17.151  0.00  0.00    +0.000 NA
ATOM     32  C   UNL     1      -5.328  12.218  18.093  0.00  0.00    +0.000 C 
ENDBRANCH   1  32
TORSDOF 5
ENDMDL
MODEL 2
REMARK VINA RESULT:      -5.8      3.505      5.197
REMARK  Name = 
REMARK  5 active torsions:
REMARK  status: ('A' for Active; 'I' for Inactive)
REMARK    1  A    between atoms: C_2  and  C_3
REMARK    2  A    between atoms: C_3  and  C_19
REMARK    3  A    between atoms: C_6  and  C_7
REMARK    4  A    between atoms: C_10  and  N_11
REMARK    5  A    between atoms: N_12  and  C_13
REMARK                            x       y       z     vdW  Elec       q    Type
REMARK                         _______ _______ _______ _____ _____    ______ ____
ROOT
ATOM      1  C   UNL     1      -2.505  13.005  23.397  0.00  0.00    +0.000 C 
ATOM      2  C   UNL     1      -1.994  14.253  23.647  0.00  0.00    +0.000 C 
ATOM      3  S   UNL     1      -2.786  15.214  24.965  0.00  0.00    +0.000 S 
ATOM      4  C   UNL     1      -1.370  16.208  25.048  0.00  0.00    +0.000 C 
ATOM      5  C   UNL     1      -0.444  15.993  24.075  0.00  0.00    +0.000 C 
ATOM      6  N   UNL     1      -0.802  14.916  23.189  0.00  0.00    +0.000 N 
ENDROOT
BRANCH   1   7
ATOM      7  C   UNL     1      -1.790  12.003  22.673  0.00  0.00    +0.000 A 
ATOM      8  N   UNL     1      -0.903  11.125  23.103  0.00  0.00    +0.000 NA
ATOM      9  C   UNL     1      -0.347  10.560  21.979  0.00  0.00    +0.000 A 
ATOM     10  C   UNL     1       0.683   9.616  21.861  0.00  0.00    +0.000 A 
ATOM     11  C   UNL     1       1.113   9.250  20.578  0.00  0.00    +0.000 A 
ATOM     12  C   UNL     1       0.511   9.788  19.438  0.00  0.00    +0.000 A 
ATOM     13  C   UNL     1      -0.538  10.708  19.537  0.00  0.00    +0.000 A 
ATOM     14  C   UNL     1      -0.923  11.078  20.828  0.00  0.00    +0.000 A 
ATOM     15  N   UNL     1      -1.850  11.970  21.293  0.00  0.00    +0.000 N 
ATOM     16  H   UNL     1      -2.461  12.530  20.715  0.00  0.00    +0.000 HD
ENDBRANCH   1   7
BRANCH   6  17
ATOM     17  C   UNL     1      -0.267  14.833  21.846  0.00  0.00    +0.000 A 
ATOM     18  C   UNL     1      -0.934  15.396  20.737  0.00  0.00    +0.000 A 
ATOM     19  C   UNL     1      -0.455  15.281  19.425  0.00  0.00    +0.000 A 
ATOM     20  C   UNL     1       0.749  14.640  19.185  0.00  0.00    +0.000 A 
ATOM     21  C   UNL     1       1.457  14.106  20.254  0.00  0.00    +0.000 A 
ATOM     22  C   UNL     1       0.946  14.179  21.561  0.00  0.00    +0.000 A 
ENDBRANCH   6  17
BRANCH   4  23
ATOM     23  C   UNL     1      -1.194  17.202  26.154  0.00  0.00    +0.000 C 
ATOM     24  N   UNL     1      -0.775  16.723  27.354  0.00  0.00    +0.000 N 
ATOM     25  O   UNL     1      -1.401  18.405  25.997  0.00  0.00    +0.000 OA
ATOM     26  H   UNL     1      -0.611  15.742  27.520  0.00  0.00    +0.000 HD
ATOM     27  H   UNL     1      -0.650  17.380  28.114  0.00  0.00    +0.000 HD
ENDBRANCH   4  23
BRANCH   5  28
ATOM     28  N   UNL     1       0.711  16.766  23.994  0.00  0.00    +0.000 N 
ATOM     29  H   UNL     1       1.339  16.588  24.792  0.00  0.00    +0.000 HD
ATOM     30  H   UNL     1       1.241  16.552  23.156  0.00  0.00    +0.000 HD
ENDBRANCH   5  28
BRANCH   1  32
ATOM     31  N   UNL     1      -4.743  12.100  24.778  0.00  0.00    +0.000 NA
ATOM     32  C   UNL     1      -3.728  12.510  24.152  0.00  0.00    +0.000 C 
ENDBRANCH   1  32
TORSDOF 5
ENDMDL
MODEL 3
REMARK VINA RESULT:      -5.8      1.444      1.647
REMARK  Name = 
REMARK  5 active torsions:
REMARK  status: ('A' for Active; 'I' for Inactive)
REMARK    1  A    between atoms: C_2  and  C_3
REMARK    2  A    between atoms: C_3  and  C_19
REMARK    3  A    between atoms: C_6  and  C_7
REMARK    4  A    between atoms: C_10  and  N_11
REMARK    5  A    between atoms: N_12  and  C_13
REMARK                            x       y       z     vdW  Elec       q    Type
REMARK                         _______ _______ _______ _____ _____    ______ ____
ROOT
ATOM      1  C   UNL     1      -3.767  12.558  19.808  0.00  0.00    +0.000 C 
ATOM      2  C   UNL     1      -4.520  12.962  20.881  0.00  0.00    +0.000 C 
ATOM      3  S   UNL     1      -6.243  12.400  20.932  0.00  0.00    +0.000 S 
ATOM      4  C   UNL     1      -6.274  12.751  22.628  0.00  0.00    +0.000 C 
ATOM      5  C   UNL     1      -5.182  13.401  23.114  0.00  0.00    +0.000 C 
ATOM      6  N   UNL     1      -4.167  13.615  22.115  0.00  0.00    +0.000 N 
ENDROOT
BRANCH   1   7
ATOM      7  C   UNL     1      -2.339  12.599  19.801  0.00  0.00    +0.000 A 
ATOM      8  N   UNL     1      -1.470  11.786  20.371  0.00  0.00    +0.000 NA
ATOM      9  C   UNL     1      -0.243  12.398  20.261  0.00  0.00    +0.000 A 
ATOM     10  C   UNL     1       1.009  11.998  20.748  0.00  0.00    +0.000 A 
ATOM     11  C   UNL     1       2.107  12.848  20.553  0.00  0.00    +0.000 A 
ATOM     12  C   UNL     1       1.967  14.053  19.862  0.00  0.00    +0.000 A 
ATOM     13  C   UNL     1       0.731  14.453  19.343  0.00  0.00    +0.000 A 
ATOM     14  C   UNL     1      -0.350  13.602  19.581  0.00  0.00    +0.000 A 
ATOM     15  N   UNL     1      -1.681  13.695  19.278  0.00  0.00    +0.000 N 
ATOM     16  H   UNL     1      -2.111  14.459  18.774  0.00  0.00    +0.000 HD
ENDBRANCH   1   7
BRANCH   6  17
ATOM     17  C   UNL     1      -3.190  14.675  22.246  0.00  0.00    +0.000 A 
ATOM     18  C   UNL     1      -1.943  14.472  22.876  0.00  0.00    +0.000 A 
ATOM     19  C   UNL     1      -1.007  15.500  23.055  0.00  0.00    +0.000 A 
ATOM     20  C   UNL     1      -1.268  16.764  22.553  0.00  0.00    +0.000 A 
ATOM     21  C   UNL     1      -2.466  16.996  21.891  0.00  0.00    +0.000 A 
ATOM     22  C   UNL     1      -3.423  15.975  21.760  0.00  0.00    +0.000 A 
ENDBRANCH   6  17
BRANCH   4  23
ATOM     23  C   UNL     1      -7.428  12.320  23.480  0.00  0.00    +0.000 C 
ATOM     24  N   UNL     1      -7.914  11.069  23.272  0.00  0.00    +0.000 N 
ATOM     25  O   UNL     1      -7.916  13.047  24.344  0.00  0.00    +0.000 OA
ATOM     26  H   UNL     1      -7.546  10.454  22.563  0.00  0.00    +0.000 HD
ATOM     27  H   UNL     1      -8.694  10.758  23.838  0.00  0.00    +0.000 HD
ENDBRANCH   4  23
BRANCH   5  28
ATOM     28  N   UNL     1      -5.109  13.794  24.448  0.00  0.00    +0.000 N 
ATOM     29  H   UNL     1      -5.669  14.642  24.620  0.00  0.00    +0.000 HD
ATOM     30  H   UNL     1      -5.474  13.076  25.064  0.00  0.00    +0.000 HD
ENDBRANCH   5  28
BRANCH   1  32
ATOM     31  N   UNL     1      -4.921  11.067  17.764  0.00  0.00    +0.000 NA
ATOM     32  C   UNL     1      -4.398  11.743  18.691  0.00  0.00    +0.000 C 
ENDBRANCH   1  32
TORSDOF 5
ENDMDL
MODEL 4
REMARK VINA RESULT:      -5.7      3.512      5.229
REMARK  Name = 
REMARK  5 active torsions:
REMARK  status: ('A' for Active; 'I' for Inactive)
REMARK    1  A    between atoms: C_2  and  C_3
REMARK    2  A    between atoms: C_3  and  C_19
REMARK    3  A    between atoms: C_6  and  C_7
REMARK    4  A    between atoms: C_10  and  N_11
REMARK    5  A    between atoms: N_12  and  C_13
REMARK                            x       y       z     vdW  Elec       q    Type
REMARK                         _______ _______ _______ _____ _____    ______ ____
ROOT
ATOM      1  C   UNL     1      -2.256  12.813  23.165  0.00  0.00    +0.000 C 
ATOM      2  C   UNL     1      -1.762  14.090  23.235  0.00  0.00    +0.000 C 
ATOM      3  S   UNL     1      -2.609  15.236  24.357  0.00  0.00    +0.000 S 
ATOM      4  C   UNL     1      -1.203  16.248  24.334  0.00  0.00    +0.000 C 
ATOM      5  C   UNL     1      -0.239  15.895  23.441  0.00  0.00    +0.000 C 
ATOM      6  N   UNL     1      -0.557  14.688  22.722  0.00  0.00    +0.000 N 
ENDROOT
BRANCH   1   7
ATOM      7  C   UNL     1      -1.507  11.719  22.633  0.00  0.00    +0.000 A 
ATOM      8  N   UNL     1      -0.674  10.894  23.240  0.00  0.00    +0.000 NA
ATOM      9  C   UNL     1      -0.045  10.183  22.244  0.00  0.00    +0.000 A 
ATOM     10  C   UNL     1       0.971   9.222  22.329  0.00  0.00    +0.000 A 
ATOM     11  C   UNL     1       1.491   8.689  21.141  0.00  0.00    +0.000 A 
ATOM     12  C   UNL     1       0.989   9.082  19.898  0.00  0.00    +0.000 A 
ATOM     13  C   UNL     1      -0.046  10.017  19.797  0.00  0.00    +0.000 A 
ATOM     14  C   UNL     1      -0.521  10.554  20.995  0.00  0.00    +0.000 A 
ATOM     15  N   UNL     1      -1.463  11.509  21.269  0.00  0.00    +0.000 N 
ATOM     16  H   UNL     1      -2.015  11.996  20.577  0.00  0.00    +0.000 HD
ENDBRANCH   1   7
BRANCH   6  17
ATOM     17  C   UNL     1       0.028  14.402  21.429  0.00  0.00    +0.000 A 
ATOM     18  C   UNL     1       1.270  13.745  21.297  0.00  0.00    +0.000 A 
ATOM     19  C   UNL     1       1.874  13.506  20.055  0.00  0.00    +0.000 A 
ATOM     20  C   UNL     1       1.220  13.870  18.890  0.00  0.00    +0.000 A 
ATOM     21  C   UNL     1      -0.024  14.483  18.974  0.00  0.00    +0.000 A 
ATOM     22  C   UNL     1      -0.600  14.768  20.224  0.00  0.00    +0.000 A 
ENDBRANCH   6  17
BRANCH   4  23
ATOM     23  C   UNL     1      -1.075  17.405  25.276  0.00  0.00    +0.000 C 
ATOM     24  N   UNL     1      -1.043  17.119  26.604  0.00  0.00    +0.000 N 
ATOM     25  O   UNL     1      -0.986  18.567  24.883  0.00  0.00    +0.000 OA
ATOM     26  H   UNL     1      -1.128  16.180  26.959  0.00  0.00    +0.000 HD
ATOM     27  H   UNL     1      -0.956  17.888  27.257  0.00  0.00    +0.000 HD
ENDBRANCH   4  23
BRANCH   5  28
ATOM     28  N   UNL     1       0.913  16.659  23.281  0.00  0.00    +0.000 N 
ATOM     29  H   UNL     1       1.459  16.349  22.464  0.00  0.00    +0.000 HD
ATOM     30  H   UNL     1       0.689  17.636  23.125  0.00  0.00    +0.000 HD
ENDBRANCH   5  28
BRANCH   1  32
ATOM     31  N   UNL     1      -4.538  12.108  24.590  0.00  0.00    +0.000 NA
ATOM     32  C   UNL     1      -3.503  12.428  23.944  0.00  0.00    +0.000 C 
ENDBRANCH   1  32
TORSDOF 5
ENDMDL
MODEL 5
REMARK VINA RESULT:      -5.6      2.600      5.504
REMARK  Name = 
REMARK  5 active torsions:
REMARK  status: ('A' for Active; 'I' for Inactive)
REMARK    1  A    between atoms: C_2  and  C_3
REMARK    2  A    between atoms: C_3  and  C_19
REMARK    3  A    between atoms: C_6  and  C_7
REMARK    4  A    between atoms: C_10  and  N_11
REMARK    5  A    between atoms: N_12  and  C_13
REMARK                            x       y       z     vdW  Elec       q    Type
REMARK                         _______ _______ _______ _____ _____    ______ ____
ROOT
ATOM      1  C   UNL     1      -5.527  13.678  23.175  0.00  0.00    +0.000 C 
ATOM      2  C   UNL     1      -5.328  12.978  22.013  0.00  0.00    +0.000 C 
ATOM      3  S   UNL     1      -6.716  11.978  21.411  0.00  0.00    +0.000 S 
ATOM      4  C   UNL     1      -5.976  11.952  19.845  0.00  0.00    +0.000 C 
ATOM      5  C   UNL     1      -4.720  12.472  19.779  0.00  0.00    +0.000 C 
ATOM      6  N   UNL     1      -4.271  13.010  21.037  0.00  0.00    +0.000 N 
ENDROOT
BRANCH   1   7
ATOM      7  C   UNL     1      -4.697  14.770  23.576  0.00  0.00    +0.000 A 
ATOM      8  N   UNL     1      -4.486  15.930  22.983  0.00  0.00    +0.000 NA
ATOM      9  C   UNL     1      -3.433  16.514  23.647  0.00  0.00    +0.000 A 
ATOM     10  C   UNL     1      -2.765  17.720  23.392  0.00  0.00    +0.000 A 
ATOM     11  C   UNL     1      -1.665  18.060  24.192  0.00  0.00    +0.000 A 
ATOM     12  C   UNL     1      -1.257  17.232  25.240  0.00  0.00    +0.000 A 
ATOM     13  C   UNL     1      -1.931  16.040  25.528  0.00  0.00    +0.000 A 
ATOM     14  C   UNL     1      -3.002  15.713  24.695  0.00  0.00    +0.000 A 
ATOM     15  N   UNL     1      -3.834  14.627  24.645  0.00  0.00    +0.000 N 
ATOM     16  H   UNL     1      -3.800  13.839  25.276  0.00  0.00    +0.000 HD
ENDBRANCH   1   7
BRANCH   6  17
ATOM     17  C   UNL     1      -2.862  13.145  21.340  0.00  0.00    +0.000 A 
ATOM     18  C   UNL     1      -2.150  12.157  22.054  0.00  0.00    +0.000 A 
ATOM     19  C   UNL     1      -0.799  12.296  22.399  0.00  0.00    +0.000 A 
ATOM     20  C   UNL     1      -0.094  13.415  21.987  0.00  0.00    +0.000 A 
ATOM     21  C   UNL     1      -0.747  14.393  21.248  0.00  0.00    +0.000 A 
ATOM     22  C   UNL     1      -2.115  14.273  20.950  0.00  0.00    +0.000 A 
ENDBRANCH   6  17
BRANCH   4  23
ATOM     23  C   UNL     1      -6.715  11.419  18.656  0.00  0.00    +0.000 C 
ATOM     24  N   UNL     1      -7.189  10.149  18.744  0.00  0.00    +0.000 N 
ATOM     25  O   UNL     1      -6.907  12.092  17.644  0.00  0.00    +0.000 OA
ATOM     26  H   UNL     1      -7.037   9.567  19.552  0.00  0.00    +0.000 HD
ATOM     27  H   UNL     1      -7.692   9.770  17.951  0.00  0.00    +0.000 HD
ENDBRANCH   4  23
BRANCH   5  28
ATOM     28  N   UNL     1      -3.994  12.457  18.592  0.00  0.00    +0.000 N 
ATOM     29  H   UNL     1      -3.500  13.349  18.442  0.00  0.00    +0.000 HD
ATOM     30  H   UNL     1      -3.283  11.733  18.603  0.00  0.00    +0.000 HD
ENDBRANCH   5  28
BRANCH   1  32
ATOM     31  N   UNL     1      -7.916  13.428  24.576  0.00  0.00    +0.000 NA
ATOM     32  C   UNL     1      -6.833  13.541  23.941  0.00  0.00    +0.000 C 
ENDBRANCH   1  32
TORSDOF 5
ENDMDL
MODEL 6
REMARK VINA RESULT:      -5.5      2.580      4.657
REMARK  Name = 
REMARK  5 active torsions:
REMARK  status: ('A' for Active; 'I' for Inactive)
REMARK    1  A    between atoms: C_2  and  C_3
REMARK    2  A    between atoms: C_3  and  C_19
REMARK    3  A    between atoms: C_6  and  C_7
REMARK    4  A    between atoms: C_10  and  N_11
REMARK    5  A    between atoms: N_12  and  C_13
REMARK                            x       y       z     vdW  Elec       q    Type
REMARK                         _______ _______ _______ _____ _____    ______ ____
ROOT
ATOM      1  C   UNL     1      -1.209  14.527  23.446  0.00  0.00    +0.000 C 
ATOM      2  C   UNL     1      -2.316  13.740  23.261  0.00  0.00    +0.000 C 
ATOM      3  S   UNL     1      -3.499  13.655  24.632  0.00  0.00    +0.000 S 
ATOM      4  C   UNL     1      -4.698  13.080  23.521  0.00  0.00    +0.000 C 
ATOM      5  C   UNL     1      -4.248  12.789  22.270  0.00  0.00    +0.000 C 
ATOM      6  N   UNL     1      -2.849  13.084  22.096  0.00  0.00    +0.000 N 
ENDROOT
BRANCH   1   7
ATOM      7  C   UNL     1      -0.393  14.987  22.367  0.00  0.00    +0.000 A 
ATOM      8  N   UNL     1      -0.577  16.004  21.545  0.00  0.00    +0.000 NA
ATOM      9  C   UNL     1       0.364  15.868  20.551  0.00  0.00    +0.000 A 
ATOM     10  C   UNL     1       0.573  16.639  19.399  0.00  0.00    +0.000 A 
ATOM     11  C   UNL     1       1.574  16.243  18.500  0.00  0.00    +0.000 A 
ATOM     12  C   UNL     1       2.369  15.124  18.759  0.00  0.00    +0.000 A 
ATOM     13  C   UNL     1       2.193  14.361  19.918  0.00  0.00    +0.000 A 
ATOM     14  C   UNL     1       1.168  14.761  20.778  0.00  0.00    +0.000 A 
ATOM     15  N   UNL     1       0.686  14.234  21.946  0.00  0.00    +0.000 N 
ATOM     16  H   UNL     1       1.049  13.412  22.407  0.00  0.00    +0.000 HD
ENDBRANCH   1   7
BRANCH   6  17
ATOM     17  C   UNL     1      -2.059  12.423  21.079  0.00  0.00    +0.000 A 
ATOM     18  C   UNL     1      -1.282  11.278  21.359  0.00  0.00    +0.000 A 
ATOM     19  C   UNL     1      -0.473  10.657  20.398  0.00  0.00    +0.000 A 
ATOM     20  C   UNL     1      -0.459  11.133  19.097  0.00  0.00    +0.000 A 
ATOM     21  C   UNL     1      -1.240  12.233  18.769  0.00  0.00    +0.000 A 
ATOM     22  C   UNL     1      -2.010  12.884  19.750  0.00  0.00    +0.000 A 
ENDBRANCH   6  17
BRANCH   4  23
ATOM     23  C   UNL     1      -6.132  12.959  23.935  0.00  0.00    +0.000 C 
ATOM     24  N   UNL     1      -6.755  14.096  24.340  0.00  0.00    +0.000 N 
ATOM     25  O   UNL     1      -6.739  11.889  23.900  0.00  0.00    +0.000 OA
ATOM     26  H   UNL     1      -6.283  14.985  24.393  0.00  0.00    +0.000 HD
ATOM     27  H   UNL     1      -7.725  14.035  24.623  0.00  0.00    +0.000 HD
ENDBRANCH   4  23
BRANCH   5  28
ATOM     28  N   UNL     1      -5.098  12.263  21.301  0.00  0.00    +0.000 N 
ATOM     29  H   UNL     1      -6.065  12.193  21.649  0.00  0.00    +0.000 HD
ATOM     30  H   UNL     1      -5.129  12.853  20.477  0.00  0.00    +0.000 HD
ENDBRANCH   5  28
BRANCH   1  32
ATOM     31  N   UNL     1      -0.777  15.796  25.883  0.00  0.00    +0.000 NA
ATOM     32  C   UNL     1      -0.973  15.221  24.778  0.00  0.00    +0.000 C 
ENDBRANCH   1  32
TORSDOF 5
ENDMDL
MODEL 7
REMARK VINA RESULT:      -5.5      1.857      2.435
REMARK  Name = 
REMARK  5 active torsions:
REMARK  status: ('A' for Active; 'I' for Inactive)
REMARK    1  A    between atoms: C_2  and  C_3
REMARK    2  A    between atoms: C_3  and  C_19
REMARK    3  A    between atoms: C_6  and  C_7
REMARK    4  A    between atoms: C_10  and  N_11
REMARK    5  A    between atoms: N_12  and  C_13
REMARK                            x       y       z     vdW  Elec       q    Type
REMARK                         _______ _______ _______ _____ _____    ______ ____
ROOT
ATOM      1  C   UNL     1      -3.054  11.941  18.215  0.00  0.00    +0.000 C 
ATOM      2  C   UNL     1      -4.099  12.126  19.084  0.00  0.00    +0.000 C 
ATOM      3  S   UNL     1      -5.664  11.311  18.669  0.00  0.00    +0.000 S 
ATOM      4  C   UNL     1      -6.159  11.493  20.319  0.00  0.00    +0.000 C 
ATOM      5  C   UNL     1      -5.340  12.250  21.099  0.00  0.00    +0.000 C 
ATOM      6  N   UNL     1      -4.167  12.705  20.400  0.00  0.00    +0.000 N 
ENDROOT
BRANCH   1   7
ATOM      7  C   UNL     1      -1.694  12.195  18.569  0.00  0.00    +0.000 A 
ATOM      8  N   UNL     1      -0.888  11.512  19.360  0.00  0.00    +0.000 NA
ATOM      9  C   UNL     1       0.222  12.302  19.550  0.00  0.00    +0.000 A 
ATOM     10  C   UNL     1       1.354  12.087  20.348  0.00  0.00    +0.000 A 
ATOM     11  C   UNL     1       2.327  13.094  20.418  0.00  0.00    +0.000 A 
ATOM     12  C   UNL     1       2.191  14.275  19.686  0.00  0.00    +0.000 A 
ATOM     13  C   UNL     1       1.082  14.494  18.861  0.00  0.00    +0.000 A 
ATOM     14  C   UNL     1       0.115  13.487  18.837  0.00  0.00    +0.000 A 
ATOM     15  N   UNL     1      -1.095  13.385  18.204  0.00  0.00    +0.000 N 
ATOM     16  H   UNL     1      -1.490  14.083  17.590  0.00  0.00    +0.000 HD
ENDBRANCH   1   7
BRANCH   6  17
ATOM     17  C   UNL     1      -3.441  13.882  20.829  0.00  0.00    +0.000 A 
ATOM     18  C   UNL     1      -3.823  15.183  20.437  0.00  0.00    +0.000 A 
ATOM     19  C   UNL     1      -3.102  16.328  20.803  0.00  0.00    +0.000 A 
ATOM     20  C   UNL     1      -1.996  16.211  21.629  0.00  0.00    +0.000 A 
ATOM     21  C   UNL     1      -1.610  14.953  22.070  0.00  0.00    +0.000 A 
ATOM     22  C   UNL     1      -2.306  13.803  21.657  0.00  0.00    +0.000 A 
ENDBRANCH   6  17
BRANCH   4  23
ATOM     23  C   UNL     1      -7.394  10.816  20.829  0.00  0.00    +0.000 C 
ATOM     24  N   UNL     1      -7.917   9.826  20.060  0.00  0.00    +0.000 N 
ATOM     25  O   UNL     1      -7.917  11.120  21.901  0.00  0.00    +0.000 OA
ATOM     26  H   UNL     1      -7.522   9.562  19.171  0.00  0.00    +0.000 HD
ATOM     27  H   UNL     1      -8.752   9.355  20.388  0.00  0.00    +0.000 HD
ENDBRANCH   4  23
BRANCH   5  28
ATOM     28  N   UNL     1      -5.656  12.522  22.427  0.00  0.00    +0.000 N 
ATOM     29  H   UNL     1      -6.393  13.239  22.498  0.00  0.00    +0.000 HD
ATOM     30  H   UNL     1      -6.009  11.697  22.899  0.00  0.00    +0.000 HD
ENDBRANCH   5  28
BRANCH   1  32
ATOM     31  N   UNL     1      -3.418  10.493  15.868  0.00  0.00    +0.000 NA
ATOM     32  C   UNL     1      -3.253  11.149  16.932  0.00  0.00    +0.000 C 
ENDBRANCH   1  32
TORSDOF 5
ENDMDL
MODEL 8
REMARK VINA RESULT:      -5.4      1.123      1.636
REMARK  Name = 
REMARK  5 active torsions:
REMARK  status: ('A' for Active; 'I' for Inactive)
REMARK    1  A    between atoms: C_2  and  C_3
REMARK    2  A    between atoms: C_3  and  C_19
REMARK    3  A    between atoms: C_6  and  C_7
REMARK    4  A    between atoms: C_10  and  N_11
REMARK    5  A    between atoms: N_12  and  C_13
REMARK                            x       y       z     vdW  Elec       q    Type
REMARK                         _______ _______ _______ _____ _____    ______ ____
ROOT
ATOM      1  C   UNL     1      -3.694  12.543  19.814  0.00  0.00    +0.000 C 
ATOM      2  C   UNL     1      -4.255  12.979  20.987  0.00  0.00    +0.000 C 
ATOM      3  S   UNL     1      -6.025  12.658  21.218  0.00  0.00    +0.000 S 
ATOM      4  C   UNL     1      -5.815  12.904  22.920  0.00  0.00    +0.000 C 
ATOM      5  C   UNL     1      -4.593  13.365  23.301  0.00  0.00    +0.000 C 
ATOM      6  N   UNL     1      -3.676  13.499  22.198  0.00  0.00    +0.000 N 
ENDROOT
BRANCH   1   7
ATOM      7  C   UNL     1      -2.285  12.386  19.638  0.00  0.00    +0.000 A 
ATOM      8  N   UNL     1      -1.361  13.295  19.388  0.00  0.00    +0.000 NA
ATOM      9  C   UNL     1      -0.215  12.601  19.075  0.00  0.00    +0.000 A 
ATOM     10  C   UNL     1       1.042  13.073  18.673  0.00  0.00    +0.000 A 
ATOM     11  C   UNL     1       2.036  12.140  18.346  0.00  0.00    +0.000 A 
ATOM     12  C   UNL     1       1.793  10.768  18.446  0.00  0.00    +0.000 A 
ATOM     13  C   UNL     1       0.554  10.280  18.875  0.00  0.00    +0.000 A 
ATOM     14  C   UNL     1      -0.426  11.232  19.163  0.00  0.00    +0.000 A 
ATOM     15  N   UNL     1      -1.735  11.122  19.545  0.00  0.00    +0.000 N 
ATOM     16  H   UNL     1      -2.223  10.252  19.707  0.00  0.00    +0.000 HD
ENDBRANCH   1   7
BRANCH   6  17
ATOM     17  C   UNL     1      -2.548  14.403  22.259  0.00  0.00    +0.000 A 
ATOM     18  C   UNL     1      -1.300  14.011  22.792  0.00  0.00    +0.000 A 
ATOM     19  C   UNL     1      -0.214  14.889  22.904  0.00  0.00    +0.000 A 
ATOM     20  C   UNL     1      -0.324  16.186  22.431  0.00  0.00    +0.000 A 
ATOM     21  C   UNL     1      -1.521  16.600  21.862  0.00  0.00    +0.000 A 
ATOM     22  C   UNL     1      -2.624  15.731  21.800  0.00  0.00    +0.000 A 
ENDBRANCH   6  17
BRANCH   4  23
ATOM     23  C   UNL     1      -6.916  12.584  23.883  0.00  0.00    +0.000 C 
ATOM     24  N   UNL     1      -7.515  13.632  24.505  0.00  0.00    +0.000 N 
ATOM     25  O   UNL     1      -7.286  11.430  24.100  0.00  0.00    +0.000 OA
ATOM     26  H   UNL     1      -7.227  14.587  24.360  0.00  0.00    +0.000 HD
ATOM     27  H   UNL     1      -8.262  13.436  25.160  0.00  0.00    +0.000 HD
ENDBRANCH   4  23
BRANCH   5  28
ATOM     28  N   UNL     1      -4.315  13.660  24.633  0.00  0.00    +0.000 N 
ATOM     29  H   UNL     1      -4.390  14.671  24.816  0.00  0.00    +0.000 HD
ATOM     30  H   UNL     1      -4.972  13.204  25.256  0.00  0.00    +0.000 HD
ENDBRANCH   5  28
BRANCH   1  32
ATOM     31  N   UNL     1      -5.272  11.356  17.857  0.00  0.00    +0.000 NA
ATOM     32  C   UNL     1      -4.557  11.894  18.744  0.00  0.00    +0.000 C 
ENDBRANCH   1  32
TORSDOF 5
ENDMDL
MODEL 9
REMARK VINA RESULT:      -5.4      2.618      4.306
REMARK  Name = 
REMARK  5 active torsions:
REMARK  status: ('A' for Active; 'I' for Inactive)
REMARK    1  A    between atoms: C_2  and  C_3
REMARK    2  A    between atoms: C_3  and  C_19
REMARK    3  A    between atoms: C_6  and  C_7
REMARK    4  A    between atoms: C_10  and  N_11
REMARK    5  A    between atoms: N_12  and  C_13
REMARK                            x       y       z     vdW  Elec       q    Type
REMARK                         _______ _______ _______ _____ _____    ______ ____
ROOT
ATOM      1  C   UNL     1      -1.811  15.536  23.021  0.00  0.00    +0.000 C 
ATOM      2  C   UNL     1      -2.895  14.699  23.088  0.00  0.00    +0.000 C 
ATOM      3  S   UNL     1      -4.330  15.291  24.025  0.00  0.00    +0.000 S 
ATOM      4  C   UNL     1      -5.309  14.121  23.203  0.00  0.00    +0.000 C 
ATOM      5  C   UNL     1      -4.633  13.229  22.429  0.00  0.00    +0.000 C 
ATOM      6  N   UNL     1      -3.215  13.479  22.395  0.00  0.00    +0.000 N 
ENDROOT
BRANCH   1   7
ATOM      7  C   UNL     1      -0.775  15.391  22.047  0.00  0.00    +0.000 A 
ATOM      8  N   UNL     1      -0.764  15.732  20.772  0.00  0.00    +0.000 NA
ATOM      9  C   UNL     1       0.367  15.164  20.233  0.00  0.00    +0.000 A 
ATOM     10  C   UNL     1       0.830  15.162  18.910  0.00  0.00    +0.000 A 
ATOM     11  C   UNL     1       1.995  14.443  18.609  0.00  0.00    +0.000 A 
ATOM     12  C   UNL     1       2.700  13.766  19.608  0.00  0.00    +0.000 A 
ATOM     13  C   UNL     1       2.268  13.783  20.939  0.00  0.00    +0.000 A 
ATOM     14  C   UNL     1       1.088  14.481  21.202  0.00  0.00    +0.000 A 
ATOM     15  N   UNL     1       0.358  14.660  22.347  0.00  0.00    +0.000 N 
ATOM     16  H   UNL     1       0.602  14.293  23.256  0.00  0.00    +0.000 HD
ENDBRANCH   1   7
BRANCH   6  17
ATOM     17  C   UNL     1      -2.270  12.429  22.079  0.00  0.00    +0.000 A 
ATOM     18  C   UNL     1      -1.741  11.573  23.070  0.00  0.00    +0.000 A 
ATOM     19  C   UNL     1      -0.788  10.585  22.788  0.00  0.00    +0.000 A 
ATOM     20  C   UNL     1      -0.372  10.381  21.483  0.00  0.00    +0.000 A 
ATOM     21  C   UNL     1      -0.897  11.175  20.472  0.00  0.00    +0.000 A 
ATOM     22  C   UNL     1      -1.814  12.199  20.768  0.00  0.00    +0.000 A 
ENDBRANCH   6  17
BRANCH   4  23
ATOM     23  C   UNL     1      -6.801  14.143  23.330  0.00  0.00    +0.000 C 
ATOM     24  N   UNL     1      -7.316  13.972  24.575  0.00  0.00    +0.000 N 
ATOM     25  O   UNL     1      -7.541  14.323  22.364  0.00  0.00    +0.000 OA
ATOM     26  H   UNL     1      -6.738  13.808  25.385  0.00  0.00    +0.000 HD
ATOM     27  H   UNL     1      -8.323  13.984  24.682  0.00  0.00    +0.000 HD
ENDBRANCH   4  23
BRANCH   5  28
ATOM     28  N   UNL     1      -5.296  12.201  21.764  0.00  0.00    +0.000 N 
ATOM     29  H   UNL     1      -4.686  11.380  21.638  0.00  0.00    +0.000 HD
ATOM     30  H   UNL     1      -6.104  11.883  22.289  0.00  0.00    +0.000 HD
ENDBRANCH   5  28
BRANCH   1  32
ATOM     31  N   UNL     1      -1.814  17.953  24.396  0.00  0.00    +0.000 NA
ATOM     32  C   UNL     1      -1.812  16.857  23.773  0.00  0.00    +0.000 C 
ENDBRANCH   1  32
TORSDOF 5
ENDMDL
