MODEL 1
REMARK VINA RESULT:      -8.0      0.000      0.000
REMARK  Name = 
REMARK  4 active torsions:
REMARK  status: ('A' for Active; 'I' for Inactive)
REMARK    1  A    between atoms: C_1  and  C_2
REMARK    2  A    between atoms: C_7  and  C_8
REMARK    3  A    between atoms: C_17  and  C_18
REMARK    4  A    between atoms: N_21  and  C_22
REMARK                            x       y       z     vdW  Elec       q    Type
REMARK                         _______ _______ _______ _____ _____    ______ ____
ROOT
ATOM      1  C   UNL     1       2.259   6.250  20.025  0.00  0.00    +0.000 C 
ATOM      2  O   UNL     1       1.525   5.718  20.838  0.00  0.00    +0.000 OA
ATOM      3  N   UNL     1       2.335   7.632  19.822  0.00  0.00    +0.000 N 
ATOM      4  C   UNL     1       1.479   8.523  20.498  0.00  0.00    +0.000 A 
ATOM      5  C   UNL     1       1.568   8.654  21.888  0.00  0.00    +0.000 A 
ATOM      6  C   UNL     1       0.759   9.573  22.555  0.00  0.00    +0.000 A 
ATOM      7  C   UNL     1      -0.142  10.275  21.756  0.00  0.00    +0.000 A 
ATOM      8  N   UNL     1      -1.122  11.179  22.079  0.00  0.00    +0.000 N 
ATOM      9  C   UNL     1      -1.805  11.554  20.954  0.00  0.00    +0.000 A 
ATOM     10  C   UNL     1      -1.243  10.908  19.862  0.00  0.00    +0.000 A 
ATOM     11  C   UNL     1      -0.171  10.110  20.374  0.00  0.00    +0.000 A 
ATOM     12  N   UNL     1       0.686   9.287  19.712  0.00  0.00    +0.000 NA
ATOM     13  H   UNL     1       2.572   7.956  18.901  0.00  0.00    +0.000 HD
ATOM     14  H   UNL     1      -1.340  11.484  23.017  0.00  0.00    +0.000 HD
ENDROOT
BRANCH   1  21
ATOM     15  C   UNL     1       1.195   4.429  17.650  0.00  0.00    +0.000 C 
ATOM     16  C   UNL     1       2.639   4.581  18.038  0.00  0.00    +0.000 A 
ATOM     17  C   UNL     1       3.582   3.898  17.233  0.00  0.00    +0.000 A 
ATOM     18  C   UNL     1       4.950   3.977  17.481  0.00  0.00    +0.000 A 
ATOM     19  C   UNL     1       5.409   4.735  18.546  0.00  0.00    +0.000 A 
ATOM     20  C   UNL     1       4.493   5.422  19.355  0.00  0.00    +0.000 A 
ATOM     21  C   UNL     1       3.101   5.365  19.121  0.00  0.00    +0.000 A 
ENDBRANCH   1  21
BRANCH  10  22
ATOM     22  C   UNL     1      -1.706  11.001  18.435  0.00  0.00    +0.000 C 
ATOM     23  C   UNL     1      -3.170  11.445  18.325  0.00  0.00    +0.000 C 
ATOM     24  C   UNL     1      -3.599  11.532  16.861  0.00  0.00    +0.000 C 
ATOM     25  N   UNL     1      -3.396  10.256  16.162  0.00  0.00    +0.000 NA
ATOM     26  C   UNL     1      -3.830  10.368  14.769  0.00  0.00    +0.000 C 
ATOM     27  C   UNL     1      -1.991   9.823  16.226  0.00  0.00    +0.000 C 
ATOM     28  C   UNL     1      -1.512   9.682  17.672  0.00  0.00    +0.000 C 
ENDBRANCH  10  22
TORSDOF 2
ENDMDL
MODEL 2
REMARK VINA RESULT:      -7.6      0.794      1.031
REMARK  Name = 
REMARK  4 active torsions:
REMARK  status: ('A' for Active; 'I' for Inactive)
REMARK    1  A    between atoms: C_1  and  C_2
REMARK    2  A    between atoms: C_7  and  C_8
REMARK    3  A    between atoms: C_17  and  C_18
REMARK    4  A    between atoms: N_21  and  C_22
REMARK                            x       y       z     vdW  Elec       q    Type
REMARK                         _______ _______ _______ _____ _____    ______ ____
ROOT
ATOM      1  C   UNL     1       2.075   6.209  20.199  0.00  0.00    +0.000 C 
ATOM      2  O   UNL     1       1.325   5.729  21.031  0.00  0.00    +0.000 OA
ATOM      3  N   UNL     1       2.208   7.580  19.959  0.00  0.00    +0.000 N 
ATOM      4  C   UNL     1       1.395   8.524  20.617  0.00  0.00    +0.000 A 
ATOM      5  C   UNL     1       1.500   8.687  22.002  0.00  0.00    +0.000 A 
ATOM      6  C   UNL     1       0.736   9.657  22.651  0.00  0.00    +0.000 A 
ATOM      7  C   UNL     1      -0.140  10.375  21.839  0.00  0.00    +0.000 A 
ATOM      8  N   UNL     1      -1.079  11.328  22.144  0.00  0.00    +0.000 N 
ATOM      9  C   UNL     1      -1.754  11.702  21.014  0.00  0.00    +0.000 A 
ATOM     10  C   UNL     1      -1.229  11.005  19.936  0.00  0.00    +0.000 A 
ATOM     11  C   UNL     1      -0.187  10.175  20.462  0.00  0.00    +0.000 A 
ATOM     12  N   UNL     1       0.629   9.300  19.817  0.00  0.00    +0.000 NA
ATOM     13  H   UNL     1       2.451   7.870  19.028  0.00  0.00    +0.000 HD
ATOM     14  H   UNL     1      -1.276  11.667  23.075  0.00  0.00    +0.000 HD
ENDROOT
BRANCH   1  21
ATOM     15  C   UNL     1       2.708   3.153  20.792  0.00  0.00    +0.000 C 
ATOM     16  C   UNL     1       3.125   3.894  19.553  0.00  0.00    +0.000 A 
ATOM     17  C   UNL     1       3.798   3.137  18.564  0.00  0.00    +0.000 A 
ATOM     18  C   UNL     1       4.217   3.707  17.365  0.00  0.00    +0.000 A 
ATOM     19  C   UNL     1       3.981   5.052  17.127  0.00  0.00    +0.000 A 
ATOM     20  C   UNL     1       3.314   5.819  18.091  0.00  0.00    +0.000 A 
ATOM     21  C   UNL     1       2.872   5.265  19.313  0.00  0.00    +0.000 A 
ENDBRANCH   1  21
BRANCH  10  22
ATOM     22  C   UNL     1      -1.698  11.080  18.510  0.00  0.00    +0.000 C 
ATOM     23  C   UNL     1      -3.171  11.493  18.402  0.00  0.00    +0.000 C 
ATOM     24  C   UNL     1      -3.607  11.563  16.940  0.00  0.00    +0.000 C 
ATOM     25  N   UNL     1      -3.380  10.287  16.248  0.00  0.00    +0.000 NA
ATOM     26  C   UNL     1      -3.821  10.383  14.855  0.00  0.00    +0.000 C 
ATOM     27  C   UNL     1      -1.966   9.884  16.309  0.00  0.00    +0.000 C 
ATOM     28  C   UNL     1      -1.480   9.760  17.754  0.00  0.00    +0.000 C 
ENDBRANCH  10  22
TORSDOF 2
ENDMDL
MODEL 3
REMARK VINA RESULT:      -7.6      0.559      1.431
REMARK  Name = 
REMARK  4 active torsions:
REMARK  status: ('A' for Active; 'I' for Inactive)
REMARK    1  A    between atoms: C_1  and  C_2
REMARK    2  A    between atoms: C_7  and  C_8
REMARK    3  A    between atoms: C_17  and  C_18
REMARK    4  A    between atoms: N_21  and  C_22
REMARK                            x       y       z     vdW  Elec       q    Type
REMARK                         _______ _______ _______ _____ _____    ______ ____
ROOT
ATOM      1  C   UNL     1       1.996   6.005  19.893  0.00  0.00    +0.000 C 
ATOM      2  O   UNL     1       1.295   5.550  20.780  0.00  0.00    +0.000 OA
ATOM      3  N   UNL     1       2.189   7.372  19.671  0.00  0.00    +0.000 N 
ATOM      4  C   UNL     1       1.496   8.345  20.417  0.00  0.00    +0.000 A 
ATOM      5  C   UNL     1       1.733   8.466  21.790  0.00  0.00    +0.000 A 
ATOM      6  C   UNL     1       1.090   9.462  22.524  0.00  0.00    +0.000 A 
ATOM      7  C   UNL     1       0.190  10.251  21.809  0.00  0.00    +0.000 A 
ATOM      8  N   UNL     1      -0.659  11.249  22.216  0.00  0.00    +0.000 N 
ATOM      9  C   UNL     1      -1.407  11.691  21.160  0.00  0.00    +0.000 A 
ATOM     10  C   UNL     1      -1.022  10.991  20.025  0.00  0.00    +0.000 A 
ATOM     11  C   UNL     1       0.009  10.089  20.438  0.00  0.00    +0.000 A 
ATOM     12  N   UNL     1       0.711   9.184  19.705  0.00  0.00    +0.000 NA
ATOM     13  H   UNL     1       2.366   7.671  18.728  0.00  0.00    +0.000 HD
ATOM     14  H   UNL     1      -0.752  11.575  23.168  0.00  0.00    +0.000 HD
ENDROOT
BRANCH   1  21
ATOM     15  C   UNL     1       5.114   5.661  19.397  0.00  0.00    +0.000 C 
ATOM     16  C   UNL     1       4.040   4.855  18.723  0.00  0.00    +0.000 A 
ATOM     17  C   UNL     1       4.479   3.829  17.849  0.00  0.00    +0.000 A 
ATOM     18  C   UNL     1       3.580   3.003  17.181  0.00  0.00    +0.000 A 
ATOM     19  C   UNL     1       2.218   3.184  17.363  0.00  0.00    +0.000 A 
ATOM     20  C   UNL     1       1.762   4.191  18.226  0.00  0.00    +0.000 A 
ATOM     21  C   UNL     1       2.652   5.039  18.921  0.00  0.00    +0.000 A 
ENDBRANCH   1  21
BRANCH  10  22
ATOM     22  C   UNL     1      -1.611  11.129  18.649  0.00  0.00    +0.000 C 
ATOM     23  C   UNL     1      -3.106  11.470  18.685  0.00  0.00    +0.000 C 
ATOM     24  C   UNL     1      -3.664  11.607  17.270  0.00  0.00    +0.000 C 
ATOM     25  N   UNL     1      -3.434  10.390  16.479  0.00  0.00    +0.000 NA
ATOM     26  C   UNL     1      -3.992  10.549  15.135  0.00  0.00    +0.000 C 
ATOM     27  C   UNL     1      -2.002  10.061  16.401  0.00  0.00    +0.000 C 
ATOM     28  C   UNL     1      -1.393   9.873  17.792  0.00  0.00    +0.000 C 
ENDBRANCH  10  22
TORSDOF 2
ENDMDL
MODEL 4
REMARK VINA RESULT:      -7.3      4.508      5.611
REMARK  Name = 
REMARK  4 active torsions:
REMARK  status: ('A' for Active; 'I' for Inactive)
REMARK    1  A    between atoms: C_1  and  C_2
REMARK    2  A    between atoms: C_7  and  C_8
REMARK    3  A    between atoms: C_17  and  C_18
REMARK    4  A    between atoms: N_21  and  C_22
REMARK                            x       y       z     vdW  Elec       q    Type
REMARK                         _______ _______ _______ _____ _____    ______ ____
ROOT
ATOM      1  C   UNL     1       1.795   8.585  18.278  0.00  0.00    +0.000 C 
ATOM      2  O   UNL     1       1.259   8.697  17.189  0.00  0.00    +0.000 OA
ATOM      3  N   UNL     1       1.621   9.486  19.333  0.00  0.00    +0.000 N 
ATOM      4  C   UNL     1       0.867  10.665  19.178  0.00  0.00    +0.000 A 
ATOM      5  C   UNL     1      -0.507  10.584  18.932  0.00  0.00    +0.000 A 
ATOM      6  C   UNL     1      -1.267  11.749  18.830  0.00  0.00    +0.000 A 
ATOM      7  C   UNL     1      -0.557  12.944  18.935  0.00  0.00    +0.000 A 
ATOM      8  N   UNL     1      -0.959  14.249  18.806  0.00  0.00    +0.000 N 
ATOM      9  C   UNL     1       0.116  15.086  18.926  0.00  0.00    +0.000 A 
ATOM     10  C   UNL     1       1.246  14.320  19.171  0.00  0.00    +0.000 A 
ATOM     11  C   UNL     1       0.811  12.957  19.196  0.00  0.00    +0.000 A 
ATOM     12  N   UNL     1       1.534  11.822  19.394  0.00  0.00    +0.000 NA
ATOM     13  H   UNL     1       2.384   9.603  19.976  0.00  0.00    +0.000 HD
ATOM     14  H   UNL     1      -1.903  14.544  18.603  0.00  0.00    +0.000 HD
ENDROOT
BRANCH   1  21
ATOM     15  C   UNL     1       1.696   6.444  20.622  0.00  0.00    +0.000 C 
ATOM     16  C   UNL     1       2.707   6.458  19.511  0.00  0.00    +0.000 A 
ATOM     17  C   UNL     1       3.639   5.392  19.496  0.00  0.00    +0.000 A 
ATOM     18  C   UNL     1       4.613   5.286  18.506  0.00  0.00    +0.000 A 
ATOM     19  C   UNL     1       4.685   6.246  17.510  0.00  0.00    +0.000 A 
ATOM     20  C   UNL     1       3.769   7.308  17.504  0.00  0.00    +0.000 A 
ATOM     21  C   UNL     1       2.767   7.437  18.492  0.00  0.00    +0.000 A 
ENDBRANCH   1  21
BRANCH  10  22
ATOM     22  C   UNL     1       2.652  14.828  19.330  0.00  0.00    +0.000 C 
ATOM     23  C   UNL     1       2.695  16.299  19.763  0.00  0.00    +0.000 C 
ATOM     24  C   UNL     1       4.138  16.774  19.920  0.00  0.00    +0.000 C 
ATOM     25  N   UNL     1       4.907  16.580  18.682  0.00  0.00    +0.000 NA
ATOM     26  C   UNL     1       6.279  17.059  18.860  0.00  0.00    +0.000 C 
ATOM     27  C   UNL     1       4.908  15.170  18.263  0.00  0.00    +0.000 C 
ATOM     28  C   UNL     1       3.487  14.645  18.054  0.00  0.00    +0.000 C 
ENDBRANCH  10  22
TORSDOF 2
ENDMDL
MODEL 5
REMARK VINA RESULT:      -7.3      2.741      8.213
REMARK  Name = 
REMARK  4 active torsions:
REMARK  status: ('A' for Active; 'I' for Inactive)
REMARK    1  A    between atoms: C_1  and  C_2
REMARK    2  A    between atoms: C_7  and  C_8
REMARK    3  A    between atoms: C_17  and  C_18
REMARK    4  A    between atoms: N_21  and  C_22
REMARK                            x       y       z     vdW  Elec       q    Type
REMARK                         _______ _______ _______ _____ _____    ______ ____
ROOT
ATOM      1  C   UNL     1       1.341   8.424  20.702  0.00  0.00    +0.000 C 
ATOM      2  O   UNL     1       1.945   8.335  21.757  0.00  0.00    +0.000 OA
ATOM      3  N   UNL     1       1.211   7.378  19.782  0.00  0.00    +0.000 N 
ATOM      4  C   UNL     1       1.864   6.145  19.973  0.00  0.00    +0.000 A 
ATOM      5  C   UNL     1       1.508   5.329  21.052  0.00  0.00    +0.000 A 
ATOM      6  C   UNL     1       2.114   4.084  21.214  0.00  0.00    +0.000 A 
ATOM      7  C   UNL     1       3.098   3.766  20.280  0.00  0.00    +0.000 A 
ATOM      8  N   UNL     1       3.938   2.686  20.184  0.00  0.00    +0.000 N 
ATOM      9  C   UNL     1       4.791   2.845  19.127  0.00  0.00    +0.000 A 
ATOM     10  C   UNL     1       4.488   4.042  18.493  0.00  0.00    +0.000 A 
ATOM     11  C   UNL     1       3.396   4.616  19.218  0.00  0.00    +0.000 A 
ATOM     12  N   UNL     1       2.735   5.785  19.003  0.00  0.00    +0.000 NA
ATOM     13  H   UNL     1       1.129   7.620  18.811  0.00  0.00    +0.000 HD
ATOM     14  H   UNL     1       3.955   1.909  20.829  0.00  0.00    +0.000 HD
ENDROOT
BRANCH   1  21
ATOM     15  C   UNL     1       1.911  10.049  18.033  0.00  0.00    +0.000 C 
ATOM     16  C   UNL     1       0.965  10.479  19.118  0.00  0.00    +0.000 A 
ATOM     17  C   UNL     1       0.239  11.672  18.882  0.00  0.00    +0.000 A 
ATOM     18  C   UNL     1      -0.681  12.163  19.804  0.00  0.00    +0.000 A 
ATOM     19  C   UNL     1      -0.895  11.478  20.989  0.00  0.00    +0.000 A 
ATOM     20  C   UNL     1      -0.190  10.292  21.241  0.00  0.00    +0.000 A 
ATOM     21  C   UNL     1       0.745   9.768  20.321  0.00  0.00    +0.000 A 
ENDBRANCH   1  21
BRANCH  10  22
ATOM     22  C   UNL     1       5.202   4.631  17.309  0.00  0.00    +0.000 C 
ATOM     23  C   UNL     1       4.679   4.075  15.978  0.00  0.00    +0.000 C 
ATOM     24  C   UNL     1       5.425   4.702  14.801  0.00  0.00    +0.000 C 
ATOM     25  N   UNL     1       6.876   4.494  14.909  0.00  0.00    +0.000 NA
ATOM     26  C   UNL     1       7.558   5.092  13.761  0.00  0.00    +0.000 C 
ATOM     27  C   UNL     1       7.407   5.048  16.164  0.00  0.00    +0.000 C 
ATOM     28  C   UNL     1       6.723   4.430  17.385  0.00  0.00    +0.000 C 
ENDBRANCH  10  22
TORSDOF 2
ENDMDL
MODEL 6
REMARK VINA RESULT:      -7.2      2.855      8.254
REMARK  Name = 
REMARK  4 active torsions:
REMARK  status: ('A' for Active; 'I' for Inactive)
REMARK    1  A    between atoms: C_1  and  C_2
REMARK    2  A    between atoms: C_7  and  C_8
REMARK    3  A    between atoms: C_17  and  C_18
REMARK    4  A    between atoms: N_21  and  C_22
REMARK                            x       y       z     vdW  Elec       q    Type
REMARK                         _______ _______ _______ _____ _____    ______ ____
ROOT
ATOM      1  C   UNL     1       1.349   8.351  20.842  0.00  0.00    +0.000 C 
ATOM      2  O   UNL     1       1.959   8.234  21.890  0.00  0.00    +0.000 OA
ATOM      3  N   UNL     1       1.208   7.328  19.898  0.00  0.00    +0.000 N 
ATOM      4  C   UNL     1       1.855   6.087  20.056  0.00  0.00    +0.000 A 
ATOM      5  C   UNL     1       1.502   5.248  21.117  0.00  0.00    +0.000 A 
ATOM      6  C   UNL     1       2.103   3.996  21.247  0.00  0.00    +0.000 A 
ATOM      7  C   UNL     1       3.079   3.695  20.299  0.00  0.00    +0.000 A 
ATOM      8  N   UNL     1       3.913   2.613  20.172  0.00  0.00    +0.000 N 
ATOM      9  C   UNL     1       4.760   2.793  19.113  0.00  0.00    +0.000 A 
ATOM     10  C   UNL     1       4.460   4.006  18.510  0.00  0.00    +0.000 A 
ATOM     11  C   UNL     1       3.375   4.569  19.255  0.00  0.00    +0.000 A 
ATOM     12  N   UNL     1       2.719   5.746  19.072  0.00  0.00    +0.000 NA
ATOM     13  H   UNL     1       1.121   7.593  18.933  0.00  0.00    +0.000 HD
ATOM     14  H   UNL     1       3.930   1.821  20.799  0.00  0.00    +0.000 HD
ENDROOT
BRANCH   1  21
ATOM     15  C   UNL     1      -0.495  10.134  22.714  0.00  0.00    +0.000 C 
ATOM     16  C   UNL     1      -0.033  10.523  21.338  0.00  0.00    +0.000 A 
ATOM     17  C   UNL     1      -0.412  11.811  20.888  0.00  0.00    +0.000 A 
ATOM     18  C   UNL     1      -0.029  12.292  19.639  0.00  0.00    +0.000 A 
ATOM     19  C   UNL     1       0.737  11.494  18.804  0.00  0.00    +0.000 A 
ATOM     20  C   UNL     1       1.127  10.217  19.231  0.00  0.00    +0.000 A 
ATOM     21  C   UNL     1       0.757   9.707  20.496  0.00  0.00    +0.000 A 
ENDBRANCH   1  21
BRANCH  10  22
ATOM     22  C   UNL     1       5.169   4.619  17.335  0.00  0.00    +0.000 C 
ATOM     23  C   UNL     1       4.687   4.043  15.998  0.00  0.00    +0.000 C 
ATOM     24  C   UNL     1       5.426   4.695  14.831  0.00  0.00    +0.000 C 
ATOM     25  N   UNL     1       6.882   4.541  14.961  0.00  0.00    +0.000 NA
ATOM     26  C   UNL     1       7.559   5.161  13.822  0.00  0.00    +0.000 C 
ATOM     27  C   UNL     1       7.374   5.115  16.223  0.00  0.00    +0.000 C 
ATOM     28  C   UNL     1       6.695   4.474  17.434  0.00  0.00    +0.000 C 
ENDBRANCH  10  22
TORSDOF 2
ENDMDL
MODEL 7
REMARK VINA RESULT:      -7.1      4.287      5.584
REMARK  Name = 
REMARK  4 active torsions:
REMARK  status: ('A' for Active; 'I' for Inactive)
REMARK    1  A    between atoms: C_1  and  C_2
REMARK    2  A    between atoms: C_7  and  C_8
REMARK    3  A    between atoms: C_17  and  C_18
REMARK    4  A    between atoms: N_21  and  C_22
REMARK                            x       y       z     vdW  Elec       q    Type
REMARK                         _______ _______ _______ _____ _____    ______ ____
ROOT
ATOM      1  C   UNL     1       1.467   8.894  18.445  0.00  0.00    +0.000 C 
ATOM      2  O   UNL     1       0.768   8.969  17.449  0.00  0.00    +0.000 OA
ATOM      3  N   UNL     1       1.452   9.827  19.486  0.00  0.00    +0.000 N 
ATOM      4  C   UNL     1       0.674  10.999  19.412  0.00  0.00    +0.000 A 
ATOM      5  C   UNL     1      -0.721  10.908  19.385  0.00  0.00    +0.000 A 
ATOM      6  C   UNL     1      -1.496  12.066  19.365  0.00  0.00    +0.000 A 
ATOM      7  C   UNL     1      -0.787  13.266  19.322  0.00  0.00    +0.000 A 
ATOM      8  N   UNL     1      -1.214  14.565  19.215  0.00  0.00    +0.000 N 
ATOM      9  C   UNL     1      -0.139  15.408  19.142  0.00  0.00    +0.000 A 
ATOM     10  C   UNL     1       1.021  14.653  19.232  0.00  0.00    +0.000 A 
ATOM     11  C   UNL     1       0.605  13.290  19.367  0.00  0.00    +0.000 A 
ATOM     12  N   UNL     1       1.358  12.164  19.486  0.00  0.00    +0.000 NA
ATOM     13  H   UNL     1       2.305   9.967  19.999  0.00  0.00    +0.000 HD
ATOM     14  H   UNL     1      -2.180  14.852  19.152  0.00  0.00    +0.000 HD
ENDROOT
BRANCH   1  21
ATOM     15  C   UNL     1       1.544   6.636  20.677  0.00  0.00    +0.000 C 
ATOM     16  C   UNL     1       2.486   6.726  19.511  0.00  0.00    +0.000 A 
ATOM     17  C   UNL     1       3.433   5.680  19.386  0.00  0.00    +0.000 A 
ATOM     18  C   UNL     1       4.347   5.643  18.336  0.00  0.00    +0.000 A 
ATOM     19  C   UNL     1       4.343   6.653  17.388  0.00  0.00    +0.000 A 
ATOM     20  C   UNL     1       3.412   7.696  17.491  0.00  0.00    +0.000 A 
ATOM     21  C   UNL     1       2.469   7.756  18.542  0.00  0.00    +0.000 A 
ENDBRANCH   1  21
BRANCH  10  22
ATOM     22  C   UNL     1       2.431  15.169  19.155  0.00  0.00    +0.000 C 
ATOM     23  C   UNL     1       3.160  14.689  17.894  0.00  0.00    +0.000 C 
ATOM     24  C   UNL     1       4.585  15.239  17.852  0.00  0.00    +0.000 C 
ATOM     25  N   UNL     1       5.342  14.869  19.056  0.00  0.00    +0.000 NA
ATOM     26  C   UNL     1       6.705  15.398  18.977  0.00  0.00    +0.000 C 
ATOM     27  C   UNL     1       4.678  15.348  20.279  0.00  0.00    +0.000 C 
ATOM     28  C   UNL     1       3.256  14.799  20.397  0.00  0.00    +0.000 C 
ENDBRANCH  10  22
TORSDOF 2
ENDMDL
MODEL 8
REMARK VINA RESULT:      -7.1      0.910      1.043
REMARK  Name = 
REMARK  4 active torsions:
REMARK  status: ('A' for Active; 'I' for Inactive)
REMARK    1  A    between atoms: C_1  and  C_2
REMARK    2  A    between atoms: C_7  and  C_8
REMARK    3  A    between atoms: C_17  and  C_18
REMARK    4  A    between atoms: N_21  and  C_22
REMARK                            x       y       z     vdW  Elec       q    Type
REMARK                         _______ _______ _______ _____ _____    ______ ____
ROOT
ATOM      1  C   UNL     1       2.079   6.254  19.869  0.00  0.00    +0.000 C 
ATOM      2  O   UNL     1       1.496   5.724  20.798  0.00  0.00    +0.000 OA
ATOM      3  N   UNL     1       2.128   7.636  19.660  0.00  0.00    +0.000 N 
ATOM      4  C   UNL     1       1.410   8.530  20.479  0.00  0.00    +0.000 A 
ATOM      5  C   UNL     1       1.744   8.655  21.831  0.00  0.00    +0.000 A 
ATOM      6  C   UNL     1       1.072   9.577  22.634  0.00  0.00    +0.000 A 
ATOM      7  C   UNL     1       0.049  10.287  22.008  0.00  0.00    +0.000 A 
ATOM      8  N   UNL     1      -0.853  11.196  22.501  0.00  0.00    +0.000 N 
ATOM      9  C   UNL     1      -1.721  11.580  21.515  0.00  0.00    +0.000 A 
ATOM     10  C   UNL     1      -1.365  10.934  20.339  0.00  0.00    +0.000 A 
ATOM     11  C   UNL     1      -0.225  10.128  20.652  0.00  0.00    +0.000 A 
ATOM     12  N   UNL     1       0.496   9.302  19.847  0.00  0.00    +0.000 NA
ATOM     13  H   UNL     1       2.200   7.962  18.713  0.00  0.00    +0.000 HD
ATOM     14  H   UNL     1      -0.899  11.499  23.463  0.00  0.00    +0.000 HD
ENDROOT
BRANCH   1  21
ATOM     15  C   UNL     1       1.069   3.401  18.907  0.00  0.00    +0.000 C 
ATOM     16  C   UNL     1       2.277   4.113  18.369  0.00  0.00    +0.000 A 
ATOM     17  C   UNL     1       2.967   3.470  17.312  0.00  0.00    +0.000 A 
ATOM     18  C   UNL     1       4.090   4.040  16.718  0.00  0.00    +0.000 A 
ATOM     19  C   UNL     1       4.557   5.264  17.170  0.00  0.00    +0.000 A 
ATOM     20  C   UNL     1       3.888   5.919  18.213  0.00  0.00    +0.000 A 
ATOM     21  C   UNL     1       2.742   5.367  18.829  0.00  0.00    +0.000 A 
ENDBRANCH   1  21
BRANCH  10  22
ATOM     22  C   UNL     1      -2.072  11.035  19.017  0.00  0.00    +0.000 C 
ATOM     23  C   UNL     1      -2.562   9.672  18.512  0.00  0.00    +0.000 C 
ATOM     24  C   UNL     1      -3.279   9.819  17.171  0.00  0.00    +0.000 C 
ATOM     25  N   UNL     1      -2.418  10.459  16.166  0.00  0.00    +0.000 NA
ATOM     26  C   UNL     1      -3.127  10.570  14.891  0.00  0.00    +0.000 C 
ATOM     27  C   UNL     1      -1.960  11.783  16.614  0.00  0.00    +0.000 C 
ATOM     28  C   UNL     1      -1.200  11.697  17.938  0.00  0.00    +0.000 C 
ENDBRANCH  10  22
TORSDOF 2
ENDMDL
MODEL 9
REMARK VINA RESULT:      -7.0      1.354      1.806
REMARK  Name = 
REMARK  4 active torsions:
REMARK  status: ('A' for Active; 'I' for Inactive)
REMARK    1  A    between atoms: C_1  and  C_2
REMARK    2  A    between atoms: C_7  and  C_8
REMARK    3  A    between atoms: C_17  and  C_18
REMARK    4  A    between atoms: N_21  and  C_22
REMARK                            x       y       z     vdW  Elec       q    Type
REMARK                         _______ _______ _______ _____ _____    ______ ____
ROOT
ATOM      1  C   UNL     1       2.435   7.164  19.027  0.00  0.00    +0.000 C 
ATOM      2  O   UNL     1       2.049   6.788  20.120  0.00  0.00    +0.000 OA
ATOM      3  N   UNL     1       2.128   8.411  18.473  0.00  0.00    +0.000 N 
ATOM      4  C   UNL     1       1.251   9.306  19.116  0.00  0.00    +0.000 A 
ATOM      5  C   UNL     1       1.609   9.867  20.346  0.00  0.00    +0.000 A 
ATOM      6  C   UNL     1       0.769  10.794  20.961  0.00  0.00    +0.000 A 
ATOM      7  C   UNL     1      -0.428  11.057  20.296  0.00  0.00    +0.000 A 
ATOM      8  N   UNL     1      -1.502  11.835  20.643  0.00  0.00    +0.000 N 
ATOM      9  C   UNL     1      -2.485  11.730  19.697  0.00  0.00    +0.000 A 
ATOM     10  C   UNL     1      -2.038  10.887  18.690  0.00  0.00    +0.000 A 
ATOM     11  C   UNL     1      -0.719  10.476  19.064  0.00  0.00    +0.000 A 
ATOM     12  N   UNL     1       0.145   9.649  18.418  0.00  0.00    +0.000 NA
ATOM     13  H   UNL     1       2.071   8.474  17.471  0.00  0.00    +0.000 HD
ATOM     14  H   UNL     1      -1.576  12.371  21.497  0.00  0.00    +0.000 HD
ENDROOT
BRANCH   1  21
ATOM     15  C   UNL     1       1.723   4.130  18.415  0.00  0.00    +0.000 C 
ATOM     16  C   UNL     1       2.916   4.862  17.868  0.00  0.00    +0.000 A 
ATOM     17  C   UNL     1       3.738   4.141  16.967  0.00  0.00    +0.000 A 
ATOM     18  C   UNL     1       4.861   4.717  16.380  0.00  0.00    +0.000 A 
ATOM     19  C   UNL     1       5.197   6.026  16.685  0.00  0.00    +0.000 A 
ATOM     20  C   UNL     1       4.396   6.759  17.571  0.00  0.00    +0.000 A 
ATOM     21  C   UNL     1       3.247   6.202  18.176  0.00  0.00    +0.000 A 
ENDBRANCH   1  21
BRANCH  10  22
ATOM     22  C   UNL     1      -2.811  10.461  17.473  0.00  0.00    +0.000 C 
ATOM     23  C   UNL     1      -1.903   9.903  16.371  0.00  0.00    +0.000 C 
ATOM     24  C   UNL     1      -2.726   9.477  15.157  0.00  0.00    +0.000 C 
ATOM     25  N   UNL     1      -3.539  10.587  14.639  0.00  0.00    +0.000 NA
ATOM     26  C   UNL     1      -4.302  10.151  13.470  0.00  0.00    +0.000 C 
ATOM     27  C   UNL     1      -4.443  11.119  15.670  0.00  0.00    +0.000 C 
ATOM     28  C   UNL     1      -3.671  11.598  16.901  0.00  0.00    +0.000 C 
ENDBRANCH  10  22
TORSDOF 2
ENDMDL
