MODEL 1
REMARK VINA RESULT:      -7.9      0.000      0.000
REMARK  Name = 
REMARK  9 active torsions:
REMARK  status: ('A' for Active; 'I' for Inactive)
REMARK    1  A    between atoms: C_1  and  C_2
REMARK    2  A    between atoms: C_2  and  C_3
REMARK    3  A    between atoms: C_2  and  C_4
REMARK    4  A    between atoms: C_7  and  S_8
REMARK    5  A    between atoms: S_8  and  N_11
REMARK    6  A    between atoms: C_14  and  N_15
REMARK    7  A    between atoms: N_15  and  C_16
REMARK    8  A    between atoms: C_16  and  C_17
REMARK    9  A    between atoms: C_16  and  C_23
REMARK                            x       y       z     vdW  Elec       q    Type
REMARK                         _______ _______ _______ _____ _____    ______ ____
ROOT
ATOM      1  N   UNL     1       0.764  10.942  19.726  0.00  0.00    +0.000 NA
ATOM      2  C   UNL     1       2.103  11.088  19.075  0.00  0.00    +0.000 C 
ATOM      3  C   UNL     1       2.156  10.419  17.704  0.00  0.00    +0.000 C 
ATOM      4  C   UNL     1       1.705   8.949  17.735  0.00  0.00    +0.000 C 
ATOM      5  C   UNL     1       0.274   8.950  18.280  0.00  0.00    +0.000 C 
ATOM      6  C   UNL     1       0.190   9.561  19.671  0.00  0.00    +0.000 C 
ENDROOT
BRANCH   1   7
ATOM      7  S   UNL     1       0.724  11.560  21.347  0.00  0.00    +0.000 S 
ATOM      8  O   UNL     1       1.461  12.807  21.349  0.00  0.00    +0.000 OA
ATOM      9  O   UNL     1       1.086  10.481  22.245  0.00  0.00    +0.000 OA
BRANCH   7  13
ATOM     10  C   UNL     1      -3.620  12.691  22.244  0.00  0.00    +0.000 A 
ATOM     11  C   UNL     1      -2.824  12.054  23.210  0.00  0.00    +0.000 A 
ATOM     12  C   UNL     1      -1.514  11.667  22.916  0.00  0.00    +0.000 A 
ATOM     13  C   UNL     1      -0.990  11.908  21.645  0.00  0.00    +0.000 A 
ATOM     14  C   UNL     1      -1.764  12.534  20.667  0.00  0.00    +0.000 A 
ATOM     15  C   UNL     1      -3.075  12.921  20.969  0.00  0.00    +0.000 A 
BRANCH  10  17
ATOM     16  C   UNL     1      -5.357  12.912  24.077  0.00  0.00    +0.000 C 
ATOM     17  C   UNL     1      -5.037  13.121  22.593  0.00  0.00    +0.000 C 
ATOM     18  C   UNL     1      -5.292  14.575  22.188  0.00  0.00    +0.000 C 
ENDBRANCH  10  17
ENDBRANCH   7  13
ENDBRANCH   1   7
BRANCH   4  19
ATOM     19  N   UNL     1       2.671   8.123  18.493  0.00  0.00    +0.000 NA
ATOM     20  H   UNL     1       2.337   8.002  19.450  0.00  0.00    +0.000 HD
BRANCH  19  21
ATOM     21  C   UNL     1       2.892   6.753  17.939  0.00  0.00    +0.000 C 
BRANCH  21  22
ATOM     22  C   UNL     1       2.327   5.683  18.875  0.00  0.00    +0.000 A 
ATOM     23  C   UNL     1       2.302   5.833  20.275  0.00  0.00    +0.000 A 
ATOM     24  C   UNL     1       1.757   4.836  21.088  0.00  0.00    +0.000 A 
ATOM     25  C   UNL     1       1.242   3.679  20.513  0.00  0.00    +0.000 A 
ATOM     26  F   UNL     1       0.717   2.731  21.298  0.00  0.00    +0.000 F 
ATOM     27  C   UNL     1       1.265   3.496  19.139  0.00  0.00    +0.000 A 
ATOM     28  C   UNL     1       1.807   4.495  18.335  0.00  0.00    +0.000 A 
ATOM     29  F   UNL     1       1.810   4.309  17.008  0.00  0.00    +0.000 F 
ENDBRANCH  21  22
BRANCH  21  30
ATOM     30  C   UNL     1       4.345   6.487  17.558  0.00  0.00    +0.000 A 
ATOM     31  C   UNL     1       4.838   6.831  16.301  0.00  0.00    +0.000 A 
ATOM     32  N   UNL     1       6.094   6.526  15.885  0.00  0.00    +0.000 NA
ATOM     33  C   UNL     1       6.849   5.857  16.782  0.00  0.00    +0.000 A 
ATOM     34  C   UNL     1       6.382   5.520  18.039  0.00  0.00    +0.000 A 
ATOM     35  N   UNL     1       5.128   5.816  18.452  0.00  0.00    +0.000 NA
ENDBRANCH  21  30
ENDBRANCH  19  21
ENDBRANCH   4  19
TORSDOF 7
ENDMDL
MODEL 2
REMARK VINA RESULT:      -7.5      4.150     10.213
REMARK  Name = 
REMARK  9 active torsions:
REMARK  status: ('A' for Active; 'I' for Inactive)
REMARK    1  A    between atoms: C_1  and  C_2
REMARK    2  A    between atoms: C_2  and  C_3
REMARK    3  A    between atoms: C_2  and  C_4
REMARK    4  A    between atoms: C_7  and  S_8
REMARK    5  A    between atoms: S_8  and  N_11
REMARK    6  A    between atoms: C_14  and  N_15
REMARK    7  A    between atoms: N_15  and  C_16
REMARK    8  A    between atoms: C_16  and  C_17
REMARK    9  A    between atoms: C_16  and  C_23
REMARK                            x       y       z     vdW  Elec       q    Type
REMARK                         _______ _______ _______ _____ _____    ______ ____
ROOT
ATOM      1  N   UNL     1       0.305  10.401  20.317  0.00  0.00    +0.000 NA
ATOM      2  C   UNL     1      -0.772  10.111  19.320  0.00  0.00    +0.000 C 
ATOM      3  C   UNL     1      -1.188  11.354  18.538  0.00  0.00    +0.000 C 
ATOM      4  C   UNL     1      -1.570  12.534  19.448  0.00  0.00    +0.000 C 
ATOM      5  C   UNL     1      -0.341  12.826  20.313  0.00  0.00    +0.000 C 
ATOM      6  C   UNL     1       0.073  11.623  21.148  0.00  0.00    +0.000 C 
ENDROOT
BRANCH   1   7
ATOM      7  S   UNL     1       0.688   9.039  21.322  0.00  0.00    +0.000 S 
ATOM      8  O   UNL     1      -0.565   8.403  21.677  0.00  0.00    +0.000 OA
ATOM      9  O   UNL     1       1.611   9.485  22.346  0.00  0.00    +0.000 OA
BRANCH   7  13
ATOM     10  C   UNL     1       2.803   6.125  18.495  0.00  0.00    +0.000 A 
ATOM     11  C   UNL     1       2.363   5.712  19.762  0.00  0.00    +0.000 A 
ATOM     12  C   UNL     1       1.760   6.616  20.641  0.00  0.00    +0.000 A 
ATOM     13  C   UNL     1       1.601   7.950  20.261  0.00  0.00    +0.000 A 
ATOM     14  C   UNL     1       2.038   8.385  19.008  0.00  0.00    +0.000 A 
ATOM     15  C   UNL     1       2.638   7.473  18.132  0.00  0.00    +0.000 A 
BRANCH  10  17
ATOM     16  C   UNL     1       4.757   5.630  16.958  0.00  0.00    +0.000 C 
ATOM     17  C   UNL     1       3.438   5.118  17.547  0.00  0.00    +0.000 C 
ATOM     18  C   UNL     1       3.643   3.765  18.232  0.00  0.00    +0.000 C 
ENDBRANCH  10  17
ENDBRANCH   7  13
ENDBRANCH   1   7
BRANCH   4  19
ATOM     19  N   UNL     1      -2.813  12.236  20.194  0.00  0.00    +0.000 NA
ATOM     20  H   UNL     1      -2.581  11.746  21.059  0.00  0.00    +0.000 HD
BRANCH  19  21
ATOM     21  C   UNL     1      -3.612  13.437  20.584  0.00  0.00    +0.000 C 
BRANCH  21  22
ATOM     22  C   UNL     1      -3.469  13.733  22.078  0.00  0.00    +0.000 A 
ATOM     23  C   UNL     1      -4.083  12.946  23.072  0.00  0.00    +0.000 A 
ATOM     24  C   UNL     1      -3.907  13.244  24.425  0.00  0.00    +0.000 A 
ATOM     25  C   UNL     1      -3.126  14.333  24.798  0.00  0.00    +0.000 A 
ATOM     26  F   UNL     1      -2.958  14.608  26.097  0.00  0.00    +0.000 F 
ATOM     27  C   UNL     1      -2.521  15.134  23.844  0.00  0.00    +0.000 A 
ATOM     28  C   UNL     1      -2.698  14.830  22.497  0.00  0.00    +0.000 A 
ATOM     29  F   UNL     1      -2.094  15.607  21.586  0.00  0.00    +0.000 F 
ENDBRANCH  21  22
BRANCH  21  30
ATOM     30  C   UNL     1      -5.069  13.358  20.141  0.00  0.00    +0.000 A 
ATOM     31  C   UNL     1      -5.882  14.490  20.119  0.00  0.00    +0.000 A 
ATOM     32  N   UNL     1      -7.206  14.449  19.825  0.00  0.00    +0.000 NA
ATOM     33  C   UNL     1      -7.697  13.221  19.551  0.00  0.00    +0.000 A 
ATOM     34  C   UNL     1      -6.903  12.089  19.553  0.00  0.00    +0.000 A 
ATOM     35  N   UNL     1      -5.583  12.127  19.854  0.00  0.00    +0.000 NA
ENDBRANCH  21  30
ENDBRANCH  19  21
ENDBRANCH   4  19
TORSDOF 7
ENDMDL
MODEL 3
REMARK VINA RESULT:      -7.4      4.076      9.487
REMARK  Name = 
REMARK  9 active torsions:
REMARK  status: ('A' for Active; 'I' for Inactive)
REMARK    1  A    between atoms: C_1  and  C_2
REMARK    2  A    between atoms: C_2  and  C_3
REMARK    3  A    between atoms: C_2  and  C_4
REMARK    4  A    between atoms: C_7  and  S_8
REMARK    5  A    between atoms: S_8  and  N_11
REMARK    6  A    between atoms: C_14  and  N_15
REMARK    7  A    between atoms: N_15  and  C_16
REMARK    8  A    between atoms: C_16  and  C_17
REMARK    9  A    between atoms: C_16  and  C_23
REMARK                            x       y       z     vdW  Elec       q    Type
REMARK                         _______ _______ _______ _____ _____    ______ ____
ROOT
ATOM      1  N   UNL     1       2.186   7.052  20.127  0.00  0.00    +0.000 NA
ATOM      2  C   UNL     1       2.032   7.681  18.779  0.00  0.00    +0.000 C 
ATOM      3  C   UNL     1       1.962   9.204  18.855  0.00  0.00    +0.000 C 
ATOM      4  C   UNL     1       0.888   9.706  19.834  0.00  0.00    +0.000 C 
ATOM      5  C   UNL     1       1.239   9.113  21.201  0.00  0.00    +0.000 C 
ATOM      6  C   UNL     1       1.267   7.592  21.177  0.00  0.00    +0.000 C 
ENDROOT
BRANCH   1   7
ATOM      7  S   UNL     1       2.115   5.318  20.081  0.00  0.00    +0.000 S 
ATOM      8  O   UNL     1       0.827   4.956  19.525  0.00  0.00    +0.000 OA
ATOM      9  O   UNL     1       2.532   4.820  21.377  0.00  0.00    +0.000 OA
BRANCH   7  13
ATOM     10  C   UNL     1       5.347   4.361  16.983  0.00  0.00    +0.000 A 
ATOM     11  C   UNL     1       3.991   4.116  16.714  0.00  0.00    +0.000 A 
ATOM     12  C   UNL     1       3.012   4.364  17.680  0.00  0.00    +0.000 A 
ATOM     13  C   UNL     1       3.385   4.854  18.933  0.00  0.00    +0.000 A 
ATOM     14  C   UNL     1       4.727   5.099  19.226  0.00  0.00    +0.000 A 
ATOM     15  C   UNL     1       5.702   4.849  18.253  0.00  0.00    +0.000 A 
BRANCH  10  17
ATOM     16  C   UNL     1       5.762   3.856  14.535  0.00  0.00    +0.000 C 
ATOM     17  C   UNL     1       6.393   4.101  15.909  0.00  0.00    +0.000 C 
ATOM     18  C   UNL     1       7.411   5.241  15.839  0.00  0.00    +0.000 C 
ENDBRANCH  10  17
ENDBRANCH   7  13
ENDBRANCH   1   7
BRANCH   4  19
ATOM     19  N   UNL     1      -0.467   9.383  19.333  0.00  0.00    +0.000 NA
ATOM     20  H   UNL     1      -0.902   8.695  19.949  0.00  0.00    +0.000 HD
BRANCH  19  21
ATOM     21  C   UNL     1      -1.402  10.545  19.261  0.00  0.00    +0.000 C 
BRANCH  21  22
ATOM     22  C   UNL     1      -2.191  10.538  17.951  0.00  0.00    +0.000 A 
ATOM     23  C   UNL     1      -1.791   9.790  16.826  0.00  0.00    +0.000 A 
ATOM     24  C   UNL     1      -2.556   9.799  15.657  0.00  0.00    +0.000 A 
ATOM     25  C   UNL     1      -3.718  10.559  15.596  0.00  0.00    +0.000 A 
ATOM     26  F   UNL     1      -4.448  10.558  14.474  0.00  0.00    +0.000 F 
ATOM     27  C   UNL     1      -4.130  11.317  16.681  0.00  0.00    +0.000 A 
ATOM     28  C   UNL     1      -3.366  11.301  17.844  0.00  0.00    +0.000 A 
ATOM     29  F   UNL     1      -3.785  12.028  18.889  0.00  0.00    +0.000 F 
ENDBRANCH  21  22
BRANCH  21  30
ATOM     30  C   UNL     1      -0.718  11.883  19.524  0.00  0.00    +0.000 A 
ATOM     31  C   UNL     1      -0.815  12.515  20.762  0.00  0.00    +0.000 A 
ATOM     32  N   UNL     1      -0.305  13.749  21.008  0.00  0.00    +0.000 NA
ATOM     33  C   UNL     1       0.313  14.336  19.962  0.00  0.00    +0.000 A 
ATOM     34  C   UNL     1       0.432  13.718  18.730  0.00  0.00    +0.000 A 
ATOM     35  N   UNL     1      -0.083  12.491  18.480  0.00  0.00    +0.000 NA
ENDBRANCH  21  30
ENDBRANCH  19  21
ENDBRANCH   4  19
TORSDOF 7
ENDMDL
MODEL 4
REMARK VINA RESULT:      -7.4      4.374     10.425
REMARK  Name = 
REMARK  9 active torsions:
REMARK  status: ('A' for Active; 'I' for Inactive)
REMARK    1  A    between atoms: C_1  and  C_2
REMARK    2  A    between atoms: C_2  and  C_3
REMARK    3  A    between atoms: C_2  and  C_4
REMARK    4  A    between atoms: C_7  and  S_8
REMARK    5  A    between atoms: S_8  and  N_11
REMARK    6  A    between atoms: C_14  and  N_15
REMARK    7  A    between atoms: N_15  and  C_16
REMARK    8  A    between atoms: C_16  and  C_17
REMARK    9  A    between atoms: C_16  and  C_23
REMARK                            x       y       z     vdW  Elec       q    Type
REMARK                         _______ _______ _______ _____ _____    ______ ____
ROOT
ATOM      1  N   UNL     1       0.306  10.348  20.300  0.00  0.00    +0.000 NA
ATOM      2  C   UNL     1      -0.988  10.186  19.569  0.00  0.00    +0.000 C 
ATOM      3  C   UNL     1      -1.441  11.481  18.898  0.00  0.00    +0.000 C 
ATOM      4  C   UNL     1      -1.490  12.673  19.869  0.00  0.00    +0.000 C 
ATOM      5  C   UNL     1      -0.077  12.825  20.436  0.00  0.00    +0.000 C 
ATOM      6  C   UNL     1       0.389  11.570  21.160  0.00  0.00    +0.000 C 
ENDROOT
BRANCH   1   7
ATOM      7  S   UNL     1       0.764   8.934  21.196  0.00  0.00    +0.000 S 
ATOM      8  O   UNL     1      -0.457   8.252  21.573  0.00  0.00    +0.000 OA
ATOM      9  O   UNL     1       1.732   9.334  22.197  0.00  0.00    +0.000 OA
BRANCH   7  13
ATOM     10  C   UNL     1       3.261   6.471  18.253  0.00  0.00    +0.000 A 
ATOM     11  C   UNL     1       2.861   7.781  17.943  0.00  0.00    +0.000 A 
ATOM     12  C   UNL     1       2.059   8.513  18.823  0.00  0.00    +0.000 A 
ATOM     13  C   UNL     1       1.640   7.933  20.022  0.00  0.00    +0.000 A 
ATOM     14  C   UNL     1       2.018   6.629  20.348  0.00  0.00    +0.000 A 
ATOM     15  C   UNL     1       2.824   5.903  19.463  0.00  0.00    +0.000 A 
BRANCH  10  17
ATOM     16  C   UNL     1       4.952   6.632  16.373  0.00  0.00    +0.000 C 
ATOM     17  C   UNL     1       4.150   5.701  17.288  0.00  0.00    +0.000 C 
ATOM     18  C   UNL     1       5.083   4.746  18.036  0.00  0.00    +0.000 C 
ENDBRANCH  10  17
ENDBRANCH   7  13
ENDBRANCH   1   7
BRANCH   4  19
ATOM     19  N   UNL     1      -2.560  12.483  20.875  0.00  0.00    +0.000 NA
ATOM     20  H   UNL     1      -2.206  12.733  21.799  0.00  0.00    +0.000 HD
BRANCH  19  21
ATOM     21  C   UNL     1      -3.785  13.307  20.648  0.00  0.00    +0.000 C 
BRANCH  21  22
ATOM     22  C   UNL     1      -4.104  14.169  21.871  0.00  0.00    +0.000 A 
ATOM     23  C   UNL     1      -3.685  13.827  23.172  0.00  0.00    +0.000 A 
ATOM     24  C   UNL     1      -3.983  14.657  24.257  0.00  0.00    +0.000 A 
ATOM     25  C   UNL     1      -4.707  15.826  24.054  0.00  0.00    +0.000 A 
ATOM     26  F   UNL     1      -4.984  16.618  25.097  0.00  0.00    +0.000 F 
ATOM     27  C   UNL     1      -5.145  16.182  22.788  0.00  0.00    +0.000 A 
ATOM     28  C   UNL     1      -4.843  15.353  21.712  0.00  0.00    +0.000 A 
ATOM     29  F   UNL     1      -5.261  15.718  20.492  0.00  0.00    +0.000 F 
ENDBRANCH  21  22
BRANCH  21  30
ATOM     30  C   UNL     1      -4.984  12.485  20.184  0.00  0.00    +0.000 A 
ATOM     31  C   UNL     1      -5.206  12.229  18.833  0.00  0.00    +0.000 A 
ATOM     32  N   UNL     1      -6.309  11.587  18.370  0.00  0.00    +0.000 NA
ATOM     33  C   UNL     1      -7.193  11.205  19.316  0.00  0.00    +0.000 A 
ATOM     34  C   UNL     1      -6.982  11.438  20.663  0.00  0.00    +0.000 A 
ATOM     35  N   UNL     1      -5.886  12.085  21.126  0.00  0.00    +0.000 NA
ENDBRANCH  21  30
ENDBRANCH  19  21
ENDBRANCH   4  19
TORSDOF 7
ENDMDL
MODEL 5
REMARK VINA RESULT:      -7.4      4.012      9.561
REMARK  Name = 
REMARK  9 active torsions:
REMARK  status: ('A' for Active; 'I' for Inactive)
REMARK    1  A    between atoms: C_1  and  C_2
REMARK    2  A    between atoms: C_2  and  C_3
REMARK    3  A    between atoms: C_2  and  C_4
REMARK    4  A    between atoms: C_7  and  S_8
REMARK    5  A    between atoms: S_8  and  N_11
REMARK    6  A    between atoms: C_14  and  N_15
REMARK    7  A    between atoms: N_15  and  C_16
REMARK    8  A    between atoms: C_16  and  C_17
REMARK    9  A    between atoms: C_16  and  C_23
REMARK                            x       y       z     vdW  Elec       q    Type
REMARK                         _______ _______ _______ _____ _____    ______ ____
ROOT
ATOM      1  N   UNL     1       2.314   7.561  19.560  0.00  0.00    +0.000 NA
ATOM      2  C   UNL     1       1.877   8.288  18.329  0.00  0.00    +0.000 C 
ATOM      3  C   UNL     1       1.671   9.780  18.579  0.00  0.00    +0.000 C 
ATOM      4  C   UNL     1       0.730  10.065  19.762  0.00  0.00    +0.000 C 
ATOM      5  C   UNL     1       1.360   9.394  20.985  0.00  0.00    +0.000 C 
ATOM      6  C   UNL     1       1.533   7.894  20.792  0.00  0.00    +0.000 C 
ENDROOT
BRANCH   1   7
ATOM      7  S   UNL     1       2.408   5.842  19.339  0.00  0.00    +0.000 S 
ATOM      8  O   UNL     1       1.109   5.398  18.874  0.00  0.00    +0.000 OA
ATOM      9  O   UNL     1       3.006   5.271  20.529  0.00  0.00    +0.000 OA
BRANCH   7  13
ATOM     10  C   UNL     1       5.239   5.284  15.786  0.00  0.00    +0.000 A 
ATOM     11  C   UNL     1       4.597   4.185  16.378  0.00  0.00    +0.000 A 
ATOM     12  C   UNL     1       3.771   4.354  17.493  0.00  0.00    +0.000 A 
ATOM     13  C   UNL     1       3.587   5.629  18.032  0.00  0.00    +0.000 A 
ATOM     14  C   UNL     1       4.221   6.735  17.464  0.00  0.00    +0.000 A 
ATOM     15  C   UNL     1       5.046   6.559  16.347  0.00  0.00    +0.000 A 
BRANCH  10  17
ATOM     16  C   UNL     1       7.598   4.931  14.930  0.00  0.00    +0.000 C 
ATOM     17  C   UNL     1       6.118   5.079  14.561  0.00  0.00    +0.000 C 
ATOM     18  C   UNL     1       5.647   3.881  13.734  0.00  0.00    +0.000 C 
ENDBRANCH  10  17
ENDBRANCH   7  13
ENDBRANCH   1   7
BRANCH   4  19
ATOM     19  N   UNL     1      -0.651   9.635  19.445  0.00  0.00    +0.000 NA
ATOM     20  H   UNL     1      -1.012   9.062  20.208  0.00  0.00    +0.000 HD
BRANCH  19  21
ATOM     21  C   UNL     1      -1.625  10.750  19.248  0.00  0.00    +0.000 C 
BRANCH  21  22
ATOM     22  C   UNL     1      -2.335  10.631  17.899  0.00  0.00    +0.000 A 
ATOM     23  C   UNL     1      -1.826   9.857  16.837  0.00  0.00    +0.000 A 
ATOM     24  C   UNL     1      -2.521   9.762  15.629  0.00  0.00    +0.000 A 
ATOM     25  C   UNL     1      -3.722  10.444  15.467  0.00  0.00    +0.000 A 
ATOM     26  F   UNL     1      -4.384  10.344  14.308  0.00  0.00    +0.000 F 
ATOM     27  C   UNL     1      -4.240  11.225  16.487  0.00  0.00    +0.000 A 
ATOM     28  C   UNL     1      -3.545  11.313  17.689  0.00  0.00    +0.000 A 
ATOM     29  F   UNL     1      -4.067  12.061  18.671  0.00  0.00    +0.000 F 
ENDBRANCH  21  22
BRANCH  21  30
ATOM     30  C   UNL     1      -1.009  12.129  19.465  0.00  0.00    +0.000 A 
ATOM     31  C   UNL     1      -1.099  12.777  20.695  0.00  0.00    +0.000 A 
ATOM     32  N   UNL     1      -0.652  14.042  20.904  0.00  0.00    +0.000 NA
ATOM     33  C   UNL     1      -0.105  14.644  19.826  0.00  0.00    +0.000 A 
ATOM     34  C   UNL     1       0.006  14.012  18.601  0.00  0.00    +0.000 A 
ATOM     35  N   UNL     1      -0.447  12.753  18.390  0.00  0.00    +0.000 NA
ENDBRANCH  21  30
ENDBRANCH  19  21
ENDBRANCH   4  19
TORSDOF 7
ENDMDL
MODEL 6
REMARK VINA RESULT:      -7.4      5.419      6.666
REMARK  Name = 
REMARK  9 active torsions:
REMARK  status: ('A' for Active; 'I' for Inactive)
REMARK    1  A    between atoms: C_1  and  C_2
REMARK    2  A    between atoms: C_2  and  C_3
REMARK    3  A    between atoms: C_2  and  C_4
REMARK    4  A    between atoms: C_7  and  S_8
REMARK    5  A    between atoms: S_8  and  N_11
REMARK    6  A    between atoms: C_14  and  N_15
REMARK    7  A    between atoms: N_15  and  C_16
REMARK    8  A    between atoms: C_16  and  C_17
REMARK    9  A    between atoms: C_16  and  C_23
REMARK                            x       y       z     vdW  Elec       q    Type
REMARK                         _______ _______ _______ _____ _____    ______ ____
ROOT
ATOM      1  N   UNL     1      -5.087  10.718  17.551  0.00  0.00    +0.000 NA
ATOM      2  C   UNL     1      -4.516  11.768  16.652  0.00  0.00    +0.000 C 
ATOM      3  C   UNL     1      -3.173  11.354  16.058  0.00  0.00    +0.000 C 
ATOM      4  C   UNL     1      -2.155  10.916  17.124  0.00  0.00    +0.000 C 
ATOM      5  C   UNL     1      -2.795   9.747  17.876  0.00  0.00    +0.000 C 
ATOM      6  C   UNL     1      -4.114  10.137  18.528  0.00  0.00    +0.000 C 
ENDROOT
BRANCH   1   7
ATOM      7  S   UNL     1      -6.538  11.225  18.357  0.00  0.00    +0.000 S 
ATOM      8  O   UNL     1      -7.204  10.031  18.832  0.00  0.00    +0.000 OA
ATOM      9  O   UNL     1      -7.223  12.165  17.492  0.00  0.00    +0.000 OA
BRANCH   7  13
ATOM     10  C   UNL     1      -4.914  13.399  22.044  0.00  0.00    +0.000 A 
ATOM     11  C   UNL     1      -6.029  12.551  22.137  0.00  0.00    +0.000 A 
ATOM     12  C   UNL     1      -6.551  11.927  21.001  0.00  0.00    +0.000 A 
ATOM     13  C   UNL     1      -5.964  12.155  19.754  0.00  0.00    +0.000 A 
ATOM     14  C   UNL     1      -4.860  13.000  19.637  0.00  0.00    +0.000 A 
ATOM     15  C   UNL     1      -4.341  13.620  20.779  0.00  0.00    +0.000 A 
BRANCH  10  17
ATOM     16  C   UNL     1      -2.901  14.509  23.111  0.00  0.00    +0.000 C 
ATOM     17  C   UNL     1      -4.351  14.052  23.298  0.00  0.00    +0.000 C 
ATOM     18  C   UNL     1      -5.228  15.219  23.757  0.00  0.00    +0.000 C 
ENDBRANCH  10  17
ENDBRANCH   7  13
ENDBRANCH   1   7
BRANCH   4  19
ATOM     19  N   UNL     1      -1.753  12.066  17.966  0.00  0.00    +0.000 NA
ATOM     20  H   UNL     1      -2.401  12.156  18.750  0.00  0.00    +0.000 HD
BRANCH  19  21
ATOM     21  C   UNL     1      -0.383  11.965  18.551  0.00  0.00    +0.000 C 
BRANCH  21  22
ATOM     22  C   UNL     1      -0.424  11.339  19.946  0.00  0.00    +0.000 A 
ATOM     23  C   UNL     1      -1.075  11.950  21.035  0.00  0.00    +0.000 A 
ATOM     24  C   UNL     1      -1.103  11.330  22.287  0.00  0.00    +0.000 A 
ATOM     25  C   UNL     1      -0.474  10.103  22.465  0.00  0.00    +0.000 A 
ATOM     26  F   UNL     1      -0.510   9.513  23.666  0.00  0.00    +0.000 F 
ATOM     27  C   UNL     1       0.188   9.483  21.417  0.00  0.00    +0.000 A 
ATOM     28  C   UNL     1       0.209  10.105  20.171  0.00  0.00    +0.000 A 
ATOM     29  F   UNL     1       0.841   9.486  19.164  0.00  0.00    +0.000 F 
ENDBRANCH  21  22
BRANCH  21  30
ATOM     30  C   UNL     1       0.380  13.286  18.525  0.00  0.00    +0.000 A 
ATOM     31  C   UNL     1       1.769  13.318  18.423  0.00  0.00    +0.000 A 
ATOM     32  N   UNL     1       2.493  14.464  18.494  0.00  0.00    +0.000 NA
ATOM     33  C   UNL     1       1.772  15.591  18.673  0.00  0.00    +0.000 A 
ATOM     34  C   UNL     1       0.391  15.580  18.761  0.00  0.00    +0.000 A 
ATOM     35  N   UNL     1      -0.331  14.437  18.699  0.00  0.00    +0.000 NA
ENDBRANCH  21  30
ENDBRANCH  19  21
ENDBRANCH   4  19
TORSDOF 7
ENDMDL
MODEL 7
REMARK VINA RESULT:      -7.4      0.868      1.454
REMARK  Name = 
REMARK  9 active torsions:
REMARK  status: ('A' for Active; 'I' for Inactive)
REMARK    1  A    between atoms: C_1  and  C_2
REMARK    2  A    between atoms: C_2  and  C_3
REMARK    3  A    between atoms: C_2  and  C_4
REMARK    4  A    between atoms: C_7  and  S_8
REMARK    5  A    between atoms: S_8  and  N_11
REMARK    6  A    between atoms: C_14  and  N_15
REMARK    7  A    between atoms: N_15  and  C_16
REMARK    8  A    between atoms: C_16  and  C_17
REMARK    9  A    between atoms: C_16  and  C_23
REMARK                            x       y       z     vdW  Elec       q    Type
REMARK                         _______ _______ _______ _____ _____    ______ ____
ROOT
ATOM      1  N   UNL     1       0.789  10.887  19.694  0.00  0.00    +0.000 NA
ATOM      2  C   UNL     1       2.076  11.118  18.967  0.00  0.00    +0.000 C 
ATOM      3  C   UNL     1       2.095  10.448  17.596  0.00  0.00    +0.000 C 
ATOM      4  C   UNL     1       1.746   8.951  17.655  0.00  0.00    +0.000 C 
ATOM      5  C   UNL     1       0.352   8.859  18.281  0.00  0.00    +0.000 C 
ATOM      6  C   UNL     1       0.306   9.471  19.674  0.00  0.00    +0.000 C 
ENDROOT
BRANCH   1   7
ATOM      7  S   UNL     1       0.800  11.509  21.314  0.00  0.00    +0.000 S 
ATOM      8  O   UNL     1       1.666  12.671  21.320  0.00  0.00    +0.000 OA
ATOM      9  O   UNL     1       1.037  10.401  22.217  0.00  0.00    +0.000 OA
BRANCH   7  13
ATOM     10  C   UNL     1      -3.594  12.627  21.945  0.00  0.00    +0.000 A 
ATOM     11  C   UNL     1      -2.992  12.745  20.682  0.00  0.00    +0.000 A 
ATOM     12  C   UNL     1      -1.638  12.449  20.503  0.00  0.00    +0.000 A 
ATOM     13  C   UNL     1      -0.869  12.038  21.595  0.00  0.00    +0.000 A 
ATOM     14  C   UNL     1      -1.445  11.921  22.861  0.00  0.00    +0.000 A 
ATOM     15  C   UNL     1      -2.802  12.218  23.032  0.00  0.00    +0.000 A 
BRANCH  10  17
ATOM     16  C   UNL     1      -5.495  12.978  23.584  0.00  0.00    +0.000 C 
ATOM     17  C   UNL     1      -5.074  12.937  22.111  0.00  0.00    +0.000 C 
ATOM     18  C   UNL     1      -5.451  14.242  21.407  0.00  0.00    +0.000 C 
ENDBRANCH  10  17
ENDBRANCH   7  13
ENDBRANCH   1   7
BRANCH   4  19
ATOM     19  N   UNL     1       2.807   8.195  18.358  0.00  0.00    +0.000 NA
ATOM     20  H   UNL     1       2.528   8.038  19.327  0.00  0.00    +0.000 HD
BRANCH  19  21
ATOM     21  C   UNL     1       3.108   6.852  17.777  0.00  0.00    +0.000 C 
BRANCH  21  22
ATOM     22  C   UNL     1       2.363   5.747  18.527  0.00  0.00    +0.000 A 
ATOM     23  C   UNL     1       1.904   4.575  17.896  0.00  0.00    +0.000 A 
ATOM     24  C   UNL     1       1.245   3.583  18.627  0.00  0.00    +0.000 A 
ATOM     25  C   UNL     1       1.030   3.757  19.990  0.00  0.00    +0.000 A 
ATOM     26  F   UNL     1       0.403   2.800  20.685  0.00  0.00    +0.000 F 
ATOM     27  C   UNL     1       1.456   4.906  20.637  0.00  0.00    +0.000 A 
ATOM     28  C   UNL     1       2.115   5.888  19.903  0.00  0.00    +0.000 A 
ATOM     29  F   UNL     1       2.534   6.987  20.546  0.00  0.00    +0.000 F 
ENDBRANCH  21  22
BRANCH  21  30
ATOM     30  C   UNL     1       4.603   6.571  17.656  0.00  0.00    +0.000 A 
ATOM     31  C   UNL     1       5.323   6.958  16.528  0.00  0.00    +0.000 A 
ATOM     32  N   UNL     1       6.630   6.643  16.337  0.00  0.00    +0.000 NA
ATOM     33  C   UNL     1       7.198   5.920  17.326  0.00  0.00    +0.000 A 
ATOM     34  C   UNL     1       6.503   5.540  18.459  0.00  0.00    +0.000 A 
ATOM     35  N   UNL     1       5.198   5.846  18.647  0.00  0.00    +0.000 NA
ENDBRANCH  21  30
ENDBRANCH  19  21
ENDBRANCH   4  19
TORSDOF 7
ENDMDL
MODEL 8
REMARK VINA RESULT:      -7.4      4.972      6.212
REMARK  Name = 
REMARK  9 active torsions:
REMARK  status: ('A' for Active; 'I' for Inactive)
REMARK    1  A    between atoms: C_1  and  C_2
REMARK    2  A    between atoms: C_2  and  C_3
REMARK    3  A    between atoms: C_2  and  C_4
REMARK    4  A    between atoms: C_7  and  S_8
REMARK    5  A    between atoms: S_8  and  N_11
REMARK    6  A    between atoms: C_14  and  N_15
REMARK    7  A    between atoms: N_15  and  C_16
REMARK    8  A    between atoms: C_16  and  C_17
REMARK    9  A    between atoms: C_16  and  C_23
REMARK                            x       y       z     vdW  Elec       q    Type
REMARK                         _______ _______ _______ _____ _____    ______ ____
ROOT
ATOM      1  N   UNL     1      -4.676  10.849  17.434  0.00  0.00    +0.000 NA
ATOM      2  C   UNL     1      -3.914  11.717  16.484  0.00  0.00    +0.000 C 
ATOM      3  C   UNL     1      -2.617  11.063  16.015  0.00  0.00    +0.000 C 
ATOM      4  C   UNL     1      -1.729  10.590  17.179  0.00  0.00    +0.000 C 
ATOM      5  C   UNL     1      -2.571   9.600  17.988  0.00  0.00    +0.000 C 
ATOM      6  C   UNL     1      -3.849  10.233  18.518  0.00  0.00    +0.000 C 
ENDROOT
BRANCH   1   7
ATOM      7  S   UNL     1      -6.076  11.631  18.098  0.00  0.00    +0.000 S 
ATOM      8  O   UNL     1      -7.122  10.633  18.190  0.00  0.00    +0.000 OA
ATOM      9  O   UNL     1      -6.287  12.865  17.367  0.00  0.00    +0.000 OA
BRANCH   7  13
ATOM     10  C   UNL     1      -4.887  13.094  22.270  0.00  0.00    +0.000 A 
ATOM     11  C   UNL     1      -4.022  13.251  21.174  0.00  0.00    +0.000 A 
ATOM     12  C   UNL     1      -4.369  12.761  19.913  0.00  0.00    +0.000 A 
ATOM     13  C   UNL     1      -5.585  12.097  19.738  0.00  0.00    +0.000 A 
ATOM     14  C   UNL     1      -6.456  11.923  20.814  0.00  0.00    +0.000 A 
ATOM     15  C   UNL     1      -6.104  12.419  22.074  0.00  0.00    +0.000 A 
BRANCH  10  17
ATOM     16  C   UNL     1      -4.363  12.556  24.690  0.00  0.00    +0.000 C 
ATOM     17  C   UNL     1      -4.497  13.654  23.630  0.00  0.00    +0.000 C 
ATOM     18  C   UNL     1      -3.211  14.479  23.543  0.00  0.00    +0.000 C 
ENDBRANCH  10  17
ENDBRANCH   7  13
ENDBRANCH   1   7
BRANCH   4  19
ATOM     19  N   UNL     1      -1.207  11.748  17.940  0.00  0.00    +0.000 NA
ATOM     20  H   UNL     1      -1.863  11.990  18.683  0.00  0.00    +0.000 HD
BRANCH  19  21
ATOM     21  C   UNL     1       0.117  11.520  18.594  0.00  0.00    +0.000 C 
BRANCH  21  22
ATOM     22  C   UNL     1      -0.054  10.923  19.992  0.00  0.00    +0.000 A 
ATOM     23  C   UNL     1      -0.734  11.594  21.027  0.00  0.00    +0.000 A 
ATOM     24  C   UNL     1      -0.882  11.000  22.283  0.00  0.00    +0.000 A 
ATOM     25  C   UNL     1      -0.347   9.738  22.518  0.00  0.00    +0.000 A 
ATOM     26  F   UNL     1      -0.497   9.173  23.722  0.00  0.00    +0.000 F 
ATOM     27  C   UNL     1       0.340   9.060  21.525  0.00  0.00    +0.000 A 
ATOM     28  C   UNL     1       0.482   9.656  20.275  0.00  0.00    +0.000 A 
ATOM     29  F   UNL     1       1.136   8.981  19.320  0.00  0.00    +0.000 F 
ENDBRANCH  21  22
BRANCH  21  30
ATOM     30  C   UNL     1       1.008  12.759  18.592  0.00  0.00    +0.000 A 
ATOM     31  C   UNL     1       0.471  14.037  18.726  0.00  0.00    +0.000 A 
ATOM     32  N   UNL     1       1.214  15.169  18.633  0.00  0.00    +0.000 NA
ATOM     33  C   UNL     1       2.530  14.976  18.398  0.00  0.00    +0.000 A 
ATOM     34  C   UNL     1       3.083  13.714  18.277  0.00  0.00    +0.000 A 
ATOM     35  N   UNL     1       2.342  12.585  18.362  0.00  0.00    +0.000 NA
ENDBRANCH  21  30
ENDBRANCH  19  21
ENDBRANCH   4  19
TORSDOF 7
ENDMDL
MODEL 9
REMARK VINA RESULT:      -7.3      4.145     10.110
REMARK  Name = 
REMARK  9 active torsions:
REMARK  status: ('A' for Active; 'I' for Inactive)
REMARK    1  A    between atoms: C_1  and  C_2
REMARK    2  A    between atoms: C_2  and  C_3
REMARK    3  A    between atoms: C_2  and  C_4
REMARK    4  A    between atoms: C_7  and  S_8
REMARK    5  A    between atoms: S_8  and  N_11
REMARK    6  A    between atoms: C_14  and  N_15
REMARK    7  A    between atoms: N_15  and  C_16
REMARK    8  A    between atoms: C_16  and  C_17
REMARK    9  A    between atoms: C_16  and  C_23
REMARK                            x       y       z     vdW  Elec       q    Type
REMARK                         _______ _______ _______ _____ _____    ______ ____
ROOT
ATOM      1  N   UNL     1       0.250  10.222  20.294  0.00  0.00    +0.000 NA
ATOM      2  C   UNL     1      -0.803   9.843  19.302  0.00  0.00    +0.000 C 
ATOM      3  C   UNL     1      -1.228  11.020  18.429  0.00  0.00    +0.000 C 
ATOM      4  C   UNL     1      -1.648  12.253  19.248  0.00  0.00    +0.000 C 
ATOM      5  C   UNL     1      -0.440  12.629  20.110  0.00  0.00    +0.000 C 
ATOM      6  C   UNL     1      -0.019  11.495  21.034  0.00  0.00    +0.000 C 
ENDROOT
BRANCH   1   7
ATOM      7  S   UNL     1       0.640   8.941  21.398  0.00  0.00    +0.000 S 
ATOM      8  O   UNL     1      -0.607   8.306  21.775  0.00  0.00    +0.000 OA
ATOM      9  O   UNL     1       1.536   9.475  22.404  0.00  0.00    +0.000 OA
BRANCH   7  13
ATOM     10  C   UNL     1       2.862   5.891  18.806  0.00  0.00    +0.000 A 
ATOM     11  C   UNL     1       2.352   5.536  20.065  0.00  0.00    +0.000 A 
ATOM     12  C   UNL     1       1.717   6.482  20.874  0.00  0.00    +0.000 A 
ATOM     13  C   UNL     1       1.593   7.800  20.431  0.00  0.00    +0.000 A 
ATOM     14  C   UNL     1       2.099   8.178  19.186  0.00  0.00    +0.000 A 
ATOM     15  C   UNL     1       2.732   7.225  18.380  0.00  0.00    +0.000 A 
BRANCH  10  17
ATOM     16  C   UNL     1       2.515   3.921  17.250  0.00  0.00    +0.000 C 
ATOM     17  C   UNL     1       3.532   4.840  17.934  0.00  0.00    +0.000 C 
ATOM     18  C   UNL     1       4.457   5.484  16.899  0.00  0.00    +0.000 C 
ENDBRANCH  10  17
ENDBRANCH   7  13
ENDBRANCH   1   7
BRANCH   4  19
ATOM     19  N   UNL     1      -2.898  11.984  19.993  0.00  0.00    +0.000 NA
ATOM     20  H   UNL     1      -2.677  11.505  20.867  0.00  0.00    +0.000 HD
BRANCH  19  21
ATOM     21  C   UNL     1      -3.684  13.201  20.357  0.00  0.00    +0.000 C 
BRANCH  21  22
ATOM     22  C   UNL     1      -3.537  13.526  21.845  0.00  0.00    +0.000 A 
ATOM     23  C   UNL     1      -3.930  12.634  22.861  0.00  0.00    +0.000 A 
ATOM     24  C   UNL     1      -3.757  12.968  24.207  0.00  0.00    +0.000 A 
ATOM     25  C   UNL     1      -3.201  14.196  24.549  0.00  0.00    +0.000 A 
ATOM     26  F   UNL     1      -3.035  14.506  25.840  0.00  0.00    +0.000 F 
ATOM     27  C   UNL     1      -2.819  15.101  23.572  0.00  0.00    +0.000 A 
ATOM     28  C   UNL     1      -2.991  14.761  22.233  0.00  0.00    +0.000 A 
ATOM     29  F   UNL     1      -2.603  15.641  21.300  0.00  0.00    +0.000 F 
ENDBRANCH  21  22
BRANCH  21  30
ATOM     30  C   UNL     1      -5.143  13.128  19.916  0.00  0.00    +0.000 A 
ATOM     31  C   UNL     1      -5.574  12.177  18.994  0.00  0.00    +0.000 A 
ATOM     32  N   UNL     1      -6.838  12.139  18.502  0.00  0.00    +0.000 NA
ATOM     33  C   UNL     1      -7.667  13.096  18.970  0.00  0.00    +0.000 A 
ATOM     34  C   UNL     1      -7.261  14.039  19.896  0.00  0.00    +0.000 A 
ATOM     35  N   UNL     1      -5.998  14.083  20.382  0.00  0.00    +0.000 NA
ENDBRANCH  21  30
ENDBRANCH  19  21
ENDBRANCH   4  19
TORSDOF 7
ENDMDL
