MODEL 1
REMARK VINA RESULT:      -7.1      0.000      0.000
REMARK  Name = 
REMARK  7 active torsions:
REMARK  status: ('A' for Active; 'I' for Inactive)
REMARK    1  A    between atoms: C_1  and  C_2
REMARK    2  A    between atoms: N_4  and  C_5
REMARK    3  A    between atoms: C_14  and  N_15
REMARK    4  A    between atoms: N_15  and  C_16
REMARK    5  A    between atoms: C_16  and  C_17
REMARK    6  A    between atoms: C_17  and  C_18
REMARK    7  A    between atoms: C_18  and  N_19
REMARK                            x       y       z     vdW  Elec       q    Type
REMARK                         _______ _______ _______ _____ _____    ______ ____
ROOT
ATOM      1  C   UNL     1       4.526   2.725  19.413  0.00  0.00    +0.000 C 
ATOM      2  C   UNL     1       4.588   4.066  18.771  0.00  0.00    +0.000 A 
ATOM      3  N   UNL     1       5.427   4.165  17.724  0.00  0.00    +0.000 NA
ATOM      4  N   UNL     1       5.224   5.408  17.276  0.00  0.00    +0.000 N 
ATOM      5  C   UNL     1       6.172   6.028  16.387  0.00  0.00    +0.000 C 
ATOM      6  C   UNL     1       4.199   6.052  17.900  0.00  0.00    +0.000 A 
ATOM      7  N   UNL     1       3.676   7.214  17.489  0.00  0.00    +0.000 NA
ATOM      8  C   UNL     1       2.751   7.723  18.279  0.00  0.00    +0.000 A 
ATOM      9  C   UNL     1       2.126   8.869  17.808  0.00  0.00    +0.000 A 
ATOM     10  C   UNL     1       1.210   9.590  18.569  0.00  0.00    +0.000 A 
ATOM     11  C   UNL     1       0.938   9.162  19.858  0.00  0.00    +0.000 A 
ATOM     12  C   UNL     1       1.524   7.985  20.340  0.00  0.00    +0.000 A 
ATOM     13  C   UNL     1       2.410   7.192  19.553  0.00  0.00    +0.000 A 
ATOM     14  C   UNL     1       2.988   5.908  19.957  0.00  0.00    +0.000 A 
ATOM     15  C   UNL     1       3.882   5.300  19.024  0.00  0.00    +0.000 A 
ENDROOT
BRANCH  14  16
ATOM     16  N   UNL     1       2.553   5.317  21.166  0.00  0.00    +0.000 N 
ATOM     17  H   UNL     1       3.240   5.428  21.903  0.00  0.00    +0.000 HD
BRANCH  16  18
ATOM     18  C   UNL     1       2.001   3.965  21.195  0.00  0.00    +0.000 C 
BRANCH  18  19
ATOM     19  C   UNL     1       0.792   3.939  20.243  0.00  0.00    +0.000 C 
BRANCH  19  20
ATOM     20  C   UNL     1       0.867   2.825  19.200  0.00  0.00    +0.000 C 
BRANCH  20  21
ATOM     21  N   UNL     1       1.154   3.391  17.886  0.00  0.00    +0.000 NA
ATOM     22  H   UNL     1       1.131   2.662  17.174  0.00  0.00    +0.000 HD
ATOM     23  H   UNL     1       2.096   3.777  17.871  0.00  0.00    +0.000 HD
ENDBRANCH  20  21
ENDBRANCH  19  20
ENDBRANCH  18  19
ENDBRANCH  16  18
ENDBRANCH  14  16
TORSDOF 5
ENDMDL
MODEL 2
REMARK VINA RESULT:      -6.9      1.844      4.726
REMARK  Name = 
REMARK  7 active torsions:
REMARK  status: ('A' for Active; 'I' for Inactive)
REMARK    1  A    between atoms: C_1  and  C_2
REMARK    2  A    between atoms: N_4  and  C_5
REMARK    3  A    between atoms: C_14  and  N_15
REMARK    4  A    between atoms: N_15  and  C_16
REMARK    5  A    between atoms: C_16  and  C_17
REMARK    6  A    between atoms: C_17  and  C_18
REMARK    7  A    between atoms: C_18  and  N_19
REMARK                            x       y       z     vdW  Elec       q    Type
REMARK                         _______ _______ _______ _____ _____    ______ ____
ROOT
ATOM      1  C   UNL     1       6.724   7.673  17.255  0.00  0.00    +0.000 C 
ATOM      2  C   UNL     1       6.120   6.400  16.777  0.00  0.00    +0.000 A 
ATOM      3  N   UNL     1       6.834   5.737  15.849  0.00  0.00    +0.000 NA
ATOM      4  N   UNL     1       6.141   4.607  15.670  0.00  0.00    +0.000 N 
ATOM      5  C   UNL     1       6.375   3.783  14.513  0.00  0.00    +0.000 C 
ATOM      6  C   UNL     1       5.102   4.461  16.538  0.00  0.00    +0.000 A 
ATOM      7  N   UNL     1       4.400   3.331  16.691  0.00  0.00    +0.000 NA
ATOM      8  C   UNL     1       3.373   3.417  17.514  0.00  0.00    +0.000 A 
ATOM      9  C   UNL     1       2.705   2.226  17.764  0.00  0.00    +0.000 A 
ATOM     10  C   UNL     1       1.538   2.165  18.519  0.00  0.00    +0.000 A 
ATOM     11  C   UNL     1       1.007   3.345  19.013  0.00  0.00    +0.000 A 
ATOM     12  C   UNL     1       1.685   4.554  18.811  0.00  0.00    +0.000 A 
ATOM     13  C   UNL     1       2.920   4.629  18.101  0.00  0.00    +0.000 A 
ATOM     14  C   UNL     1       3.727   5.839  17.927  0.00  0.00    +0.000 A 
ATOM     15  C   UNL     1       4.915   5.695  17.148  0.00  0.00    +0.000 A 
ENDROOT
BRANCH  14  16
ATOM     16  N   UNL     1       3.347   7.015  18.615  0.00  0.00    +0.000 N 
ATOM     17  H   UNL     1       2.664   6.818  19.338  0.00  0.00    +0.000 HD
BRANCH  16  18
ATOM     18  C   UNL     1       2.975   8.230  17.894  0.00  0.00    +0.000 C 
BRANCH  18  19
ATOM     19  C   UNL     1       1.476   8.473  18.142  0.00  0.00    +0.000 C 
BRANCH  19  20
ATOM     20  C   UNL     1       1.120   9.952  18.287  0.00  0.00    +0.000 C 
BRANCH  20  21
ATOM     21  N   UNL     1       2.089  10.771  17.566  0.00  0.00    +0.000 NA
ATOM     22  H   UNL     1       2.031  11.742  17.874  0.00  0.00    +0.000 HD
ATOM     23  H   UNL     1       1.872  10.772  16.571  0.00  0.00    +0.000 HD
ENDBRANCH  20  21
ENDBRANCH  19  20
ENDBRANCH  18  19
ENDBRANCH  16  18
ENDBRANCH  14  16
TORSDOF 5
ENDMDL
MODEL 3
REMARK VINA RESULT:      -6.9      3.759      5.573
REMARK  Name = 
REMARK  7 active torsions:
REMARK  status: ('A' for Active; 'I' for Inactive)
REMARK    1  A    between atoms: C_1  and  C_2
REMARK    2  A    between atoms: N_4  and  C_5
REMARK    3  A    between atoms: C_14  and  N_15
REMARK    4  A    between atoms: N_15  and  C_16
REMARK    5  A    between atoms: C_16  and  C_17
REMARK    6  A    between atoms: C_17  and  C_18
REMARK    7  A    between atoms: C_18  and  N_19
REMARK                            x       y       z     vdW  Elec       q    Type
REMARK                         _______ _______ _______ _____ _____    ______ ____
ROOT
ATOM      1  C   UNL     1       5.389   4.417  19.661  0.00  0.00    +0.000 C 
ATOM      2  C   UNL     1       6.008   5.124  18.507  0.00  0.00    +0.000 A 
ATOM      3  N   UNL     1       6.803   6.162  18.827  0.00  0.00    +0.000 NA
ATOM      4  N   UNL     1       7.302   6.549  17.649  0.00  0.00    +0.000 N 
ATOM      5  C   UNL     1       7.922   7.841  17.508  0.00  0.00    +0.000 C 
ATOM      6  C   UNL     1       6.973   5.722  16.619  0.00  0.00    +0.000 A 
ATOM      7  N   UNL     1       7.518   5.783  15.398  0.00  0.00    +0.000 NA
ATOM      8  C   UNL     1       7.000   4.956  14.510  0.00  0.00    +0.000 A 
ATOM      9  C   UNL     1       7.630   4.934  13.274  0.00  0.00    +0.000 A 
ATOM     10  C   UNL     1       7.142   4.201  12.196  0.00  0.00    +0.000 A 
ATOM     11  C   UNL     1       5.962   3.493  12.358  0.00  0.00    +0.000 A 
ATOM     12  C   UNL     1       5.331   3.466  13.608  0.00  0.00    +0.000 A 
ATOM     13  C   UNL     1       5.853   4.151  14.745  0.00  0.00    +0.000 A 
ATOM     14  C   UNL     1       5.298   4.095  16.099  0.00  0.00    +0.000 A 
ATOM     15  C   UNL     1       5.961   4.891  17.083  0.00  0.00    +0.000 A 
ENDROOT
BRANCH  14  16
ATOM     16  N   UNL     1       4.237   3.199  16.363  0.00  0.00    +0.000 N 
ATOM     17  H   UNL     1       3.992   2.661  15.539  0.00  0.00    +0.000 HD
BRANCH  16  18
ATOM     18  C   UNL     1       3.026   3.636  17.053  0.00  0.00    +0.000 C 
BRANCH  18  19
ATOM     19  C   UNL     1       2.349   2.383  17.636  0.00  0.00    +0.000 C 
BRANCH  19  20
ATOM     20  C   UNL     1       3.117   1.772  18.807  0.00  0.00    +0.000 C 
BRANCH  20  21
ATOM     21  N   UNL     1       4.101   0.813  18.313  0.00  0.00    +0.000 NA
ATOM     22  H   UNL     1       5.040   1.093  18.595  0.00  0.00    +0.000 HD
ATOM     23  H   UNL     1       4.097   0.805  17.295  0.00  0.00    +0.000 HD
ENDBRANCH  20  21
ENDBRANCH  19  20
ENDBRANCH  18  19
ENDBRANCH  16  18
ENDBRANCH  14  16
TORSDOF 5
ENDMDL
MODEL 4
REMARK VINA RESULT:      -6.8      1.527      4.413
REMARK  Name = 
REMARK  7 active torsions:
REMARK  status: ('A' for Active; 'I' for Inactive)
REMARK    1  A    between atoms: C_1  and  C_2
REMARK    2  A    between atoms: N_4  and  C_5
REMARK    3  A    between atoms: C_14  and  N_15
REMARK    4  A    between atoms: N_15  and  C_16
REMARK    5  A    between atoms: C_16  and  C_17
REMARK    6  A    between atoms: C_17  and  C_18
REMARK    7  A    between atoms: C_18  and  N_19
REMARK                            x       y       z     vdW  Elec       q    Type
REMARK                         _______ _______ _______ _____ _____    ______ ____
ROOT
ATOM      1  C   UNL     1       2.495   4.910  21.043  0.00  0.00    +0.000 C 
ATOM      2  C   UNL     1       2.766   5.641  19.775  0.00  0.00    +0.000 A 
ATOM      3  N   UNL     1       2.287   6.898  19.722  0.00  0.00    +0.000 NA
ATOM      4  N   UNL     1       2.743   7.357  18.551  0.00  0.00    +0.000 N 
ATOM      5  C   UNL     1       2.169   8.536  17.957  0.00  0.00    +0.000 C 
ATOM      6  C   UNL     1       3.600   6.503  17.927  0.00  0.00    +0.000 A 
ATOM      7  N   UNL     1       4.339   6.824  16.858  0.00  0.00    +0.000 NA
ATOM      8  C   UNL     1       5.038   5.832  16.342  0.00  0.00    +0.000 A 
ATOM      9  C   UNL     1       5.891   6.178  15.303  0.00  0.00    +0.000 A 
ATOM     10  C   UNL     1       6.613   5.234  14.579  0.00  0.00    +0.000 A 
ATOM     11  C   UNL     1       6.447   3.894  14.889  0.00  0.00    +0.000 A 
ATOM     12  C   UNL     1       5.625   3.523  15.961  0.00  0.00    +0.000 A 
ATOM     13  C   UNL     1       4.932   4.478  16.761  0.00  0.00    +0.000 A 
ATOM     14  C   UNL     1       4.129   4.171  17.948  0.00  0.00    +0.000 A 
ATOM     15  C   UNL     1       3.492   5.281  18.580  0.00  0.00    +0.000 A 
ENDROOT
BRANCH  14  16
ATOM     16  N   UNL     1       4.125   2.845  18.441  0.00  0.00    +0.000 N 
ATOM     17  H   UNL     1       5.037   2.412  18.348  0.00  0.00    +0.000 HD
BRANCH  16  18
ATOM     18  C   UNL     1       3.080   1.898  18.063  0.00  0.00    +0.000 C 
BRANCH  18  19
ATOM     19  C   UNL     1       2.073   1.835  19.225  0.00  0.00    +0.000 C 
BRANCH  19  20
ATOM     20  C   UNL     1       0.724   2.470  18.890  0.00  0.00    +0.000 C 
BRANCH  20  21
ATOM     21  N   UNL     1       0.865   3.367  17.748  0.00  0.00    +0.000 NA
ATOM     22  H   UNL     1       0.535   4.301  17.988  0.00  0.00    +0.000 HD
ATOM     23  H   UNL     1       0.281   3.045  16.979  0.00  0.00    +0.000 HD
ENDBRANCH  20  21
ENDBRANCH  19  20
ENDBRANCH  18  19
ENDBRANCH  16  18
ENDBRANCH  14  16
TORSDOF 5
ENDMDL
MODEL 5
REMARK VINA RESULT:      -6.8      1.693      5.223
REMARK  Name = 
REMARK  7 active torsions:
REMARK  status: ('A' for Active; 'I' for Inactive)
REMARK    1  A    between atoms: C_1  and  C_2
REMARK    2  A    between atoms: N_4  and  C_5
REMARK    3  A    between atoms: C_14  and  N_15
REMARK    4  A    between atoms: N_15  and  C_16
REMARK    5  A    between atoms: C_16  and  C_17
REMARK    6  A    between atoms: C_17  and  C_18
REMARK    7  A    between atoms: C_18  and  N_19
REMARK                            x       y       z     vdW  Elec       q    Type
REMARK                         _______ _______ _______ _____ _____    ______ ____
ROOT
ATOM      1  C   UNL     1       5.143   6.693  16.120  0.00  0.00    +0.000 C 
ATOM      2  C   UNL     1       4.198   6.717  17.268  0.00  0.00    +0.000 A 
ATOM      3  N   UNL     1       3.421   7.813  17.352  0.00  0.00    +0.000 NA
ATOM      4  N   UNL     1       2.613   7.545  18.383  0.00  0.00    +0.000 N 
ATOM      5  C   UNL     1       1.868   8.601  19.019  0.00  0.00    +0.000 C 
ATOM      6  C   UNL     1       2.745   6.280  18.866  0.00  0.00    +0.000 A 
ATOM      7  N   UNL     1       1.910   5.717  19.748  0.00  0.00    +0.000 NA
ATOM      8  C   UNL     1       2.260   4.515  20.164  0.00  0.00    +0.000 A 
ATOM      9  C   UNL     1       1.346   3.879  20.993  0.00  0.00    +0.000 A 
ATOM     10  C   UNL     1       1.612   2.658  21.605  0.00  0.00    +0.000 A 
ATOM     11  C   UNL     1       2.852   2.073  21.403  0.00  0.00    +0.000 A 
ATOM     12  C   UNL     1       3.774   2.674  20.538  0.00  0.00    +0.000 A 
ATOM     13  C   UNL     1       3.494   3.889  19.844  0.00  0.00    +0.000 A 
ATOM     14  C   UNL     1       4.372   4.526  18.859  0.00  0.00    +0.000 A 
ATOM     15  C   UNL     1       3.909   5.761  18.311  0.00  0.00    +0.000 A 
ENDROOT
BRANCH  14  16
ATOM     16  N   UNL     1       5.539   3.843  18.445  0.00  0.00    +0.000 N 
ATOM     17  H   UNL     1       6.124   3.595  19.235  0.00  0.00    +0.000 HD
BRANCH  16  18
ATOM     18  C   UNL     1       6.364   4.343  17.349  0.00  0.00    +0.000 C 
BRANCH  18  19
ATOM     19  C   UNL     1       7.755   4.660  17.926  0.00  0.00    +0.000 C 
BRANCH  19  20
ATOM     20  C   UNL     1       7.764   5.880  18.845  0.00  0.00    +0.000 C 
BRANCH  20  21
ATOM     21  N   UNL     1       7.868   5.455  20.238  0.00  0.00    +0.000 NA
ATOM     22  H   UNL     1       8.313   4.540  20.296  0.00  0.00    +0.000 HD
ATOM     23  H   UNL     1       6.938   5.349  20.639  0.00  0.00    +0.000 HD
ENDBRANCH  20  21
ENDBRANCH  19  20
ENDBRANCH  18  19
ENDBRANCH  16  18
ENDBRANCH  14  16
TORSDOF 5
ENDMDL
MODEL 6
REMARK VINA RESULT:      -6.7      1.069      1.417
REMARK  Name = 
REMARK  7 active torsions:
REMARK  status: ('A' for Active; 'I' for Inactive)
REMARK    1  A    between atoms: C_1  and  C_2
REMARK    2  A    between atoms: N_4  and  C_5
REMARK    3  A    between atoms: C_14  and  N_15
REMARK    4  A    between atoms: N_15  and  C_16
REMARK    5  A    between atoms: C_16  and  C_17
REMARK    6  A    between atoms: C_17  and  C_18
REMARK    7  A    between atoms: C_18  and  N_19
REMARK                            x       y       z     vdW  Elec       q    Type
REMARK                         _______ _______ _______ _____ _____    ______ ____
ROOT
ATOM      1  C   UNL     1       3.724   2.525  18.224  0.00  0.00    +0.000 C 
ATOM      2  C   UNL     1       3.991   3.939  17.844  0.00  0.00    +0.000 A 
ATOM      3  N   UNL     1       4.842   4.108  16.816  0.00  0.00    +0.000 NA
ATOM      4  N   UNL     1       4.831   5.430  16.614  0.00  0.00    +0.000 N 
ATOM      5  C   UNL     1       5.867   6.059  15.837  0.00  0.00    +0.000 C 
ATOM      6  C   UNL     1       3.910   6.089  17.370  0.00  0.00    +0.000 A 
ATOM      7  N   UNL     1       3.570   7.372  17.196  0.00  0.00    +0.000 NA
ATOM      8  C   UNL     1       2.726   7.854  18.089  0.00  0.00    +0.000 A 
ATOM      9  C   UNL     1       2.283   9.148  17.855  0.00  0.00    +0.000 A 
ATOM     10  C   UNL     1       1.481   9.840  18.757  0.00  0.00    +0.000 A 
ATOM     11  C   UNL     1       1.139   9.222  19.949  0.00  0.00    +0.000 A 
ATOM     12  C   UNL     1       1.539   7.901  20.188  0.00  0.00    +0.000 A 
ATOM     13  C   UNL     1       2.301   7.149  19.247  0.00  0.00    +0.000 A 
ATOM     14  C   UNL     1       2.677   5.740  19.390  0.00  0.00    +0.000 A 
ATOM     15  C   UNL     1       3.476   5.193  18.340  0.00  0.00    +0.000 A 
ENDROOT
BRANCH  14  16
ATOM     16  N   UNL     1       2.150   5.003  20.476  0.00  0.00    +0.000 N 
ATOM     17  H   UNL     1       2.830   4.348  20.845  0.00  0.00    +0.000 HD
BRANCH  16  18
ATOM     18  C   UNL     1       0.837   4.368  20.396  0.00  0.00    +0.000 C 
BRANCH  18  19
ATOM     19  C   UNL     1       1.046   2.852  20.561  0.00  0.00    +0.000 C 
BRANCH  19  20
ATOM     20  C   UNL     1       1.641   2.468  21.915  0.00  0.00    +0.000 C 
BRANCH  20  21
ATOM     21  N   UNL     1       3.094   2.376  21.813  0.00  0.00    +0.000 NA
ATOM     22  H   UNL     1       3.530   3.210  22.204  0.00  0.00    +0.000 HD
ATOM     23  H   UNL     1       3.372   2.338  20.834  0.00  0.00    +0.000 HD
ENDBRANCH  20  21
ENDBRANCH  19  20
ENDBRANCH  18  19
ENDBRANCH  16  18
ENDBRANCH  14  16
TORSDOF 5
ENDMDL
MODEL 7
REMARK VINA RESULT:      -6.6      1.652      5.641
REMARK  Name = 
REMARK  7 active torsions:
REMARK  status: ('A' for Active; 'I' for Inactive)
REMARK    1  A    between atoms: C_1  and  C_2
REMARK    2  A    between atoms: N_4  and  C_5
REMARK    3  A    between atoms: C_14  and  N_15
REMARK    4  A    between atoms: N_15  and  C_16
REMARK    5  A    between atoms: C_16  and  C_17
REMARK    6  A    between atoms: C_17  and  C_18
REMARK    7  A    between atoms: C_18  and  N_19
REMARK                            x       y       z     vdW  Elec       q    Type
REMARK                         _______ _______ _______ _____ _____    ______ ____
ROOT
ATOM      1  C   UNL     1       2.090   9.167  17.398  0.00  0.00    +0.000 C 
ATOM      2  C   UNL     1       1.996   8.470  18.710  0.00  0.00    +0.000 A 
ATOM      3  N   UNL     1       1.338   9.142  19.672  0.00  0.00    +0.000 NA
ATOM      4  N   UNL     1       1.306   8.277  20.692  0.00  0.00    +0.000 N 
ATOM      5  C   UNL     1       1.000   8.730  22.024  0.00  0.00    +0.000 C 
ATOM      6  C   UNL     1       1.787   7.044  20.376  0.00  0.00    +0.000 A 
ATOM      7  N   UNL     1       1.668   5.964  21.158  0.00  0.00    +0.000 NA
ATOM      8  C   UNL     1       2.281   4.882  20.718  0.00  0.00    +0.000 A 
ATOM      9  C   UNL     1       2.072   3.731  21.464  0.00  0.00    +0.000 A 
ATOM     10  C   UNL     1       2.733   2.535  21.199  0.00  0.00    +0.000 A 
ATOM     11  C   UNL     1       3.659   2.505  20.169  0.00  0.00    +0.000 A 
ATOM     12  C   UNL     1       3.855   3.642  19.375  0.00  0.00    +0.000 A 
ATOM     13  C   UNL     1       3.137   4.856  19.584  0.00  0.00    +0.000 A 
ATOM     14  C   UNL     1       3.225   6.052  18.741  0.00  0.00    +0.000 A 
ATOM     15  C   UNL     1       2.441   7.171  19.156  0.00  0.00    +0.000 A 
ENDROOT
BRANCH  14  16
ATOM     16  N   UNL     1       3.975   5.986  17.545  0.00  0.00    +0.000 N 
ATOM     17  H   UNL     1       4.182   5.027  17.288  0.00  0.00    +0.000 HD
BRANCH  16  18
ATOM     18  C   UNL     1       5.153   6.824  17.340  0.00  0.00    +0.000 C 
BRANCH  18  19
ATOM     19  C   UNL     1       6.379   6.017  17.803  0.00  0.00    +0.000 C 
BRANCH  19  20
ATOM     20  C   UNL     1       6.543   4.690  17.065  0.00  0.00    +0.000 C 
BRANCH  20  21
ATOM     21  N   UNL     1       7.925   4.232  17.161  0.00  0.00    +0.000 NA
ATOM     22  H   UNL     1       8.428   4.770  17.867  0.00  0.00    +0.000 HD
ATOM     23  H   UNL     1       8.408   4.396  16.279  0.00  0.00    +0.000 HD
ENDBRANCH  20  21
ENDBRANCH  19  20
ENDBRANCH  18  19
ENDBRANCH  16  18
ENDBRANCH  14  16
TORSDOF 5
ENDMDL
MODEL 8
REMARK VINA RESULT:      -6.6      1.530      5.247
REMARK  Name = 
REMARK  7 active torsions:
REMARK  status: ('A' for Active; 'I' for Inactive)
REMARK    1  A    between atoms: C_1  and  C_2
REMARK    2  A    between atoms: N_4  and  C_5
REMARK    3  A    between atoms: C_14  and  N_15
REMARK    4  A    between atoms: N_15  and  C_16
REMARK    5  A    between atoms: C_16  and  C_17
REMARK    6  A    between atoms: C_17  and  C_18
REMARK    7  A    between atoms: C_18  and  N_19
REMARK                            x       y       z     vdW  Elec       q    Type
REMARK                         _______ _______ _______ _____ _____    ______ ____
ROOT
ATOM      1  C   UNL     1       4.551   7.169  16.144  0.00  0.00    +0.000 C 
ATOM      2  C   UNL     1       3.763   7.069  17.403  0.00  0.00    +0.000 A 
ATOM      3  N   UNL     1       3.009   8.143  17.697  0.00  0.00    +0.000 NA
ATOM      4  N   UNL     1       2.340   7.766  18.792  0.00  0.00    +0.000 N 
ATOM      5  C   UNL     1       1.690   8.746  19.623  0.00  0.00    +0.000 C 
ATOM      6  C   UNL     1       2.530   6.460  19.124  0.00  0.00    +0.000 A 
ATOM      7  N   UNL     1       1.814   5.804  20.046  0.00  0.00    +0.000 NA
ATOM      8  C   UNL     1       2.211   4.570  20.289  0.00  0.00    +0.000 A 
ATOM      9  C   UNL     1       1.410   3.846  21.162  0.00  0.00    +0.000 A 
ATOM     10  C   UNL     1       1.749   2.572  21.608  0.00  0.00    +0.000 A 
ATOM     11  C   UNL     1       2.949   2.021  21.189  0.00  0.00    +0.000 A 
ATOM     12  C   UNL     1       3.753   2.715  20.275  0.00  0.00    +0.000 A 
ATOM     13  C   UNL     1       3.390   3.990  19.750  0.00  0.00    +0.000 A 
ATOM     14  C   UNL     1       4.135   4.731  18.729  0.00  0.00    +0.000 A 
ATOM     15  C   UNL     1       3.609   6.010  18.373  0.00  0.00    +0.000 A 
ENDROOT
BRANCH  14  16
ATOM     16  N   UNL     1       5.235   4.103  18.099  0.00  0.00    +0.000 N 
ATOM     17  H   UNL     1       6.094   4.619  18.251  0.00  0.00    +0.000 HD
BRANCH  16  18
ATOM     18  C   UNL     1       5.160   3.652  16.712  0.00  0.00    +0.000 C 
BRANCH  18  19
ATOM     19  C   UNL     1       6.463   4.084  16.016  0.00  0.00    +0.000 C 
BRANCH  19  20
ATOM     20  C   UNL     1       7.360   4.951  16.898  0.00  0.00    +0.000 C 
BRANCH  20  21
ATOM     21  N   UNL     1       8.195   4.105  17.745  0.00  0.00    +0.000 NA
ATOM     22  H   UNL     1       8.183   3.143  17.407  0.00  0.00    +0.000 HD
ATOM     23  H   UNL     1       7.818   4.082  18.691  0.00  0.00    +0.000 HD
ENDBRANCH  20  21
ENDBRANCH  19  20
ENDBRANCH  18  19
ENDBRANCH  16  18
ENDBRANCH  14  16
TORSDOF 5
ENDMDL
MODEL 9
REMARK VINA RESULT:      -6.6      1.703      4.426
REMARK  Name = 
REMARK  7 active torsions:
REMARK  status: ('A' for Active; 'I' for Inactive)
REMARK    1  A    between atoms: C_1  and  C_2
REMARK    2  A    between atoms: N_4  and  C_5
REMARK    3  A    between atoms: C_14  and  N_15
REMARK    4  A    between atoms: N_15  and  C_16
REMARK    5  A    between atoms: C_16  and  C_17
REMARK    6  A    between atoms: C_17  and  C_18
REMARK    7  A    between atoms: C_18  and  N_19
REMARK                            x       y       z     vdW  Elec       q    Type
REMARK                         _______ _______ _______ _____ _____    ______ ____
ROOT
ATOM      1  C   UNL     1       1.649   5.955  20.976  0.00  0.00    +0.000 C 
ATOM      2  C   UNL     1       2.170   6.539  19.710  0.00  0.00    +0.000 A 
ATOM      3  N   UNL     1       1.932   7.852  19.541  0.00  0.00    +0.000 NA
ATOM      4  N   UNL     1       2.576   8.143  18.405  0.00  0.00    +0.000 N 
ATOM      5  C   UNL     1       2.284   9.359  17.692  0.00  0.00    +0.000 C 
ATOM      6  C   UNL     1       3.324   7.113  17.923  0.00  0.00    +0.000 A 
ATOM      7  N   UNL     1       4.211   7.226  16.927  0.00  0.00    +0.000 NA
ATOM      8  C   UNL     1       4.768   6.094  16.541  0.00  0.00    +0.000 A 
ATOM      9  C   UNL     1       5.767   6.215  15.585  0.00  0.00    +0.000 A 
ATOM     10  C   UNL     1       6.376   5.112  14.994  0.00  0.00    +0.000 A 
ATOM     11  C   UNL     1       5.943   3.846  15.352  0.00  0.00    +0.000 A 
ATOM     12  C   UNL     1       4.966   3.698  16.345  0.00  0.00    +0.000 A 
ATOM     13  C   UNL     1       4.380   4.812  17.015  0.00  0.00    +0.000 A 
ATOM     14  C   UNL     1       3.422   4.731  18.120  0.00  0.00    +0.000 A 
ATOM     15  C   UNL     1       2.934   5.977  18.621  0.00  0.00    +0.000 A 
ENDROOT
BRANCH  14  16
ATOM     16  N   UNL     1       3.132   3.464  18.677  0.00  0.00    +0.000 N 
ATOM     17  H   UNL     1       3.889   2.808  18.523  0.00  0.00    +0.000 HD
BRANCH  16  18
ATOM     18  C   UNL     1       1.847   2.808  18.445  0.00  0.00    +0.000 C 
BRANCH  18  19
ATOM     19  C   UNL     1       1.178   2.606  19.816  0.00  0.00    +0.000 C 
BRANCH  19  20
ATOM     20  C   UNL     1       2.178   2.496  20.966  0.00  0.00    +0.000 C 
BRANCH  20  21
ATOM     21  N   UNL     1       1.477   2.557  22.245  0.00  0.00    +0.000 NA
ATOM     22  H   UNL     1       2.019   3.095  22.920  0.00  0.00    +0.000 HD
ATOM     23  H   UNL     1       1.382   1.620  22.634  0.00  0.00    +0.000 HD
ENDBRANCH  20  21
ENDBRANCH  19  20
ENDBRANCH  18  19
ENDBRANCH  16  18
ENDBRANCH  14  16
TORSDOF 5
ENDMDL
