MODEL 1
REMARK VINA RESULT:      -7.7      0.000      0.000
REMARK  Name = 
REMARK  5 active torsions:
REMARK  status: ('A' for Active; 'I' for Inactive)
REMARK    1  A    between atoms: N_1  and  C_2
REMARK    2  A    between atoms: C_2  and  C_3
REMARK    3  A    between atoms: C_3  and  N_4
REMARK    4  A    between atoms: N_4  and  C_5
REMARK    5  A    between atoms: N_13  and  C_14
REMARK                            x       y       z     vdW  Elec       q    Type
REMARK                         _______ _______ _______ _____ _____    ______ ____
ROOT
ATOM      1  C   UNL     1       1.497   9.707  18.645  0.00  0.00    +0.000 A 
ATOM      2  C   UNL     1       0.931   9.094  19.788  0.00  0.00    +0.000 A 
ATOM      3  C   UNL     1       1.351   7.847  20.235  0.00  0.00    +0.000 A 
ATOM      4  C   UNL     1       2.301   7.209  19.476  0.00  0.00    +0.000 A 
ATOM      5  C   UNL     1       2.791   7.728  18.297  0.00  0.00    +0.000 A 
ATOM      6  C   UNL     1       2.393   8.975  17.843  0.00  0.00    +0.000 A 
ATOM      7  C   UNL     1       3.761   6.755  17.781  0.00  0.00    +0.000 C 
ATOM      8  O   UNL     1       4.299   6.844  16.695  0.00  0.00    +0.000 OA
ATOM      9  N   UNL     1       3.874   5.766  18.720  0.00  0.00    +0.000 N 
ATOM     10  C   UNL     1       2.996   5.961  19.749  0.00  0.00    +0.000 C 
ATOM     11  O   UNL     1       2.816   5.293  20.750  0.00  0.00    +0.000 OA
ENDROOT
BRANCH   9  12
ATOM     12  C   UNL     1       4.742   4.594  18.683  0.00  0.00    +0.000 C 
ATOM     13  C   UNL     1       6.180   4.813  19.139  0.00  0.00    +0.000 C 
ATOM     14  C   UNL     1       7.081   5.366  18.053  0.00  0.00    +0.000 C 
ATOM     15  C   UNL     1       6.939   4.611  16.752  0.00  0.00    +0.000 C 
ATOM     16  O   UNL     1       7.823   4.609  15.900  0.00  0.00    +0.000 OA
ATOM     17  N   UNL     1       5.760   3.944  16.536  0.00  0.00    +0.000 N 
ATOM     18  C   UNL     1       4.637   3.918  17.324  0.00  0.00    +0.000 C 
ATOM     19  O   UNL     1       3.590   3.428  16.905  0.00  0.00    +0.000 OA
ATOM     20  H   UNL     1       5.669   3.510  15.627  0.00  0.00    +0.000 HD
ENDBRANCH   9  12
BRANCH   1  21
ATOM     21  N   UNL     1       1.158  11.020  18.273  0.00  0.00    +0.000 N 
ATOM     22  H   UNL     1       0.899  11.065  17.288  0.00  0.00    +0.000 HD
BRANCH  21  23
ATOM     23  C   UNL     1       0.076  11.636  19.071  0.00  0.00    +0.000 C 
BRANCH  23  24
ATOM     24  C   UNL     1      -0.610  12.780  18.313  0.00  0.00    +0.000 C 
BRANCH  24  25
ATOM     25  N   UNL     1      -1.541  12.299  17.285  0.00  0.00    +0.000 NA
ATOM     26  H   UNL     1      -1.019  11.696  16.647  0.00  0.00    +0.000 HD
ATOM     27  H   UNL     1      -1.854  13.091  16.724  0.00  0.00    +0.000 HD
ENDBRANCH  24  25
ENDBRANCH  23  24
ENDBRANCH  21  23
ENDBRANCH   1  21
TORSDOF 5
ENDMDL
MODEL 2
REMARK VINA RESULT:      -7.7      4.116      7.443
REMARK  Name = 
REMARK  5 active torsions:
REMARK  status: ('A' for Active; 'I' for Inactive)
REMARK    1  A    between atoms: N_1  and  C_2
REMARK    2  A    between atoms: C_2  and  C_3
REMARK    3  A    between atoms: C_3  and  N_4
REMARK    4  A    between atoms: N_4  and  C_5
REMARK    5  A    between atoms: N_13  and  C_14
REMARK                            x       y       z     vdW  Elec       q    Type
REMARK                         _______ _______ _______ _____ _____    ______ ____
ROOT
ATOM      1  C   UNL     1       6.394   4.207  14.174  0.00  0.00    +0.000 A 
ATOM      2  C   UNL     1       7.435   4.808  14.920  0.00  0.00    +0.000 A 
ATOM      3  C   UNL     1       7.331   5.013  16.291  0.00  0.00    +0.000 A 
ATOM      4  C   UNL     1       6.139   4.663  16.877  0.00  0.00    +0.000 A 
ATOM      5  C   UNL     1       5.066   4.180  16.160  0.00  0.00    +0.000 A 
ATOM      6  C   UNL     1       5.156   3.956  14.796  0.00  0.00    +0.000 A 
ATOM      7  C   UNL     1       3.987   3.943  17.127  0.00  0.00    +0.000 C 
ATOM      8  O   UNL     1       2.857   3.624  16.818  0.00  0.00    +0.000 OA
ATOM      9  N   UNL     1       4.503   4.196  18.371  0.00  0.00    +0.000 N 
ATOM     10  C   UNL     1       5.783   4.666  18.287  0.00  0.00    +0.000 C 
ATOM     11  O   UNL     1       6.547   4.992  19.175  0.00  0.00    +0.000 OA
ENDROOT
BRANCH   9  12
ATOM     12  C   UNL     1       3.831   4.066  19.658  0.00  0.00    +0.000 C 
ATOM     13  C   UNL     1       3.564   2.641  20.133  0.00  0.00    +0.000 C 
ATOM     14  C   UNL     1       2.302   2.037  19.550  0.00  0.00    +0.000 C 
ATOM     15  C   UNL     1       1.119   2.970  19.655  0.00  0.00    +0.000 C 
ATOM     16  O   UNL     1      -0.038   2.560  19.632  0.00  0.00    +0.000 OA
ATOM     17  N   UNL     1       1.381   4.313  19.745  0.00  0.00    +0.000 N 
ATOM     18  C   UNL     1       2.594   4.952  19.687  0.00  0.00    +0.000 C 
ATOM     19  O   UNL     1       2.653   6.176  19.594  0.00  0.00    +0.000 OA
ATOM     20  H   UNL     1       0.568   4.914  19.742  0.00  0.00    +0.000 HD
ENDBRANCH   9  12
BRANCH   1  21
ATOM     21  N   UNL     1       6.557   3.887  12.815  0.00  0.00    +0.000 N 
ATOM     22  H   UNL     1       7.341   3.248  12.681  0.00  0.00    +0.000 HD
BRANCH  21  23
ATOM     23  C   UNL     1       5.364   3.308  12.161  0.00  0.00    +0.000 C 
BRANCH  23  24
ATOM     24  C   UNL     1       5.689   1.992  11.443  0.00  0.00    +0.000 C 
BRANCH  24  25
ATOM     25  N   UNL     1       7.131   1.726  11.376  0.00  0.00    +0.000 NA
ATOM     26  H   UNL     1       7.318   1.225  10.506  0.00  0.00    +0.000 HD
ATOM     27  H   UNL     1       7.385   1.083  12.125  0.00  0.00    +0.000 HD
ENDBRANCH  24  25
ENDBRANCH  23  24
ENDBRANCH  21  23
ENDBRANCH   1  21
TORSDOF 5
ENDMDL
MODEL 3
REMARK VINA RESULT:      -7.6      0.850      1.098
REMARK  Name = 
REMARK  5 active torsions:
REMARK  status: ('A' for Active; 'I' for Inactive)
REMARK    1  A    between atoms: N_1  and  C_2
REMARK    2  A    between atoms: C_2  and  C_3
REMARK    3  A    between atoms: C_3  and  N_4
REMARK    4  A    between atoms: N_4  and  C_5
REMARK    5  A    between atoms: N_13  and  C_14
REMARK                            x       y       z     vdW  Elec       q    Type
REMARK                         _______ _______ _______ _____ _____    ______ ____
ROOT
ATOM      1  C   UNL     1       1.420   9.564  18.655  0.00  0.00    +0.000 A 
ATOM      2  C   UNL     1       0.887   8.940  19.808  0.00  0.00    +0.000 A 
ATOM      3  C   UNL     1       1.358   7.713  20.262  0.00  0.00    +0.000 A 
ATOM      4  C   UNL     1       2.324   7.104  19.499  0.00  0.00    +0.000 A 
ATOM      5  C   UNL     1       2.783   7.632  18.312  0.00  0.00    +0.000 A 
ATOM      6  C   UNL     1       2.336   8.859  17.851  0.00  0.00    +0.000 A 
ATOM      7  C   UNL     1       3.785   6.691  17.794  0.00  0.00    +0.000 C 
ATOM      8  O   UNL     1       4.309   6.791  16.703  0.00  0.00    +0.000 OA
ATOM      9  N   UNL     1       3.942   5.714  18.740  0.00  0.00    +0.000 N 
ATOM     10  C   UNL     1       3.067   5.885  19.776  0.00  0.00    +0.000 C 
ATOM     11  O   UNL     1       2.922   5.220  20.783  0.00  0.00    +0.000 OA
ENDROOT
BRANCH   9  12
ATOM     12  C   UNL     1       4.853   4.576  18.704  0.00  0.00    +0.000 C 
ATOM     13  C   UNL     1       6.299   4.863  19.094  0.00  0.00    +0.000 C 
ATOM     14  C   UNL     1       7.134   5.413  17.954  0.00  0.00    +0.000 C 
ATOM     15  C   UNL     1       6.969   4.611  16.685  0.00  0.00    +0.000 C 
ATOM     16  O   UNL     1       7.818   4.614  15.798  0.00  0.00    +0.000 OA
ATOM     17  N   UNL     1       5.810   3.894  16.539  0.00  0.00    +0.000 N 
ATOM     18  C   UNL     1       4.721   3.851  17.373  0.00  0.00    +0.000 C 
ATOM     19  O   UNL     1       3.678   3.308  17.013  0.00  0.00    +0.000 OA
ATOM     20  H   UNL     1       5.699   3.426  15.649  0.00  0.00    +0.000 HD
ENDBRANCH   9  12
BRANCH   1  21
ATOM     21  N   UNL     1       1.028  10.860  18.276  0.00  0.00    +0.000 N 
ATOM     22  H   UNL     1       0.048  10.878  17.996  0.00  0.00    +0.000 HD
BRANCH  21  23
ATOM     23  C   UNL     1       1.243  11.904  19.301  0.00  0.00    +0.000 C 
BRANCH  23  24
ATOM     24  C   UNL     1       2.159  13.023  18.792  0.00  0.00    +0.000 C 
BRANCH  24  25
ATOM     25  N   UNL     1       2.671  12.764  17.441  0.00  0.00    +0.000 NA
ATOM     26  H   UNL     1       1.883  12.803  16.793  0.00  0.00    +0.000 HD
ATOM     27  H   UNL     1       3.019  11.806  17.395  0.00  0.00    +0.000 HD
ENDBRANCH  24  25
ENDBRANCH  23  24
ENDBRANCH  21  23
ENDBRANCH   1  21
TORSDOF 5
ENDMDL
MODEL 4
REMARK VINA RESULT:      -7.4      2.187      3.555
REMARK  Name = 
REMARK  5 active torsions:
REMARK  status: ('A' for Active; 'I' for Inactive)
REMARK    1  A    between atoms: N_1  and  C_2
REMARK    2  A    between atoms: C_2  and  C_3
REMARK    3  A    between atoms: C_3  and  N_4
REMARK    4  A    between atoms: N_4  and  C_5
REMARK    5  A    between atoms: N_13  and  C_14
REMARK                            x       y       z     vdW  Elec       q    Type
REMARK                         _______ _______ _______ _____ _____    ______ ____
ROOT
ATOM      1  C   UNL     1       0.717   9.171  19.850  0.00  0.00    +0.000 A 
ATOM      2  C   UNL     1       1.218   9.879  18.733  0.00  0.00    +0.000 A 
ATOM      3  C   UNL     1       2.183   9.336  17.892  0.00  0.00    +0.000 A 
ATOM      4  C   UNL     1       2.674   8.101  18.238  0.00  0.00    +0.000 A 
ATOM      5  C   UNL     1       2.290   7.434  19.381  0.00  0.00    +0.000 A 
ATOM      6  C   UNL     1       1.320   7.954  20.223  0.00  0.00    +0.000 A 
ATOM      7  C   UNL     1       3.041   6.173  19.405  0.00  0.00    +0.000 C 
ATOM      8  O   UNL     1       3.029   5.394  20.336  0.00  0.00    +0.000 OA
ATOM      9  N   UNL     1       3.749   6.108  18.235  0.00  0.00    +0.000 N 
ATOM     10  C   UNL     1       3.599   7.252  17.503  0.00  0.00    +0.000 C 
ATOM     11  O   UNL     1       4.073   7.547  16.423  0.00  0.00    +0.000 OA
ENDROOT
BRANCH   9  12
ATOM     12  C   UNL     1       4.618   5.030  17.777  0.00  0.00    +0.000 C 
ATOM     13  C   UNL     1       3.951   3.944  16.939  0.00  0.00    +0.000 C 
ATOM     14  C   UNL     1       3.265   2.876  17.769  0.00  0.00    +0.000 C 
ATOM     15  C   UNL     1       4.146   2.363  18.882  0.00  0.00    +0.000 C 
ATOM     16  O   UNL     1       3.972   1.262  19.396  0.00  0.00    +0.000 OA
ATOM     17  N   UNL     1       5.143   3.192  19.331  0.00  0.00    +0.000 N 
ATOM     18  C   UNL     1       5.419   4.480  18.947  0.00  0.00    +0.000 C 
ATOM     19  O   UNL     1       6.228   5.160  19.576  0.00  0.00    +0.000 OA
ATOM     20  H   UNL     1       5.668   2.848  20.124  0.00  0.00    +0.000 HD
ENDBRANCH   9  12
BRANCH   1  21
ATOM     21  N   UNL     1      -0.347   9.674  20.620  0.00  0.00    +0.000 N 
ATOM     22  H   UNL     1      -0.814   8.925  21.131  0.00  0.00    +0.000 HD
BRANCH  21  23
ATOM     23  C   UNL     1       0.021  10.737  21.579  0.00  0.00    +0.000 C 
BRANCH  23  24
ATOM     24  C   UNL     1      -0.652  10.535  22.942  0.00  0.00    +0.000 C 
BRANCH  24  25
ATOM     25  N   UNL     1       0.087   9.606  23.805  0.00  0.00    +0.000 NA
ATOM     26  H   UNL     1      -0.031   9.914  24.771  0.00  0.00    +0.000 HD
ATOM     27  H   UNL     1       1.084   9.690  23.607  0.00  0.00    +0.000 HD
ENDBRANCH  24  25
ENDBRANCH  23  24
ENDBRANCH  21  23
ENDBRANCH   1  21
TORSDOF 5
ENDMDL
MODEL 5
REMARK VINA RESULT:      -7.0      1.671      3.049
REMARK  Name = 
REMARK  5 active torsions:
REMARK  status: ('A' for Active; 'I' for Inactive)
REMARK    1  A    between atoms: N_1  and  C_2
REMARK    2  A    between atoms: C_2  and  C_3
REMARK    3  A    between atoms: C_3  and  N_4
REMARK    4  A    between atoms: N_4  and  C_5
REMARK    5  A    between atoms: N_13  and  C_14
REMARK                            x       y       z     vdW  Elec       q    Type
REMARK                         _______ _______ _______ _____ _____    ______ ____
ROOT
ATOM      1  C   UNL     1       0.963   9.330  19.334  0.00  0.00    +0.000 A 
ATOM      2  C   UNL     1       1.603   9.951  18.236  0.00  0.00    +0.000 A 
ATOM      3  C   UNL     1       2.594   9.307  17.504  0.00  0.00    +0.000 A 
ATOM      4  C   UNL     1       2.967   8.059  17.939  0.00  0.00    +0.000 A 
ATOM      5  C   UNL     1       2.443   7.472  19.070  0.00  0.00    +0.000 A 
ATOM      6  C   UNL     1       1.446   8.093  19.804  0.00  0.00    +0.000 A 
ATOM      7  C   UNL     1       3.099   6.166  19.208  0.00  0.00    +0.000 C 
ATOM      8  O   UNL     1       2.955   5.433  20.165  0.00  0.00    +0.000 OA
ATOM      9  N   UNL     1       3.896   6.001  18.107  0.00  0.00    +0.000 N 
ATOM     10  C   UNL     1       3.888   7.119  17.321  0.00  0.00    +0.000 C 
ATOM     11  O   UNL     1       4.470   7.332  16.274  0.00  0.00    +0.000 OA
ENDROOT
BRANCH   9  12
ATOM     12  C   UNL     1       4.722   4.848  17.768  0.00  0.00    +0.000 C 
ATOM     13  C   UNL     1       4.037   3.748  16.963  0.00  0.00    +0.000 C 
ATOM     14  C   UNL     1       3.245   2.778  17.817  0.00  0.00    +0.000 C 
ATOM     15  C   UNL     1       4.032   2.290  19.009  0.00  0.00    +0.000 C 
ATOM     16  O   UNL     1       3.765   1.237  19.580  0.00  0.00    +0.000 OA
ATOM     17  N   UNL     1       5.051   3.089  19.462  0.00  0.00    +0.000 N 
ATOM     18  C   UNL     1       5.424   4.332  19.015  0.00  0.00    +0.000 C 
ATOM     19  O   UNL     1       6.237   5.005  19.646  0.00  0.00    +0.000 OA
ATOM     20  H   UNL     1       5.510   2.769  20.304  0.00  0.00    +0.000 HD
ENDBRANCH   9  12
BRANCH   1  21
ATOM     21  N   UNL     1      -0.124   9.936  19.988  0.00  0.00    +0.000 N 
ATOM     22  H   UNL     1       0.186  10.721  20.561  0.00  0.00    +0.000 HD
BRANCH  21  23
ATOM     23  C   UNL     1      -1.208  10.405  19.099  0.00  0.00    +0.000 C 
BRANCH  23  24
ATOM     24  C   UNL     1      -1.266  11.935  19.027  0.00  0.00    +0.000 C 
BRANCH  24  25
ATOM     25  N   UNL     1      -1.368  12.433  17.650  0.00  0.00    +0.000 NA
ATOM     26  H   UNL     1      -0.421  12.552  17.287  0.00  0.00    +0.000 HD
ATOM     27  H   UNL     1      -1.777  13.367  17.664  0.00  0.00    +0.000 HD
ENDBRANCH  24  25
ENDBRANCH  23  24
ENDBRANCH  21  23
ENDBRANCH   1  21
TORSDOF 5
ENDMDL
MODEL 6
REMARK VINA RESULT:      -6.9      4.578      6.316
REMARK  Name = 
REMARK  5 active torsions:
REMARK  status: ('A' for Active; 'I' for Inactive)
REMARK    1  A    between atoms: N_1  and  C_2
REMARK    2  A    between atoms: C_2  and  C_3
REMARK    3  A    between atoms: C_3  and  N_4
REMARK    4  A    between atoms: N_4  and  C_5
REMARK    5  A    between atoms: N_13  and  C_14
REMARK                            x       y       z     vdW  Elec       q    Type
REMARK                         _______ _______ _______ _____ _____    ______ ____
ROOT
ATOM      1  C   UNL     1       7.605   6.746  18.084  0.00  0.00    +0.000 A 
ATOM      2  C   UNL     1       7.611   6.482  16.694  0.00  0.00    +0.000 A 
ATOM      3  C   UNL     1       6.661   5.660  16.099  0.00  0.00    +0.000 A 
ATOM      4  C   UNL     1       5.753   5.062  16.938  0.00  0.00    +0.000 A 
ATOM      5  C   UNL     1       5.789   5.209  18.308  0.00  0.00    +0.000 A 
ATOM      6  C   UNL     1       6.719   6.035  18.917  0.00  0.00    +0.000 A 
ATOM      7  C   UNL     1       4.679   4.412  18.845  0.00  0.00    +0.000 C 
ATOM      8  O   UNL     1       4.490   4.225  20.030  0.00  0.00    +0.000 OA
ATOM      9  N   UNL     1       3.984   3.920  17.772  0.00  0.00    +0.000 N 
ATOM     10  C   UNL     1       4.598   4.247  16.596  0.00  0.00    +0.000 C 
ATOM     11  O   UNL     1       4.271   3.985  15.454  0.00  0.00    +0.000 OA
ENDROOT
BRANCH   9  12
ATOM     12  C   UNL     1       2.778   3.101  17.790  0.00  0.00    +0.000 C 
ATOM     13  C   UNL     1       1.474   3.838  18.076  0.00  0.00    +0.000 C 
ATOM     14  C   UNL     1       1.209   4.046  19.555  0.00  0.00    +0.000 C 
ATOM     15  C   UNL     1       1.409   2.781  20.356  0.00  0.00    +0.000 C 
ATOM     16  O   UNL     1       0.877   2.611  21.448  0.00  0.00    +0.000 OA
ATOM     17  N   UNL     1       2.243   1.827  19.830  0.00  0.00    +0.000 N 
ATOM     18  C   UNL     1       2.991   1.887  18.682  0.00  0.00    +0.000 C 
ATOM     19  O   UNL     1       3.836   1.027  18.440  0.00  0.00    +0.000 OA
ATOM     20  H   UNL     1       2.411   1.026  20.423  0.00  0.00    +0.000 HD
ENDBRANCH   9  12
BRANCH   1  21
ATOM     21  N   UNL     1       8.488   7.677  18.657  0.00  0.00    +0.000 N 
ATOM     22  H   UNL     1       9.458   7.384  18.538  0.00  0.00    +0.000 HD
BRANCH  21  23
ATOM     23  C   UNL     1       8.353   9.061  18.154  0.00  0.00    +0.000 C 
BRANCH  23  24
ATOM     24  C   UNL     1       9.167  10.055  18.991  0.00  0.00    +0.000 C 
BRANCH  24  25
ATOM     25  N   UNL     1       9.653  11.194  18.202  0.00  0.00    +0.000 NA
ATOM     26  H   UNL     1      10.281  10.833  17.482  0.00  0.00    +0.000 HD
ATOM     27  H   UNL     1      10.228  11.790  18.797  0.00  0.00    +0.000 HD
ENDBRANCH  24  25
ENDBRANCH  23  24
ENDBRANCH  21  23
ENDBRANCH   1  21
TORSDOF 5
ENDMDL
MODEL 7
REMARK VINA RESULT:      -6.9      3.822      6.790
REMARK  Name = 
REMARK  5 active torsions:
REMARK  status: ('A' for Active; 'I' for Inactive)
REMARK    1  A    between atoms: N_1  and  C_2
REMARK    2  A    between atoms: C_2  and  C_3
REMARK    3  A    between atoms: C_3  and  N_4
REMARK    4  A    between atoms: N_4  and  C_5
REMARK    5  A    between atoms: N_13  and  C_14
REMARK                            x       y       z     vdW  Elec       q    Type
REMARK                         _______ _______ _______ _____ _____    ______ ____
ROOT
ATOM      1  C   UNL     1       6.217   5.133  15.837  0.00  0.00    +0.000 A 
ATOM      2  C   UNL     1       5.753   6.465  15.735  0.00  0.00    +0.000 A 
ATOM      3  C   UNL     1       4.630   6.905  16.426  0.00  0.00    +0.000 A 
ATOM      4  C   UNL     1       3.953   5.965  17.164  0.00  0.00    +0.000 A 
ATOM      5  C   UNL     1       4.314   4.635  17.194  0.00  0.00    +0.000 A 
ATOM      6  C   UNL     1       5.437   4.181  16.523  0.00  0.00    +0.000 A 
ATOM      7  C   UNL     1       3.349   3.958  18.069  0.00  0.00    +0.000 C 
ATOM      8  O   UNL     1       3.304   2.755  18.226  0.00  0.00    +0.000 OA
ATOM      9  N   UNL     1       2.534   4.927  18.591  0.00  0.00    +0.000 N 
ATOM     10  C   UNL     1       2.823   6.152  18.060  0.00  0.00    +0.000 C 
ATOM     11  O   UNL     1       2.313   7.233  18.285  0.00  0.00    +0.000 OA
ENDROOT
BRANCH   9  12
ATOM     12  C   UNL     1       1.443   4.757  19.543  0.00  0.00    +0.000 C 
ATOM     13  C   UNL     1       1.759   5.111  20.993  0.00  0.00    +0.000 C 
ATOM     14  C   UNL     1       2.437   3.989  21.754  0.00  0.00    +0.000 C 
ATOM     15  C   UNL     1       1.737   2.664  21.565  0.00  0.00    +0.000 C 
ATOM     16  O   UNL     1       1.850   1.746  22.373  0.00  0.00    +0.000 OA
ATOM     17  N   UNL     1       0.985   2.504  20.429  0.00  0.00    +0.000 N 
ATOM     18  C   UNL     1       0.827   3.375  19.381  0.00  0.00    +0.000 C 
ATOM     19  O   UNL     1       0.272   3.014  18.345  0.00  0.00    +0.000 OA
ATOM     20  H   UNL     1       0.589   1.583  20.298  0.00  0.00    +0.000 HD
ENDBRANCH   9  12
BRANCH   1  21
ATOM     21  N   UNL     1       7.423   4.728  15.237  0.00  0.00    +0.000 N 
ATOM     22  H   UNL     1       7.722   3.821  15.594  0.00  0.00    +0.000 HD
BRANCH  21  23
ATOM     23  C   UNL     1       7.397   4.666  13.760  0.00  0.00    +0.000 C 
BRANCH  23  24
ATOM     24  C   UNL     1       6.233   3.811  13.245  0.00  0.00    +0.000 C 
BRANCH  24  25
ATOM     25  N   UNL     1       6.624   2.937  12.132  0.00  0.00    +0.000 NA
ATOM     26  H   UNL     1       6.086   3.215  11.311  0.00  0.00    +0.000 HD
ATOM     27  H   UNL     1       6.333   1.982  12.342  0.00  0.00    +0.000 HD
ENDBRANCH  24  25
ENDBRANCH  23  24
ENDBRANCH  21  23
ENDBRANCH   1  21
TORSDOF 5
ENDMDL
MODEL 8
REMARK VINA RESULT:      -6.9      1.602      2.746
REMARK  Name = 
REMARK  5 active torsions:
REMARK  status: ('A' for Active; 'I' for Inactive)
REMARK    1  A    between atoms: N_1  and  C_2
REMARK    2  A    between atoms: C_2  and  C_3
REMARK    3  A    between atoms: C_3  and  N_4
REMARK    4  A    between atoms: N_4  and  C_5
REMARK    5  A    between atoms: N_13  and  C_14
REMARK                            x       y       z     vdW  Elec       q    Type
REMARK                         _______ _______ _______ _____ _____    ______ ____
ROOT
ATOM      1  C   UNL     1       0.941   8.994  19.606  0.00  0.00    +0.000 A 
ATOM      2  C   UNL     1       1.577   9.471  18.436  0.00  0.00    +0.000 A 
ATOM      3  C   UNL     1       2.550   8.730  17.776  0.00  0.00    +0.000 A 
ATOM      4  C   UNL     1       2.911   7.537  18.352  0.00  0.00    +0.000 A 
ATOM      5  C   UNL     1       2.392   7.096  19.550  0.00  0.00    +0.000 A 
ATOM      6  C   UNL     1       1.412   7.815  20.215  0.00  0.00    +0.000 A 
ATOM      7  C   UNL     1       3.031   5.806  19.836  0.00  0.00    +0.000 C 
ATOM      8  O   UNL     1       2.888   5.194  20.875  0.00  0.00    +0.000 OA
ATOM      9  N   UNL     1       3.813   5.499  18.755  0.00  0.00    +0.000 N 
ATOM     10  C   UNL     1       3.811   6.516  17.841  0.00  0.00    +0.000 C 
ATOM     11  O   UNL     1       4.384   6.595  16.771  0.00  0.00    +0.000 OA
ENDROOT
BRANCH   9  12
ATOM     12  C   UNL     1       4.618   4.302  18.547  0.00  0.00    +0.000 C 
ATOM     13  C   UNL     1       6.068   4.382  19.013  0.00  0.00    +0.000 C 
ATOM     14  C   UNL     1       6.992   5.032  18.002  0.00  0.00    +0.000 C 
ATOM     15  C   UNL     1       6.805   4.471  16.612  0.00  0.00    +0.000 C 
ATOM     16  O   UNL     1       7.684   4.541  15.758  0.00  0.00    +0.000 OA
ATOM     17  N   UNL     1       5.593   3.901  16.320  0.00  0.00    +0.000 N 
ATOM     18  C   UNL     1       4.473   3.824  17.110  0.00  0.00    +0.000 C 
ATOM     19  O   UNL     1       3.400   3.450  16.640  0.00  0.00    +0.000 OA
ATOM     20  H   UNL     1       5.475   3.601  15.362  0.00  0.00    +0.000 HD
ENDBRANCH   9  12
BRANCH   1  21
ATOM     21  N   UNL     1      -0.130   9.690  20.194  0.00  0.00    +0.000 N 
ATOM     22  H   UNL     1      -0.937   9.080  20.324  0.00  0.00    +0.000 HD
BRANCH  21  23
ATOM     23  C   UNL     1       0.180  10.338  21.487  0.00  0.00    +0.000 C 
BRANCH  23  24
ATOM     24  C   UNL     1      -0.640   9.740  22.636  0.00  0.00    +0.000 C 
BRANCH  24  25
ATOM     25  N   UNL     1       0.123   9.649  23.887  0.00  0.00    +0.000 NA
ATOM     26  H   UNL     1      -0.521   9.369  24.628  0.00  0.00    +0.000 HD
ATOM     27  H   UNL     1       0.451  10.580  24.144  0.00  0.00    +0.000 HD
ENDBRANCH  24  25
ENDBRANCH  23  24
ENDBRANCH  21  23
ENDBRANCH   1  21
TORSDOF 5
ENDMDL
MODEL 9
REMARK VINA RESULT:      -6.9      0.615      1.914
REMARK  Name = 
REMARK  5 active torsions:
REMARK  status: ('A' for Active; 'I' for Inactive)
REMARK    1  A    between atoms: N_1  and  C_2
REMARK    2  A    between atoms: C_2  and  C_3
REMARK    3  A    between atoms: C_3  and  N_4
REMARK    4  A    between atoms: N_4  and  C_5
REMARK    5  A    between atoms: N_13  and  C_14
REMARK                            x       y       z     vdW  Elec       q    Type
REMARK                         _______ _______ _______ _____ _____    ______ ____
ROOT
ATOM      1  C   UNL     1       0.837   9.304  19.211  0.00  0.00    +0.000 A 
ATOM      2  C   UNL     1       1.569   9.708  18.070  0.00  0.00    +0.000 A 
ATOM      3  C   UNL     1       2.578   8.920  17.529  0.00  0.00    +0.000 A 
ATOM      4  C   UNL     1       2.874   7.756  18.196  0.00  0.00    +0.000 A 
ATOM      5  C   UNL     1       2.257   7.389  19.372  0.00  0.00    +0.000 A 
ATOM      6  C   UNL     1       1.240   8.155  19.918  0.00  0.00    +0.000 A 
ATOM      7  C   UNL     1       2.852   6.110  19.777  0.00  0.00    +0.000 C 
ATOM      8  O   UNL     1       2.619   5.558  20.834  0.00  0.00    +0.000 OA
ATOM      9  N   UNL     1       3.710   5.734  18.778  0.00  0.00    +0.000 N 
ATOM     10  C   UNL     1       3.795   6.698  17.813  0.00  0.00    +0.000 C 
ATOM     11  O   UNL     1       4.450   6.710  16.788  0.00  0.00    +0.000 OA
ENDROOT
BRANCH   9  12
ATOM     12  C   UNL     1       4.510   4.517  18.700  0.00  0.00    +0.000 C 
ATOM     13  C   UNL     1       5.930   4.614  19.248  0.00  0.00    +0.000 C 
ATOM     14  C   UNL     1       6.922   5.186  18.255  0.00  0.00    +0.000 C 
ATOM     15  C   UNL     1       6.812   4.536  16.896  0.00  0.00    +0.000 C 
ATOM     16  O   UNL     1       7.742   4.540  16.094  0.00  0.00    +0.000 OA
ATOM     17  N   UNL     1       5.611   3.960  16.568  0.00  0.00    +0.000 N 
ATOM     18  C   UNL     1       4.445   3.947  17.291  0.00  0.00    +0.000 C 
ATOM     19  O   UNL     1       3.398   3.553  16.782  0.00  0.00    +0.000 OA
ATOM     20  H   UNL     1       5.548   3.598  15.626  0.00  0.00    +0.000 HD
ENDBRANCH   9  12
BRANCH   1  21
ATOM     21  N   UNL     1      -0.265  10.044  19.675  0.00  0.00    +0.000 N 
ATOM     22  H   UNL     1      -0.433   9.868  20.666  0.00  0.00    +0.000 HD
BRANCH  21  23
ATOM     23  C   UNL     1      -0.169  11.505  19.469  0.00  0.00    +0.000 C 
BRANCH  23  24
ATOM     24  C   UNL     1      -1.437  12.075  18.822  0.00  0.00    +0.000 C 
BRANCH  24  25
ATOM     25  N   UNL     1      -1.202  12.576  17.462  0.00  0.00    +0.000 NA
ATOM     26  H   UNL     1      -2.019  12.342  16.895  0.00  0.00    +0.000 HD
ATOM     27  H   UNL     1      -0.423  12.063  17.049  0.00  0.00    +0.000 HD
ENDBRANCH  24  25
ENDBRANCH  23  24
ENDBRANCH  21  23
ENDBRANCH   1  21
TORSDOF 5
ENDMDL
