MODEL 1
REMARK VINA RESULT:      -6.4      0.000      0.000
REMARK  Name = 
REMARK  7 active torsions:
REMARK  status: ('A' for Active; 'I' for Inactive)
REMARK    1  A    between atoms: C_1  and  C_2
REMARK    2  A    between atoms: C_2  and  C_3
REMARK    3  A    between atoms: N_7  and  C_8
REMARK    4  A    between atoms: C_8  and  C_9
REMARK    5  A    between atoms: C_9  and  C_10
REMARK    6  A    between atoms: C_10  and  C_11
REMARK    7  A    between atoms: N_15  and  C_16
REMARK                            x       y       z     vdW  Elec       q    Type
REMARK                         _______ _______ _______ _____ _____    ______ ____
ROOT
ATOM      1  C   UNL     1       6.974   5.477  17.349  0.00  0.00    +0.000 A 
ATOM      2  N   UNL     1       7.449   4.784  16.312  0.00  0.00    +0.000 NA
ATOM      3  S   UNL     1       6.134   4.018  15.624  0.00  0.00    +0.000 S 
ATOM      4  C   UNL     1       5.016   4.661  16.774  0.00  0.00    +0.000 A 
ATOM      5  N   UNL     1       3.698   4.361  16.766  0.00  0.00    +0.000 N 
ATOM      6  N   UNL     1       5.617   5.447  17.638  0.00  0.00    +0.000 NA
ATOM      7  H   UNL     1       3.297   3.898  15.958  0.00  0.00    +0.000 HD
ENDROOT
BRANCH   1   9
ATOM      8  C   UNL     1       7.788   5.769  19.680  0.00  0.00    +0.000 C 
ATOM      9  C   UNL     1       7.890   6.243  18.239  0.00  0.00    +0.000 C 
ENDBRANCH   1   9
BRANCH   5  10
ATOM     10  C   UNL     1       2.810   5.036  17.689  0.00  0.00    +0.000 C 
BRANCH  10  11
ATOM     11  C   UNL     1       1.495   4.263  17.810  0.00  0.00    +0.000 C 
BRANCH  11  12
ATOM     12  C   UNL     1       1.750   2.827  18.267  0.00  0.00    +0.000 C 
BRANCH  12  13
ATOM     13  C   UNL     1       1.869   2.737  19.749  0.00  0.00    +0.000 A 
ATOM     14  N   UNL     1       0.881   2.853  20.618  0.00  0.00    +0.000 NA
ATOM     15  C   UNL     1       1.503   2.723  21.826  0.00  0.00    +0.000 A 
ATOM     16  N   UNL     1       2.820   2.521  21.767  0.00  0.00    +0.000 NA
ATOM     17  N   UNL     1       3.035   2.534  20.439  0.00  0.00    +0.000 N 
ATOM     18  C   UNL     1       4.367   2.357  19.919  0.00  0.00    +0.000 C 
ENDBRANCH  12  13
ENDBRANCH  11  12
ENDBRANCH  10  11
ENDBRANCH   5  10
TORSDOF 5
ENDMDL
MODEL 2
REMARK VINA RESULT:      -6.4      2.027      2.821
REMARK  Name = 
REMARK  7 active torsions:
REMARK  status: ('A' for Active; 'I' for Inactive)
REMARK    1  A    between atoms: C_1  and  C_2
REMARK    2  A    between atoms: C_2  and  C_3
REMARK    3  A    between atoms: N_7  and  C_8
REMARK    4  A    between atoms: C_8  and  C_9
REMARK    5  A    between atoms: C_9  and  C_10
REMARK    6  A    between atoms: C_10  and  C_11
REMARK    7  A    between atoms: N_15  and  C_16
REMARK                            x       y       z     vdW  Elec       q    Type
REMARK                         _______ _______ _______ _____ _____    ______ ____
ROOT
ATOM      1  C   UNL     1       6.594   4.481  14.155  0.00  0.00    +0.000 A 
ATOM      2  N   UNL     1       7.512   5.246  14.750  0.00  0.00    +0.000 NA
ATOM      3  S   UNL     1       6.941   5.542  16.292  0.00  0.00    +0.000 S 
ATOM      4  C   UNL     1       5.492   4.632  16.052  0.00  0.00    +0.000 A 
ATOM      5  N   UNL     1       4.534   4.512  16.997  0.00  0.00    +0.000 N 
ATOM      6  N   UNL     1       5.453   4.104  14.850  0.00  0.00    +0.000 NA
ATOM      7  H   UNL     1       4.734   4.797  17.949  0.00  0.00    +0.000 HD
ENDROOT
BRANCH   1   9
ATOM      8  C   UNL     1       5.534   3.296  12.244  0.00  0.00    +0.000 C 
ATOM      9  C   UNL     1       6.749   4.069  12.734  0.00  0.00    +0.000 C 
ENDBRANCH   1   9
BRANCH   5  10
ATOM     10  C   UNL     1       3.407   3.633  16.760  0.00  0.00    +0.000 C 
BRANCH  10  11
ATOM     11  C   UNL     1       2.252   3.999  17.693  0.00  0.00    +0.000 C 
BRANCH  11  12
ATOM     12  C   UNL     1       1.645   2.745  18.323  0.00  0.00    +0.000 C 
BRANCH  12  13
ATOM     13  C   UNL     1       1.821   2.737  19.802  0.00  0.00    +0.000 A 
ATOM     14  N   UNL     1       0.880   2.969  20.700  0.00  0.00    +0.000 NA
ATOM     15  C   UNL     1       1.543   2.871  21.889  0.00  0.00    +0.000 A 
ATOM     16  N   UNL     1       2.842   2.581  21.791  0.00  0.00    +0.000 NA
ATOM     17  N   UNL     1       3.000   2.500  20.458  0.00  0.00    +0.000 N 
ATOM     18  C   UNL     1       4.296   2.206  19.899  0.00  0.00    +0.000 C 
ENDBRANCH  12  13
ENDBRANCH  11  12
ENDBRANCH  10  11
ENDBRANCH   5  10
TORSDOF 5
ENDMDL
MODEL 3
REMARK VINA RESULT:      -6.3      1.308      1.534
REMARK  Name = 
REMARK  7 active torsions:
REMARK  status: ('A' for Active; 'I' for Inactive)
REMARK    1  A    between atoms: C_1  and  C_2
REMARK    2  A    between atoms: C_2  and  C_3
REMARK    3  A    between atoms: N_7  and  C_8
REMARK    4  A    between atoms: C_8  and  C_9
REMARK    5  A    between atoms: C_9  and  C_10
REMARK    6  A    between atoms: C_10  and  C_11
REMARK    7  A    between atoms: N_15  and  C_16
REMARK                            x       y       z     vdW  Elec       q    Type
REMARK                         _______ _______ _______ _____ _____    ______ ____
ROOT
ATOM      1  C   UNL     1       6.963   5.911  16.765  0.00  0.00    +0.000 A 
ATOM      2  N   UNL     1       7.434   5.592  15.558  0.00  0.00    +0.000 NA
ATOM      3  S   UNL     1       6.551   4.269  15.048  0.00  0.00    +0.000 S 
ATOM      4  C   UNL     1       5.602   4.206  16.491  0.00  0.00    +0.000 A 
ATOM      5  N   UNL     1       4.660   3.263  16.711  0.00  0.00    +0.000 N 
ATOM      6  N   UNL     1       5.930   5.169  17.322  0.00  0.00    +0.000 NA
ATOM      7  H   UNL     1       4.350   2.678  15.943  0.00  0.00    +0.000 HD
ENDROOT
BRANCH   1   9
ATOM      8  C   UNL     1       8.080   6.531  18.897  0.00  0.00    +0.000 C 
ATOM      9  C   UNL     1       7.568   7.020  17.552  0.00  0.00    +0.000 C 
ENDBRANCH   1   9
BRANCH   5  10
ATOM     10  C   UNL     1       3.826   3.352  17.892  0.00  0.00    +0.000 C 
BRANCH  10  11
ATOM     11  C   UNL     1       2.596   4.213  17.601  0.00  0.00    +0.000 C 
BRANCH  11  12
ATOM     12  C   UNL     1       1.366   3.666  18.325  0.00  0.00    +0.000 C 
BRANCH  12  13
ATOM     13  C   UNL     1       1.666   3.349  19.749  0.00  0.00    +0.000 A 
ATOM     14  N   UNL     1       1.736   2.141  20.279  0.00  0.00    +0.000 NA
ATOM     15  C   UNL     1       2.006   2.387  21.595  0.00  0.00    +0.000 A 
ATOM     16  N   UNL     1       2.120   3.675  21.919  0.00  0.00    +0.000 NA
ATOM     17  N   UNL     1       1.899   4.272  20.734  0.00  0.00    +0.000 N 
ATOM     18  C   UNL     1       1.920   5.709  20.631  0.00  0.00    +0.000 C 
ENDBRANCH  12  13
ENDBRANCH  11  12
ENDBRANCH  10  11
ENDBRANCH   5  10
TORSDOF 5
ENDMDL
MODEL 4
REMARK VINA RESULT:      -6.3      1.859      2.942
REMARK  Name = 
REMARK  7 active torsions:
REMARK  status: ('A' for Active; 'I' for Inactive)
REMARK    1  A    between atoms: C_1  and  C_2
REMARK    2  A    between atoms: C_2  and  C_3
REMARK    3  A    between atoms: N_7  and  C_8
REMARK    4  A    between atoms: C_8  and  C_9
REMARK    5  A    between atoms: C_9  and  C_10
REMARK    6  A    between atoms: C_10  and  C_11
REMARK    7  A    between atoms: N_15  and  C_16
REMARK                            x       y       z     vdW  Elec       q    Type
REMARK                         _______ _______ _______ _____ _____    ______ ____
ROOT
ATOM      1  C   UNL     1       6.831   4.971  15.422  0.00  0.00    +0.000 A 
ATOM      2  N   UNL     1       7.785   4.541  16.250  0.00  0.00    +0.000 NA
ATOM      3  S   UNL     1       7.293   4.967  17.788  0.00  0.00    +0.000 S 
ATOM      4  C   UNL     1       5.835   5.713  17.236  0.00  0.00    +0.000 A 
ATOM      5  N   UNL     1       4.958   6.318  18.067  0.00  0.00    +0.000 N 
ATOM      6  N   UNL     1       5.716   5.623  15.931  0.00  0.00    +0.000 NA
ATOM      7  H   UNL     1       5.041   6.177  19.068  0.00  0.00    +0.000 HD
ENDROOT
BRANCH   1   9
ATOM      8  C   UNL     1       6.041   3.732  13.417  0.00  0.00    +0.000 C 
ATOM      9  C   UNL     1       6.969   4.812  13.948  0.00  0.00    +0.000 C 
ENDBRANCH   1   9
BRANCH   5  10
ATOM     10  C   UNL     1       3.703   6.812  17.540  0.00  0.00    +0.000 C 
BRANCH  10  11
ATOM     11  C   UNL     1       2.532   6.164  18.281  0.00  0.00    +0.000 C 
BRANCH  11  12
ATOM     12  C   UNL     1       2.367   4.703  17.864  0.00  0.00    +0.000 C 
BRANCH  12  13
ATOM     13  C   UNL     1       2.927   3.776  18.886  0.00  0.00    +0.000 A 
ATOM     14  N   UNL     1       4.093   3.158  18.822  0.00  0.00    +0.000 NA
ATOM     15  C   UNL     1       4.125   2.418  19.969  0.00  0.00    +0.000 A 
ATOM     16  N   UNL     1       3.054   2.543  20.754  0.00  0.00    +0.000 NA
ATOM     17  N   UNL     1       2.303   3.408  20.049  0.00  0.00    +0.000 N 
ATOM     18  C   UNL     1       1.014   3.821  20.546  0.00  0.00    +0.000 C 
ENDBRANCH  12  13
ENDBRANCH  11  12
ENDBRANCH  10  11
ENDBRANCH   5  10
TORSDOF 5
ENDMDL
MODEL 5
REMARK VINA RESULT:      -6.2      1.906      2.788
REMARK  Name = 
REMARK  7 active torsions:
REMARK  status: ('A' for Active; 'I' for Inactive)
REMARK    1  A    between atoms: C_1  and  C_2
REMARK    2  A    between atoms: C_2  and  C_3
REMARK    3  A    between atoms: N_7  and  C_8
REMARK    4  A    between atoms: C_8  and  C_9
REMARK    5  A    between atoms: C_9  and  C_10
REMARK    6  A    between atoms: C_10  and  C_11
REMARK    7  A    between atoms: N_15  and  C_16
REMARK                            x       y       z     vdW  Elec       q    Type
REMARK                         _______ _______ _______ _____ _____    ______ ____
ROOT
ATOM      1  C   UNL     1       6.797   4.917  15.520  0.00  0.00    +0.000 A 
ATOM      2  N   UNL     1       7.793   4.509  16.310  0.00  0.00    +0.000 NA
ATOM      3  S   UNL     1       7.311   4.840  17.874  0.00  0.00    +0.000 S 
ATOM      4  C   UNL     1       5.800   5.521  17.383  0.00  0.00    +0.000 A 
ATOM      5  N   UNL     1       4.907   6.037  18.257  0.00  0.00    +0.000 N 
ATOM      6  N   UNL     1       5.657   5.479  16.078  0.00  0.00    +0.000 NA
ATOM      7  H   UNL     1       5.020   5.860  19.249  0.00  0.00    +0.000 HD
ENDROOT
BRANCH   1   9
ATOM      8  C   UNL     1       6.000   3.751  13.474  0.00  0.00    +0.000 C 
ATOM      9  C   UNL     1       6.913   4.828  14.038  0.00  0.00    +0.000 C 
ENDBRANCH   1   9
BRANCH   5  10
ATOM     10  C   UNL     1       3.614   6.477  17.775  0.00  0.00    +0.000 C 
BRANCH  10  11
ATOM     11  C   UNL     1       2.597   6.461  18.917  0.00  0.00    +0.000 C 
BRANCH  11  12
ATOM     12  C   UNL     1       2.921   5.350  19.917  0.00  0.00    +0.000 C 
BRANCH  12  13
ATOM     13  C   UNL     1       2.335   4.048  19.497  0.00  0.00    +0.000 A 
ATOM     14  N   UNL     1       1.080   3.837  19.141  0.00  0.00    +0.000 NA
ATOM     15  C   UNL     1       1.044   2.497  18.879  0.00  0.00    +0.000 A 
ATOM     16  N   UNL     1       2.204   1.857  19.038  0.00  0.00    +0.000 NA
ATOM     17  N   UNL     1       3.012   2.858  19.433  0.00  0.00    +0.000 N 
ATOM     18  C   UNL     1       4.397   2.596  19.733  0.00  0.00    +0.000 C 
ENDBRANCH  12  13
ENDBRANCH  11  12
ENDBRANCH  10  11
ENDBRANCH   5  10
TORSDOF 5
ENDMDL
MODEL 6
REMARK VINA RESULT:      -6.0      1.983      2.703
REMARK  Name = 
REMARK  7 active torsions:
REMARK  status: ('A' for Active; 'I' for Inactive)
REMARK    1  A    between atoms: C_1  and  C_2
REMARK    2  A    between atoms: C_2  and  C_3
REMARK    3  A    between atoms: N_7  and  C_8
REMARK    4  A    between atoms: C_8  and  C_9
REMARK    5  A    between atoms: C_9  and  C_10
REMARK    6  A    between atoms: C_10  and  C_11
REMARK    7  A    between atoms: N_15  and  C_16
REMARK                            x       y       z     vdW  Elec       q    Type
REMARK                         _______ _______ _______ _____ _____    ______ ____
ROOT
ATOM      1  C   UNL     1       6.758   4.862  15.382  0.00  0.00    +0.000 A 
ATOM      2  N   UNL     1       7.563   5.692  16.049  0.00  0.00    +0.000 NA
ATOM      3  S   UNL     1       6.990   5.735  17.617  0.00  0.00    +0.000 S 
ATOM      4  C   UNL     1       5.691   4.643  17.291  0.00  0.00    +0.000 A 
ATOM      5  N   UNL     1       4.784   4.280  18.225  0.00  0.00    +0.000 N 
ATOM      6  N   UNL     1       5.704   4.244  16.040  0.00  0.00    +0.000 NA
ATOM      7  H   UNL     1       4.961   4.491  19.201  0.00  0.00    +0.000 HD
ENDROOT
BRANCH   1   9
ATOM      8  C   UNL     1       5.826   3.765  13.356  0.00  0.00    +0.000 C 
ATOM      9  C   UNL     1       6.940   4.630  13.923  0.00  0.00    +0.000 C 
ENDBRANCH   1   9
BRANCH   5  10
ATOM     10  C   UNL     1       3.799   3.269  17.904  0.00  0.00    +0.000 C 
BRANCH  10  11
ATOM     11  C   UNL     1       2.527   3.927  17.366  0.00  0.00    +0.000 C 
BRANCH  11  12
ATOM     12  C   UNL     1       1.317   3.549  18.221  0.00  0.00    +0.000 C 
BRANCH  12  13
ATOM     13  C   UNL     1       1.693   3.365  19.650  0.00  0.00    +0.000 A 
ATOM     14  N   UNL     1       1.822   2.210  20.280  0.00  0.00    +0.000 NA
ATOM     15  C   UNL     1       2.147   2.577  21.554  0.00  0.00    +0.000 A 
ATOM     16  N   UNL     1       2.241   3.892  21.759  0.00  0.00    +0.000 NA
ATOM     17  N   UNL     1       1.948   4.376  20.539  0.00  0.00    +0.000 N 
ATOM     18  C   UNL     1       1.924   5.799  20.311  0.00  0.00    +0.000 C 
ENDBRANCH  12  13
ENDBRANCH  11  12
ENDBRANCH  10  11
ENDBRANCH   5  10
TORSDOF 5
ENDMDL
MODEL 7
REMARK VINA RESULT:      -6.0      1.530      2.187
REMARK  Name = 
REMARK  7 active torsions:
REMARK  status: ('A' for Active; 'I' for Inactive)
REMARK    1  A    between atoms: C_1  and  C_2
REMARK    2  A    between atoms: C_2  and  C_3
REMARK    3  A    between atoms: N_7  and  C_8
REMARK    4  A    between atoms: C_8  and  C_9
REMARK    5  A    between atoms: C_9  and  C_10
REMARK    6  A    between atoms: C_10  and  C_11
REMARK    7  A    between atoms: N_15  and  C_16
REMARK                            x       y       z     vdW  Elec       q    Type
REMARK                         _______ _______ _______ _____ _____    ______ ____
ROOT
ATOM      1  C   UNL     1       7.087   5.917  17.284  0.00  0.00    +0.000 A 
ATOM      2  N   UNL     1       7.312   6.059  15.976  0.00  0.00    +0.000 NA
ATOM      3  S   UNL     1       6.320   4.954  15.211  0.00  0.00    +0.000 S 
ATOM      4  C   UNL     1       5.663   4.351  16.691  0.00  0.00    +0.000 A 
ATOM      5  N   UNL     1       4.761   3.345  16.740  0.00  0.00    +0.000 N 
ATOM      6  N   UNL     1       6.164   4.981  17.729  0.00  0.00    +0.000 NA
ATOM      7  H   UNL     1       4.299   3.049  15.888  0.00  0.00    +0.000 HD
ENDROOT
BRANCH   1   9
ATOM      8  C   UNL     1       8.082   5.926  19.562  0.00  0.00    +0.000 C 
ATOM      9  C   UNL     1       7.853   6.713  18.281  0.00  0.00    +0.000 C 
ENDBRANCH   1   9
BRANCH   5  10
ATOM     10  C   UNL     1       4.170   2.981  18.011  0.00  0.00    +0.000 C 
BRANCH  10  11
ATOM     11  C   UNL     1       2.775   2.394  17.791  0.00  0.00    +0.000 C 
BRANCH  11  12
ATOM     12  C   UNL     1       1.731   3.504  17.676  0.00  0.00    +0.000 C 
BRANCH  12  13
ATOM     13  C   UNL     1       1.898   4.526  18.745  0.00  0.00    +0.000 A 
ATOM     14  N   UNL     1       2.298   5.774  18.574  0.00  0.00    +0.000 NA
ATOM     15  C   UNL     1       2.312   6.280  19.842  0.00  0.00    +0.000 A 
ATOM     16  N   UNL     1       1.934   5.429  20.797  0.00  0.00    +0.000 NA
ATOM     17  N   UNL     1       1.677   4.319  20.081  0.00  0.00    +0.000 N 
ATOM     18  C   UNL     1       1.237   3.116  20.743  0.00  0.00    +0.000 C 
ENDBRANCH  12  13
ENDBRANCH  11  12
ENDBRANCH  10  11
ENDBRANCH   5  10
TORSDOF 5
ENDMDL
MODEL 8
REMARK VINA RESULT:      -6.0      2.996      4.719
REMARK  Name = 
REMARK  7 active torsions:
REMARK  status: ('A' for Active; 'I' for Inactive)
REMARK    1  A    between atoms: C_1  and  C_2
REMARK    2  A    between atoms: C_2  and  C_3
REMARK    3  A    between atoms: N_7  and  C_8
REMARK    4  A    between atoms: C_8  and  C_9
REMARK    5  A    between atoms: C_9  and  C_10
REMARK    6  A    between atoms: C_10  and  C_11
REMARK    7  A    between atoms: N_15  and  C_16
REMARK                            x       y       z     vdW  Elec       q    Type
REMARK                         _______ _______ _______ _____ _____    ______ ____
ROOT
ATOM      1  C   UNL     1       6.353   3.629  12.588  0.00  0.00    +0.000 A 
ATOM      2  N   UNL     1       7.217   4.319  11.839  0.00  0.00    +0.000 NA
ATOM      3  S   UNL     1       8.004   5.362  12.878  0.00  0.00    +0.000 S 
ATOM      4  C   UNL     1       7.123   4.826  14.264  0.00  0.00    +0.000 A 
ATOM      5  N   UNL     1       7.297   5.354  15.496  0.00  0.00    +0.000 N 
ATOM      6  N   UNL     1       6.275   3.872  13.953  0.00  0.00    +0.000 NA
ATOM      7  H   UNL     1       8.097   5.951  15.675  0.00  0.00    +0.000 HD
ENDROOT
BRANCH   1   9
ATOM      8  C   UNL     1       4.207   3.315  11.374  0.00  0.00    +0.000 C 
ATOM      9  C   UNL     1       5.430   2.638  11.972  0.00  0.00    +0.000 C 
ENDBRANCH   1   9
BRANCH   5  10
ATOM     10  C   UNL     1       6.607   4.765  16.626  0.00  0.00    +0.000 C 
BRANCH  10  11
ATOM     11  C   UNL     1       6.340   5.831  17.690  0.00  0.00    +0.000 C 
BRANCH  11  12
ATOM     12  C   UNL     1       5.648   5.220  18.908  0.00  0.00    +0.000 C 
BRANCH  12  13
ATOM     13  C   UNL     1       4.247   4.821  18.599  0.00  0.00    +0.000 A 
ATOM     14  N   UNL     1       3.353   5.551  17.956  0.00  0.00    +0.000 NA
ATOM     15  C   UNL     1       2.240   4.761  17.954  0.00  0.00    +0.000 A 
ATOM     16  N   UNL     1       2.385   3.575  18.546  0.00  0.00    +0.000 NA
ATOM     17  N   UNL     1       3.666   3.631  18.951  0.00  0.00    +0.000 N 
ATOM     18  C   UNL     1       4.249   2.524  19.668  0.00  0.00    +0.000 C 
ENDBRANCH  12  13
ENDBRANCH  11  12
ENDBRANCH  10  11
ENDBRANCH   5  10
TORSDOF 5
ENDMDL
MODEL 9
REMARK VINA RESULT:      -5.9      0.789      1.611
REMARK  Name = 
REMARK  7 active torsions:
REMARK  status: ('A' for Active; 'I' for Inactive)
REMARK    1  A    between atoms: C_1  and  C_2
REMARK    2  A    between atoms: C_2  and  C_3
REMARK    3  A    between atoms: N_7  and  C_8
REMARK    4  A    between atoms: C_8  and  C_9
REMARK    5  A    between atoms: C_9  and  C_10
REMARK    6  A    between atoms: C_10  and  C_11
REMARK    7  A    between atoms: N_15  and  C_16
REMARK                            x       y       z     vdW  Elec       q    Type
REMARK                         _______ _______ _______ _____ _____    ______ ____
ROOT
ATOM      1  C   UNL     1       6.967   5.413  17.577  0.00  0.00    +0.000 A 
ATOM      2  N   UNL     1       7.556   4.847  16.521  0.00  0.00    +0.000 NA
ATOM      3  S   UNL     1       6.352   4.034  15.698  0.00  0.00    +0.000 S 
ATOM      4  C   UNL     1       5.121   4.486  16.824  0.00  0.00    +0.000 A 
ATOM      5  N   UNL     1       3.837   4.079  16.713  0.00  0.00    +0.000 N 
ATOM      6  N   UNL     1       5.603   5.246  17.780  0.00  0.00    +0.000 NA
ATOM      7  H   UNL     1       3.522   3.651  15.849  0.00  0.00    +0.000 HD
ENDROOT
BRANCH   1   9
ATOM      8  C   UNL     1       8.016   7.602  18.111  0.00  0.00    +0.000 C 
ATOM      9  C   UNL     1       7.762   6.177  18.577  0.00  0.00    +0.000 C 
ENDBRANCH   1   9
BRANCH   5  10
ATOM     10  C   UNL     1       2.844   4.601  17.629  0.00  0.00    +0.000 C 
BRANCH  10  11
ATOM     11  C   UNL     1       1.562   3.772  17.539  0.00  0.00    +0.000 C 
BRANCH  11  12
ATOM     12  C   UNL     1       1.288   3.052  18.860  0.00  0.00    +0.000 C 
BRANCH  12  13
ATOM     13  C   UNL     1       2.547   2.570  19.492  0.00  0.00    +0.000 A 
ATOM     14  N   UNL     1       3.489   1.854  18.905  0.00  0.00    +0.000 NA
ATOM     15  C   UNL     1       4.402   1.652  19.900  0.00  0.00    +0.000 A 
ATOM     16  N   UNL     1       4.095   2.209  21.073  0.00  0.00    +0.000 NA
ATOM     17  N   UNL     1       2.912   2.787  20.795  0.00  0.00    +0.000 N 
ATOM     18  C   UNL     1       2.201   3.510  21.819  0.00  0.00    +0.000 C 
ENDBRANCH  12  13
ENDBRANCH  11  12
ENDBRANCH  10  11
ENDBRANCH   5  10
TORSDOF 5
ENDMDL
