MODEL 1
REMARK VINA RESULT:      -7.4      0.000      0.000
REMARK  Name = 
REMARK  6 active torsions:
REMARK  status: ('A' for Active; 'I' for Inactive)
REMARK    1  A    between atoms: C_1  and  C_2
REMARK    2  A    between atoms: C_2  and  C_3
REMARK    3  A    between atoms: C_3  and  N_4
REMARK    4  A    between atoms: C_5  and  C_6
REMARK    5  A    between atoms: C_9  and  C_10
REMARK    6  A    between atoms: C_13  and  C_15
REMARK                            x       y       z     vdW  Elec       q    Type
REMARK                         _______ _______ _______ _____ _____    ______ ____
ROOT
ATOM      1  C   UNL     1       4.142   4.552  17.615  0.00  0.00    +0.000 C 
ATOM      2  C   UNL     1       5.375   5.493  17.651  0.00  0.00    +0.000 C 
ATOM      3  N   UNL     1       5.560   5.109  16.245  0.00  0.00    +0.000 N 
ATOM      4  C   UNL     1       6.714   5.328  15.518  0.00  0.00    +0.000 C 
ATOM      5  O   UNL     1       7.643   6.012  15.938  0.00  0.00    +0.000 OA
ATOM      6  C   UNL     1       4.931   3.809  16.505  0.00  0.00    +0.000 C 
ENDROOT
BRANCH   1  12
ATOM      7  N   UNL     1       2.819   3.780  19.709  0.00  0.00    +0.000 N 
ATOM      8  C   UNL     1       3.021   2.867  20.723  0.00  0.00    +0.000 A 
ATOM      9  C   UNL     1       2.096   2.587  21.848  0.00  0.00    +0.000 C 
ATOM     10  C   UNL     1       4.250   2.308  20.442  0.00  0.00    +0.000 A 
ATOM     11  N   UNL     1       4.797   2.854  19.316  0.00  0.00    +0.000 NA
ATOM     12  C   UNL     1       3.923   3.735  18.882  0.00  0.00    +0.000 A 
BRANCH   7  13
ATOM     13  C   UNL     1       1.653   4.633  19.543  0.00  0.00    +0.000 C 
BRANCH  13  15
ATOM     14  C   UNL     1       2.339   7.054  19.640  0.00  0.00    +0.000 C 
ATOM     15  C   UNL     1       1.732   5.890  20.406  0.00  0.00    +0.000 C 
ENDBRANCH  13  15
ENDBRANCH   7  13
ENDBRANCH   1  12
BRANCH   4  16
ATOM     16  C   UNL     1       6.737   4.729  14.191  0.00  0.00    +0.000 A 
ATOM     17  C   UNL     1       5.914   3.716  13.615  0.00  0.00    +0.000 A 
ATOM     18  C   UNL     1       6.343   3.546  12.319  0.00  0.00    +0.000 A 
ATOM     19  O   UNL     1       7.368   4.391  12.049  0.00  0.00    +0.000 OA
ATOM     20  C   UNL     1       7.592   5.114  13.177  0.00  0.00    +0.000 A 
ENDBRANCH   4  16
TORSDOF 4
ENDMDL
MODEL 2
REMARK VINA RESULT:      -7.1      1.067      1.118
REMARK  Name = 
REMARK  6 active torsions:
REMARK  status: ('A' for Active; 'I' for Inactive)
REMARK    1  A    between atoms: C_1  and  C_2
REMARK    2  A    between atoms: C_2  and  C_3
REMARK    3  A    between atoms: C_3  and  N_4
REMARK    4  A    between atoms: C_5  and  C_6
REMARK    5  A    between atoms: C_9  and  C_10
REMARK    6  A    between atoms: C_13  and  C_15
REMARK                            x       y       z     vdW  Elec       q    Type
REMARK                         _______ _______ _______ _____ _____    ______ ____
ROOT
ATOM      1  C   UNL     1       3.851   4.584  17.449  0.00  0.00    +0.000 C 
ATOM      2  C   UNL     1       5.339   4.778  17.844  0.00  0.00    +0.000 C 
ATOM      3  N   UNL     1       5.605   4.738  16.400  0.00  0.00    +0.000 N 
ATOM      4  C   UNL     1       6.854   4.564  15.837  0.00  0.00    +0.000 C 
ATOM      5  O   UNL     1       7.889   4.586  16.498  0.00  0.00    +0.000 OA
ATOM      6  C   UNL     1       4.434   3.877  16.197  0.00  0.00    +0.000 C 
ENDROOT
BRANCH   1  12
ATOM      7  N   UNL     1       2.661   3.949  19.665  0.00  0.00    +0.000 N 
ATOM      8  C   UNL     1       1.949   2.860  20.126  0.00  0.00    +0.000 A 
ATOM      9  C   UNL     1       1.342   2.717  21.471  0.00  0.00    +0.000 C 
ATOM     10  C   UNL     1       1.949   1.977  19.068  0.00  0.00    +0.000 A 
ATOM     11  N   UNL     1       2.639   2.479  18.001  0.00  0.00    +0.000 NA
ATOM     12  C   UNL     1       3.058   3.669  18.373  0.00  0.00    +0.000 A 
BRANCH   7  13
ATOM     13  C   UNL     1       2.941   5.168  20.406  0.00  0.00    +0.000 C 
BRANCH  13  15
ATOM     14  C   UNL     1       2.283   7.405  19.456  0.00  0.00    +0.000 C 
ATOM     15  C   UNL     1       1.824   6.200  20.260  0.00  0.00    +0.000 C 
ENDBRANCH  13  15
ENDBRANCH   7  13
ENDBRANCH   1  12
BRANCH   4  16
ATOM     16  C   UNL     1       6.868   4.399  14.390  0.00  0.00    +0.000 A 
ATOM     17  C   UNL     1       6.090   3.554  13.544  0.00  0.00    +0.000 A 
ATOM     18  C   UNL     1       6.484   3.816  12.253  0.00  0.00    +0.000 A 
ATOM     19  O   UNL     1       7.444   4.773  12.239  0.00  0.00    +0.000 OA
ATOM     20  C   UNL     1       7.662   5.133  13.530  0.00  0.00    +0.000 A 
ENDBRANCH   4  16
TORSDOF 4
ENDMDL
MODEL 3
REMARK VINA RESULT:      -7.0      0.752      1.367
REMARK  Name = 
REMARK  6 active torsions:
REMARK  status: ('A' for Active; 'I' for Inactive)
REMARK    1  A    between atoms: C_1  and  C_2
REMARK    2  A    between atoms: C_2  and  C_3
REMARK    3  A    between atoms: C_3  and  N_4
REMARK    4  A    between atoms: C_5  and  C_6
REMARK    5  A    between atoms: C_9  and  C_10
REMARK    6  A    between atoms: C_13  and  C_15
REMARK                            x       y       z     vdW  Elec       q    Type
REMARK                         _______ _______ _______ _____ _____    ______ ____
ROOT
ATOM      1  C   UNL     1       4.249   4.561  17.639  0.00  0.00    +0.000 C 
ATOM      2  C   UNL     1       5.488   5.495  17.621  0.00  0.00    +0.000 C 
ATOM      3  N   UNL     1       5.625   5.092  16.216  0.00  0.00    +0.000 N 
ATOM      4  C   UNL     1       6.754   5.293  15.448  0.00  0.00    +0.000 C 
ATOM      5  O   UNL     1       7.701   5.978  15.828  0.00  0.00    +0.000 OA
ATOM      6  C   UNL     1       4.997   3.799  16.514  0.00  0.00    +0.000 C 
ENDROOT
BRANCH   1  12
ATOM      7  N   UNL     1       2.924   3.692  19.693  0.00  0.00    +0.000 N 
ATOM      8  C   UNL     1       3.186   2.844  20.749  0.00  0.00    +0.000 A 
ATOM      9  C   UNL     1       2.245   2.483  21.837  0.00  0.00    +0.000 C 
ATOM     10  C   UNL     1       4.488   2.438  20.550  0.00  0.00    +0.000 A 
ATOM     11  N   UNL     1       5.021   3.014  19.432  0.00  0.00    +0.000 NA
ATOM     12  C   UNL     1       4.067   3.763  18.923  0.00  0.00    +0.000 A 
BRANCH   7  13
ATOM     13  C   UNL     1       1.671   4.384  19.438  0.00  0.00    +0.000 C 
BRANCH  13  15
ATOM     14  C   UNL     1       0.624   2.248  18.613  0.00  0.00    +0.000 C 
ATOM     15  C   UNL     1       0.863   3.721  18.324  0.00  0.00    +0.000 C 
ENDBRANCH  13  15
ENDBRANCH   7  13
ENDBRANCH   1  12
BRANCH   4  16
ATOM     16  C   UNL     1       6.731   4.677  14.129  0.00  0.00    +0.000 A 
ATOM     17  C   UNL     1       5.842   3.710  13.572  0.00  0.00    +0.000 A 
ATOM     18  C   UNL     1       6.250   3.497  12.276  0.00  0.00    +0.000 A 
ATOM     19  O   UNL     1       7.323   4.273  11.988  0.00  0.00    +0.000 OA
ATOM     20  C   UNL     1       7.600   4.995  13.104  0.00  0.00    +0.000 A 
ENDBRANCH   4  16
TORSDOF 4
ENDMDL
MODEL 4
REMARK VINA RESULT:      -7.0      1.309      2.349
REMARK  Name = 
REMARK  6 active torsions:
REMARK  status: ('A' for Active; 'I' for Inactive)
REMARK    1  A    between atoms: C_1  and  C_2
REMARK    2  A    between atoms: C_2  and  C_3
REMARK    3  A    between atoms: C_3  and  N_4
REMARK    4  A    between atoms: C_5  and  C_6
REMARK    5  A    between atoms: C_9  and  C_10
REMARK    6  A    between atoms: C_13  and  C_15
REMARK                            x       y       z     vdW  Elec       q    Type
REMARK                         _______ _______ _______ _____ _____    ______ ____
ROOT
ATOM      1  C   UNL     1       4.353   5.989  18.158  0.00  0.00    +0.000 C 
ATOM      2  C   UNL     1       5.837   5.631  18.438  0.00  0.00    +0.000 C 
ATOM      3  N   UNL     1       5.927   5.381  16.994  0.00  0.00    +0.000 N 
ATOM      4  C   UNL     1       6.959   4.701  16.378  0.00  0.00    +0.000 C 
ATOM      5  O   UNL     1       7.987   4.379  16.969  0.00  0.00    +0.000 OA
ATOM      6  C   UNL     1       4.505   5.019  16.956  0.00  0.00    +0.000 C 
ENDROOT
BRANCH   1  12
ATOM      7  N   UNL     1       3.305   4.261  19.784  0.00  0.00    +0.000 N 
ATOM      8  C   UNL     1       2.287   4.274  20.716  0.00  0.00    +0.000 A 
ATOM      9  C   UNL     1       1.854   3.131  21.555  0.00  0.00    +0.000 C 
ATOM     10  C   UNL     1       1.794   5.561  20.668  0.00  0.00    +0.000 A 
ATOM     11  N   UNL     1       2.459   6.313  19.743  0.00  0.00    +0.000 NA
ATOM     12  C   UNL     1       3.369   5.519  19.221  0.00  0.00    +0.000 A 
BRANCH   7  13
ATOM     13  C   UNL     1       4.154   3.128  19.457  0.00  0.00    +0.000 C 
BRANCH  13  15
ATOM     14  C   UNL     1       2.523   2.294  17.730  0.00  0.00    +0.000 C 
ATOM     15  C   UNL     1       3.349   1.932  18.953  0.00  0.00    +0.000 C 
ENDBRANCH  13  15
ENDBRANCH   7  13
ENDBRANCH   1  12
BRANCH   4  16
ATOM     16  C   UNL     1       6.771   4.433  14.959  0.00  0.00    +0.000 A 
ATOM     17  C   UNL     1       5.830   3.594  14.290  0.00  0.00    +0.000 A 
ATOM     18  C   UNL     1       6.068   3.731  12.942  0.00  0.00    +0.000 A 
ATOM     19  O   UNL     1       7.082   4.604  12.729  0.00  0.00    +0.000 OA
ATOM     20  C   UNL     1       7.493   5.037  13.949  0.00  0.00    +0.000 A 
ENDBRANCH   4  16
TORSDOF 4
ENDMDL
MODEL 5
REMARK VINA RESULT:      -6.5      4.077      7.607
REMARK  Name = 
REMARK  6 active torsions:
REMARK  status: ('A' for Active; 'I' for Inactive)
REMARK    1  A    between atoms: C_1  and  C_2
REMARK    2  A    between atoms: C_2  and  C_3
REMARK    3  A    between atoms: C_3  and  N_4
REMARK    4  A    between atoms: C_5  and  C_6
REMARK    5  A    between atoms: C_9  and  C_10
REMARK    6  A    between atoms: C_13  and  C_15
REMARK                            x       y       z     vdW  Elec       q    Type
REMARK                         _______ _______ _______ _____ _____    ______ ____
ROOT
ATOM      1  C   UNL     1       2.858   6.097  19.762  0.00  0.00    +0.000 C 
ATOM      2  C   UNL     1       2.493   7.262  18.804  0.00  0.00    +0.000 C 
ATOM      3  N   UNL     1       1.969   7.928  20.004  0.00  0.00    +0.000 N 
ATOM      4  C   UNL     1       1.138   9.031  19.989  0.00  0.00    +0.000 C 
ATOM      5  O   UNL     1       0.888   9.659  18.964  0.00  0.00    +0.000 OA
ATOM      6  C   UNL     1       1.671   6.625  20.610  0.00  0.00    +0.000 C 
ENDROOT
BRANCH   1  12
ATOM      7  N   UNL     1       3.624   3.775  18.896  0.00  0.00    +0.000 N 
ATOM      8  C   UNL     1       2.996   2.645  18.413  0.00  0.00    +0.000 A 
ATOM      9  C   UNL     1       3.660   1.397  17.966  0.00  0.00    +0.000 C 
ATOM     10  C   UNL     1       1.654   2.957  18.446  0.00  0.00    +0.000 A 
ATOM     11  N   UNL     1       1.451   4.225  18.913  0.00  0.00    +0.000 NA
ATOM     12  C   UNL     1       2.645   4.704  19.184  0.00  0.00    +0.000 A 
BRANCH   7  13
ATOM     13  C   UNL     1       5.056   3.952  19.070  0.00  0.00    +0.000 C 
BRANCH  13  15
ATOM     14  C   UNL     1       7.148   5.006  18.147  0.00  0.00    +0.000 C 
ATOM     15  C   UNL     1       5.703   4.629  17.864  0.00  0.00    +0.000 C 
ENDBRANCH  13  15
ENDBRANCH   7  13
ENDBRANCH   1  12
BRANCH   4  16
ATOM     16  C   UNL     1       0.613   9.433  21.287  0.00  0.00    +0.000 A 
ATOM     17  C   UNL     1      -0.626  10.048  21.636  0.00  0.00    +0.000 A 
ATOM     18  C   UNL     1      -0.630  10.182  23.005  0.00  0.00    +0.000 A 
ATOM     19  O   UNL     1       0.517   9.683  23.529  0.00  0.00    +0.000 OA
ATOM     20  C   UNL     1       1.257   9.218  22.489  0.00  0.00    +0.000 A 
ENDBRANCH   4  16
TORSDOF 4
ENDMDL
MODEL 6
REMARK VINA RESULT:      -6.5      3.947      7.371
REMARK  Name = 
REMARK  6 active torsions:
REMARK  status: ('A' for Active; 'I' for Inactive)
REMARK    1  A    between atoms: C_1  and  C_2
REMARK    2  A    between atoms: C_2  and  C_3
REMARK    3  A    between atoms: C_3  and  N_4
REMARK    4  A    between atoms: C_5  and  C_6
REMARK    5  A    between atoms: C_9  and  C_10
REMARK    6  A    between atoms: C_13  and  C_15
REMARK                            x       y       z     vdW  Elec       q    Type
REMARK                         _______ _______ _______ _____ _____    ______ ____
ROOT
ATOM      1  C   UNL     1       2.840   6.475  19.559  0.00  0.00    +0.000 C 
ATOM      2  C   UNL     1       2.385   7.347  18.359  0.00  0.00    +0.000 C 
ATOM      3  N   UNL     1       1.922   8.298  19.377  0.00  0.00    +0.000 N 
ATOM      4  C   UNL     1       1.064   9.353  19.134  0.00  0.00    +0.000 C 
ATOM      5  O   UNL     1       0.733   9.690  18.000  0.00  0.00    +0.000 OA
ATOM      6  C   UNL     1       1.697   7.196  20.320  0.00  0.00    +0.000 C 
ENDROOT
BRANCH   1  12
ATOM      7  N   UNL     1       3.488   4.091  18.766  0.00  0.00    +0.000 N 
ATOM      8  C   UNL     1       2.919   2.837  18.842  0.00  0.00    +0.000 A 
ATOM      9  C   UNL     1       3.491   1.581  18.302  0.00  0.00    +0.000 C 
ATOM     10  C   UNL     1       1.732   3.038  19.515  0.00  0.00    +0.000 A 
ATOM     11  N   UNL     1       1.559   4.356  19.831  0.00  0.00    +0.000 NA
ATOM     12  C   UNL     1       2.626   4.978  19.379  0.00  0.00    +0.000 A 
BRANCH   7  13
ATOM     13  C   UNL     1       4.765   4.418  18.152  0.00  0.00    +0.000 C 
BRANCH  13  15
ATOM     14  C   UNL     1       5.213   6.038  16.278  0.00  0.00    +0.000 C 
ATOM     15  C   UNL     1       4.632   4.685  16.655  0.00  0.00    +0.000 C 
ENDBRANCH  13  15
ENDBRANCH   7  13
ENDBRANCH   1  12
BRANCH   4  16
ATOM     16  C   UNL     1       0.613  10.076  20.315  0.00  0.00    +0.000 A 
ATOM     17  C   UNL     1      -0.301   9.696  21.343  0.00  0.00    +0.000 A 
ATOM     18  C   UNL     1      -0.344  10.739  22.239  0.00  0.00    +0.000 A 
ATOM     19  O   UNL     1       0.488  11.733  21.843  0.00  0.00    +0.000 OA
ATOM     20  C   UNL     1       1.075  11.322  20.690  0.00  0.00    +0.000 A 
ENDBRANCH   4  16
TORSDOF 4
ENDMDL
MODEL 7
REMARK VINA RESULT:      -6.4      4.101      7.828
REMARK  Name = 
REMARK  6 active torsions:
REMARK  status: ('A' for Active; 'I' for Inactive)
REMARK    1  A    between atoms: C_1  and  C_2
REMARK    2  A    between atoms: C_2  and  C_3
REMARK    3  A    between atoms: C_3  and  N_4
REMARK    4  A    between atoms: C_5  and  C_6
REMARK    5  A    between atoms: C_9  and  C_10
REMARK    6  A    between atoms: C_13  and  C_15
REMARK                            x       y       z     vdW  Elec       q    Type
REMARK                         _______ _______ _______ _____ _____    ______ ____
ROOT
ATOM      1  C   UNL     1       3.298   7.490  18.432  0.00  0.00    +0.000 C 
ATOM      2  C   UNL     1       2.270   8.371  17.676  0.00  0.00    +0.000 C 
ATOM      3  N   UNL     1       1.824   8.791  19.010  0.00  0.00    +0.000 N 
ATOM      4  C   UNL     1       0.637   9.447  19.271  0.00  0.00    +0.000 C 
ATOM      5  O   UNL     1      -0.086   9.887  18.381  0.00  0.00    +0.000 OA
ATOM      6  C   UNL     1       2.241   7.499  19.568  0.00  0.00    +0.000 C 
ENDROOT
BRANCH   1  12
ATOM      7  N   UNL     1       4.587   5.767  16.984  0.00  0.00    +0.000 N 
ATOM      8  C   UNL     1       4.440   4.430  16.675  0.00  0.00    +0.000 A 
ATOM      9  C   UNL     1       5.329   3.630  15.799  0.00  0.00    +0.000 C 
ATOM     10  C   UNL     1       3.304   4.044  17.355  0.00  0.00    +0.000 A 
ATOM     11  N   UNL     1       2.758   5.089  18.043  0.00  0.00    +0.000 NA
ATOM     12  C   UNL     1       3.544   6.120  17.815  0.00  0.00    +0.000 A 
BRANCH   7  13
ATOM     13  C   UNL     1       5.650   6.643  16.518  0.00  0.00    +0.000 C 
BRANCH  13  15
ATOM     14  C   UNL     1       7.485   5.707  17.965  0.00  0.00    +0.000 C 
ATOM     15  C   UNL     1       6.672   6.942  17.613  0.00  0.00    +0.000 C 
ENDBRANCH  13  15
ENDBRANCH   7  13
ENDBRANCH   1  12
BRANCH   4  16
ATOM     16  C   UNL     1       0.322   9.630  20.681  0.00  0.00    +0.000 A 
ATOM     17  C   UNL     1      -0.331   8.761  21.606  0.00  0.00    +0.000 A 
ATOM     18  C   UNL     1      -0.343   9.411  22.818  0.00  0.00    +0.000 A 
ATOM     19  O   UNL     1       0.266  10.617  22.711  0.00  0.00    +0.000 OA
ATOM     20  C   UNL     1       0.679  10.738  21.423  0.00  0.00    +0.000 A 
ENDBRANCH   4  16
TORSDOF 4
ENDMDL
MODEL 8
REMARK VINA RESULT:      -6.4      3.237      5.101
REMARK  Name = 
REMARK  6 active torsions:
REMARK  status: ('A' for Active; 'I' for Inactive)
REMARK    1  A    between atoms: C_1  and  C_2
REMARK    2  A    between atoms: C_2  and  C_3
REMARK    3  A    between atoms: C_3  and  N_4
REMARK    4  A    between atoms: C_5  and  C_6
REMARK    5  A    between atoms: C_9  and  C_10
REMARK    6  A    between atoms: C_13  and  C_15
REMARK                            x       y       z     vdW  Elec       q    Type
REMARK                         _______ _______ _______ _____ _____    ______ ____
ROOT
ATOM      1  C   UNL     1       2.833   7.204  19.066  0.00  0.00    +0.000 C 
ATOM      2  C   UNL     1       2.220   5.824  18.708  0.00  0.00    +0.000 C 
ATOM      3  N   UNL     1       3.534   5.523  18.126  0.00  0.00    +0.000 N 
ATOM      4  C   UNL     1       3.791   4.470  17.271  0.00  0.00    +0.000 C 
ATOM      5  O   UNL     1       2.970   3.585  17.042  0.00  0.00    +0.000 OA
ATOM      6  C   UNL     1       3.746   6.946  17.838  0.00  0.00    +0.000 C 
ENDROOT
BRANCH   1  12
ATOM      7  N   UNL     1       0.976   8.842  19.838  0.00  0.00    +0.000 N 
ATOM      8  C   UNL     1       0.343   9.942  19.297  0.00  0.00    +0.000 A 
ATOM      9  C   UNL     1      -0.721  10.747  19.944  0.00  0.00    +0.000 C 
ATOM     10  C   UNL     1       0.921  10.095  18.055  0.00  0.00    +0.000 A 
ATOM     11  N   UNL     1       1.860   9.130  17.823  0.00  0.00    +0.000 NA
ATOM     12  C   UNL     1       1.886   8.386  18.906  0.00  0.00    +0.000 A 
BRANCH   7  13
ATOM     13  C   UNL     1       0.729   8.270  21.151  0.00  0.00    +0.000 C 
BRANCH  13  15
ATOM     14  C   UNL     1       0.136   9.483  23.276  0.00  0.00    +0.000 C 
ATOM     15  C   UNL     1       1.237   9.168  22.276  0.00  0.00    +0.000 C 
ENDBRANCH  13  15
ENDBRANCH   7  13
ENDBRANCH   1  12
BRANCH   4  16
ATOM     16  C   UNL     1       5.127   4.448  16.691  0.00  0.00    +0.000 A 
ATOM     17  C   UNL     1       6.409   4.545  17.310  0.00  0.00    +0.000 A 
ATOM     18  C   UNL     1       7.343   4.437  16.306  0.00  0.00    +0.000 A 
ATOM     19  O   UNL     1       6.729   4.269  15.109  0.00  0.00    +0.000 OA
ATOM     20  C   UNL     1       5.392   4.261  15.349  0.00  0.00    +0.000 A 
ENDBRANCH   4  16
TORSDOF 4
ENDMDL
MODEL 9
REMARK VINA RESULT:      -6.3      4.060      7.419
REMARK  Name = 
REMARK  6 active torsions:
REMARK  status: ('A' for Active; 'I' for Inactive)
REMARK    1  A    between atoms: C_1  and  C_2
REMARK    2  A    between atoms: C_2  and  C_3
REMARK    3  A    between atoms: C_3  and  N_4
REMARK    4  A    between atoms: C_5  and  C_6
REMARK    5  A    between atoms: C_9  and  C_10
REMARK    6  A    between atoms: C_13  and  C_15
REMARK                            x       y       z     vdW  Elec       q    Type
REMARK                         _______ _______ _______ _____ _____    ______ ____
ROOT
ATOM      1  C   UNL     1       3.203   7.096  18.706  0.00  0.00    +0.000 C 
ATOM      2  C   UNL     1       2.319   8.061  17.873  0.00  0.00    +0.000 C 
ATOM      3  N   UNL     1       1.850   8.564  19.170  0.00  0.00    +0.000 N 
ATOM      4  C   UNL     1       0.730   9.352  19.348  0.00  0.00    +0.000 C 
ATOM      5  O   UNL     1       0.107   9.841  18.410  0.00  0.00    +0.000 OA
ATOM      6  C   UNL     1       2.094   7.251  19.780  0.00  0.00    +0.000 C 
ENDROOT
BRANCH   1  12
ATOM      7  N   UNL     1       2.639   4.569  18.547  0.00  0.00    +0.000 N 
ATOM      8  C   UNL     1       3.040   3.517  17.750  0.00  0.00    +0.000 A 
ATOM      9  C   UNL     1       2.566   2.116  17.845  0.00  0.00    +0.000 C 
ATOM     10  C   UNL     1       3.957   4.072  16.883  0.00  0.00    +0.000 A 
ATOM     11  N   UNL     1       4.134   5.403  17.133  0.00  0.00    +0.000 NA
ATOM     12  C   UNL     1       3.330   5.690  18.135  0.00  0.00    +0.000 A 
BRANCH   7  13
ATOM     13  C   UNL     1       1.665   4.507  19.624  0.00  0.00    +0.000 C 
BRANCH  13  15
ATOM     14  C   UNL     1       1.473   2.743  21.410  0.00  0.00    +0.000 C 
ATOM     15  C   UNL     1       2.264   3.941  20.910  0.00  0.00    +0.000 C 
ENDBRANCH  13  15
ENDBRANCH   7  13
ENDBRANCH   1  12
BRANCH   4  16
ATOM     16  C   UNL     1       0.361   9.607  20.734  0.00  0.00    +0.000 A 
ATOM     17  C   UNL     1      -0.335   8.791  21.675  0.00  0.00    +0.000 A 
ATOM     18  C   UNL     1      -0.389   9.501  22.851  0.00  0.00    +0.000 A 
ATOM     19  O   UNL     1       0.235  10.696  22.708  0.00  0.00    +0.000 OA
ATOM     20  C   UNL     1       0.699  10.749  21.433  0.00  0.00    +0.000 A 
ENDBRANCH   4  16
TORSDOF 4
ENDMDL
