MODEL 1
REMARK VINA RESULT:      -8.4      0.000      0.000
REMARK  Name = 
REMARK  5 active torsions:
REMARK  status: ('A' for Active; 'I' for Inactive)
REMARK    1  A    between atoms: C_1  and  C_2
REMARK    2  A    between atoms: N_5  and  C_6
REMARK    3  A    between atoms: C_15  and  N_16
REMARK    4  A    between atoms: N_16  and  S_17
REMARK    5  A    between atoms: S_17  and  C_20
REMARK                            x       y       z     vdW  Elec       q    Type
REMARK                         _______ _______ _______ _____ _____    ______ ____
ROOT
ATOM      1  C   UNL     1       5.438   5.149  17.809  0.00  0.00    +0.000 A 
ATOM      2  N   UNL     1       4.404   5.310  18.684  0.00  0.00    +0.000 NA
ATOM      3  C   UNL     1       3.397   4.415  18.616  0.00  0.00    +0.000 A 
ATOM      4  C   UNL     1       2.288   4.546  19.448  0.00  0.00    +0.000 A 
ATOM      5  C   UNL     1       1.244   3.616  19.422  0.00  0.00    +0.000 A 
ATOM      6  C   UNL     1       1.310   2.533  18.557  0.00  0.00    +0.000 A 
ATOM      7  C   UNL     1       2.402   2.409  17.698  0.00  0.00    +0.000 A 
ATOM      8  C   UNL     1       3.428   3.342  17.700  0.00  0.00    +0.000 A 
ATOM      9  N   UNL     1       4.433   3.218  16.820  0.00  0.00    +0.000 NA
ATOM     10  C   UNL     1       5.449   4.120  16.860  0.00  0.00    +0.000 A 
ENDROOT
BRANCH   1  15
ATOM     11  C   UNL     1       9.154   9.450  18.697  0.00  0.00    +0.000 C 
ATOM     12  C   UNL     1       8.223   8.315  18.392  0.00  0.00    +0.000 A 
ATOM     13  C   UNL     1       7.165   8.467  17.504  0.00  0.00    +0.000 A 
ATOM     14  C   UNL     1       6.274   7.415  17.276  0.00  0.00    +0.000 A 
ATOM     15  N   UNL     1       6.419   6.226  17.907  0.00  0.00    +0.000 N 
ATOM     16  C   UNL     1       7.482   6.047  18.734  0.00  0.00    +0.000 A 
ATOM     17  C   UNL     1       8.390   7.074  18.994  0.00  0.00    +0.000 A 
ENDBRANCH   1  15
BRANCH  10  18
ATOM     18  N   UNL     1       6.363   3.893  15.902  0.00  0.00    +0.000 NA
BRANCH  18  19
ATOM     19  S   UNL     1       6.429   4.900  14.673  0.00  0.00    +0.000 S 
ATOM     20  O   UNL     1       5.336   5.868  14.668  0.00  0.00    +0.000 OA
ATOM     21  O   UNL     1       7.743   5.500  14.440  0.00  0.00    +0.000 OA
BRANCH  19  22
ATOM     22  C   UNL     1       6.118   3.896  13.199  0.00  0.00    +0.000 A 
ATOM     23  C   UNL     1       4.802   3.689  12.773  0.00  0.00    +0.000 A 
ATOM     24  C   UNL     1       4.556   2.846  11.686  0.00  0.00    +0.000 A 
ATOM     25  C   UNL     1       5.620   2.223  11.029  0.00  0.00    +0.000 A 
ATOM     26  C   UNL     1       6.932   2.449  11.450  0.00  0.00    +0.000 A 
ATOM     27  C   UNL     1       7.186   3.290  12.538  0.00  0.00    +0.000 A 
ENDBRANCH  19  22
ENDBRANCH  18  19
ENDBRANCH  10  18
TORSDOF 4
ENDMDL
MODEL 2
REMARK VINA RESULT:      -8.1      4.199      6.341
REMARK  Name = 
REMARK  5 active torsions:
REMARK  status: ('A' for Active; 'I' for Inactive)
REMARK    1  A    between atoms: C_1  and  C_2
REMARK    2  A    between atoms: N_5  and  C_6
REMARK    3  A    between atoms: C_15  and  N_16
REMARK    4  A    between atoms: N_16  and  S_17
REMARK    5  A    between atoms: S_17  and  C_20
REMARK                            x       y       z     vdW  Elec       q    Type
REMARK                         _______ _______ _______ _____ _____    ______ ____
ROOT
ATOM      1  C   UNL     1       2.872   6.723  19.388  0.00  0.00    +0.000 A 
ATOM      2  N   UNL     1       2.493   7.872  18.757  0.00  0.00    +0.000 NA
ATOM      3  C   UNL     1       1.527   8.606  19.347  0.00  0.00    +0.000 A 
ATOM      4  C   UNL     1       1.058   9.766  18.735  0.00  0.00    +0.000 A 
ATOM      5  C   UNL     1       0.080  10.564  19.336  0.00  0.00    +0.000 A 
ATOM      6  C   UNL     1      -0.435  10.201  20.573  0.00  0.00    +0.000 A 
ATOM      7  C   UNL     1       0.004   9.026  21.180  0.00  0.00    +0.000 A 
ATOM      8  C   UNL     1       0.955   8.217  20.576  0.00  0.00    +0.000 A 
ATOM      9  N   UNL     1       1.310   7.065  21.166  0.00  0.00    +0.000 NA
ATOM     10  C   UNL     1       2.270   6.302  20.580  0.00  0.00    +0.000 A 
ENDROOT
BRANCH   1  15
ATOM     11  C   UNL     1       7.040   4.156  16.365  0.00  0.00    +0.000 C 
ATOM     12  C   UNL     1       5.915   4.751  17.158  0.00  0.00    +0.000 A 
ATOM     13  C   UNL     1       4.685   5.030  16.573  0.00  0.00    +0.000 A 
ATOM     14  C   UNL     1       3.669   5.638  17.314  0.00  0.00    +0.000 A 
ATOM     15  N   UNL     1       3.850   5.965  18.614  0.00  0.00    +0.000 N 
ATOM     16  C   UNL     1       5.027   5.644  19.213  0.00  0.00    +0.000 A 
ATOM     17  C   UNL     1       6.071   5.046  18.507  0.00  0.00    +0.000 A 
ENDBRANCH   1  15
BRANCH  10  18
ATOM     18  N   UNL     1       2.498   5.167  21.260  0.00  0.00    +0.000 NA
BRANCH  18  19
ATOM     19  S   UNL     1       1.568   3.912  20.959  0.00  0.00    +0.000 S 
ATOM     20  O   UNL     1       1.440   3.010  22.100  0.00  0.00    +0.000 OA
ATOM     21  O   UNL     1       0.292   4.231  20.318  0.00  0.00    +0.000 OA
BRANCH  19  22
ATOM     22  C   UNL     1       2.460   2.923  19.732  0.00  0.00    +0.000 A 
ATOM     23  C   UNL     1       3.720   2.404  20.051  0.00  0.00    +0.000 A 
ATOM     24  C   UNL     1       4.445   1.714  19.077  0.00  0.00    +0.000 A 
ATOM     25  C   UNL     1       3.910   1.538  17.798  0.00  0.00    +0.000 A 
ATOM     26  C   UNL     1       2.644   2.045  17.493  0.00  0.00    +0.000 A 
ATOM     27  C   UNL     1       1.913   2.739  18.463  0.00  0.00    +0.000 A 
ENDBRANCH  19  22
ENDBRANCH  18  19
ENDBRANCH  10  18
TORSDOF 4
ENDMDL
MODEL 3
REMARK VINA RESULT:      -7.8      8.203     10.065
REMARK  Name = 
REMARK  5 active torsions:
REMARK  status: ('A' for Active; 'I' for Inactive)
REMARK    1  A    between atoms: C_1  and  C_2
REMARK    2  A    between atoms: N_5  and  C_6
REMARK    3  A    between atoms: C_15  and  N_16
REMARK    4  A    between atoms: N_16  and  S_17
REMARK    5  A    between atoms: S_17  and  C_20
REMARK                            x       y       z     vdW  Elec       q    Type
REMARK                         _______ _______ _______ _____ _____    ______ ____
ROOT
ATOM      1  C   UNL     1      -1.396  11.726  20.121  0.00  0.00    +0.000 A 
ATOM      2  N   UNL     1      -2.528  12.019  19.418  0.00  0.00    +0.000 NA
ATOM      3  C   UNL     1      -2.707  11.376  18.246  0.00  0.00    +0.000 A 
ATOM      4  C   UNL     1      -3.817  11.661  17.454  0.00  0.00    +0.000 A 
ATOM      5  C   UNL     1      -4.045  10.989  16.250  0.00  0.00    +0.000 A 
ATOM      6  C   UNL     1      -3.154  10.012  15.830  0.00  0.00    +0.000 A 
ATOM      7  C   UNL     1      -2.023   9.741  16.599  0.00  0.00    +0.000 A 
ATOM      8  C   UNL     1      -1.777  10.422  17.781  0.00  0.00    +0.000 A 
ATOM      9  N   UNL     1      -0.650  10.171  18.464  0.00  0.00    +0.000 NA
ATOM     10  C   UNL     1      -0.442  10.821  19.640  0.00  0.00    +0.000 A 
ENDROOT
BRANCH   1  15
ATOM     11  C   UNL     1      -1.368  15.094  24.784  0.00  0.00    +0.000 C 
ATOM     12  C   UNL     1      -1.300  14.188  23.592  0.00  0.00    +0.000 A 
ATOM     13  C   UNL     1      -0.524  14.507  22.484  0.00  0.00    +0.000 A 
ATOM     14  C   UNL     1      -0.520  13.678  21.359  0.00  0.00    +0.000 A 
ATOM     15  N   UNL     1      -1.261  12.547  21.320  0.00  0.00    +0.000 N 
ATOM     16  C   UNL     1      -1.978  12.194  22.419  0.00  0.00    +0.000 A 
ATOM     17  C   UNL     1      -2.017  12.997  23.558  0.00  0.00    +0.000 A 
ENDBRANCH   1  15
BRANCH  10  18
ATOM     18  N   UNL     1       0.739  10.499  20.192  0.00  0.00    +0.000 NA
BRANCH  18  19
ATOM     19  S   UNL     1       0.799   9.236  21.157  0.00  0.00    +0.000 S 
ATOM     20  O   UNL     1       1.677   9.435  22.305  0.00  0.00    +0.000 OA
ATOM     21  O   UNL     1      -0.503   8.667  21.506  0.00  0.00    +0.000 OA
BRANCH  19  22
ATOM     22  C   UNL     1       1.625   7.933  20.208  0.00  0.00    +0.000 A 
ATOM     23  C   UNL     1       2.147   8.229  18.945  0.00  0.00    +0.000 A 
ATOM     24  C   UNL     1       2.709   7.206  18.177  0.00  0.00    +0.000 A 
ATOM     25  C   UNL     1       2.755   5.901  18.674  0.00  0.00    +0.000 A 
ATOM     26  C   UNL     1       2.246   5.618  19.944  0.00  0.00    +0.000 A 
ATOM     27  C   UNL     1       1.680   6.636  20.717  0.00  0.00    +0.000 A 
ENDBRANCH  19  22
ENDBRANCH  18  19
ENDBRANCH  10  18
TORSDOF 4
ENDMDL
MODEL 4
REMARK VINA RESULT:      -7.8      1.775      5.644
REMARK  Name = 
REMARK  5 active torsions:
REMARK  status: ('A' for Active; 'I' for Inactive)
REMARK    1  A    between atoms: C_1  and  C_2
REMARK    2  A    between atoms: N_5  and  C_6
REMARK    3  A    between atoms: C_15  and  N_16
REMARK    4  A    between atoms: N_16  and  S_17
REMARK    5  A    between atoms: S_17  and  C_20
REMARK                            x       y       z     vdW  Elec       q    Type
REMARK                         _______ _______ _______ _____ _____    ______ ____
ROOT
ATOM      1  C   UNL     1       6.726   5.673  16.235  0.00  0.00    +0.000 A 
ATOM      2  N   UNL     1       7.276   5.799  14.992  0.00  0.00    +0.000 NA
ATOM      3  C   UNL     1       6.920   4.884  14.068  0.00  0.00    +0.000 A 
ATOM      4  C   UNL     1       7.479   4.924  12.793  0.00  0.00    +0.000 A 
ATOM      5  C   UNL     1       7.107   4.009  11.804  0.00  0.00    +0.000 A 
ATOM      6  C   UNL     1       6.157   3.038  12.090  0.00  0.00    +0.000 A 
ATOM      7  C   UNL     1       5.614   2.969  13.373  0.00  0.00    +0.000 A 
ATOM      8  C   UNL     1       5.998   3.858  14.365  0.00  0.00    +0.000 A 
ATOM      9  N   UNL     1       5.494   3.724  15.601  0.00  0.00    +0.000 NA
ATOM     10  C   UNL     1       5.853   4.626  16.553  0.00  0.00    +0.000 A 
ENDROOT
BRANCH   1  15
ATOM     11  C   UNL     1       9.157   9.676  19.575  0.00  0.00    +0.000 C 
ATOM     12  C   UNL     1       8.462   8.627  18.761  0.00  0.00    +0.000 A 
ATOM     13  C   UNL     1       8.526   7.283  19.107  0.00  0.00    +0.000 A 
ATOM     14  C   UNL     1       7.919   6.314  18.303  0.00  0.00    +0.000 A 
ATOM     15  N   UNL     1       7.254   6.656  17.176  0.00  0.00    +0.000 N 
ATOM     16  C   UNL     1       7.135   7.972  16.858  0.00  0.00    +0.000 A 
ATOM     17  C   UNL     1       7.733   8.969  17.628  0.00  0.00    +0.000 A 
ENDBRANCH   1  15
BRANCH  10  18
ATOM     18  N   UNL     1       5.302   4.347  17.745  0.00  0.00    +0.000 NA
BRANCH  18  19
ATOM     19  S   UNL     1       4.231   5.364  18.335  0.00  0.00    +0.000 S 
ATOM     20  O   UNL     1       4.646   5.962  19.600  0.00  0.00    +0.000 OA
ATOM     21  O   UNL     1       3.709   6.334  17.372  0.00  0.00    +0.000 OA
BRANCH  19  22
ATOM     22  C   UNL     1       2.796   4.357  18.789  0.00  0.00    +0.000 A 
ATOM     23  C   UNL     1       2.076   4.668  19.947  0.00  0.00    +0.000 A 
ATOM     24  C   UNL     1       1.022   3.841  20.343  0.00  0.00    +0.000 A 
ATOM     25  C   UNL     1       0.688   2.719  19.582  0.00  0.00    +0.000 A 
ATOM     26  C   UNL     1       1.401   2.425  18.417  0.00  0.00    +0.000 A 
ATOM     27  C   UNL     1       2.459   3.247  18.016  0.00  0.00    +0.000 A 
ENDBRANCH  19  22
ENDBRANCH  18  19
ENDBRANCH  10  18
TORSDOF 4
ENDMDL
MODEL 5
REMARK VINA RESULT:      -7.8      0.244      1.320
REMARK  Name = 
REMARK  5 active torsions:
REMARK  status: ('A' for Active; 'I' for Inactive)
REMARK    1  A    between atoms: C_1  and  C_2
REMARK    2  A    between atoms: N_5  and  C_6
REMARK    3  A    between atoms: C_15  and  N_16
REMARK    4  A    between atoms: N_16  and  S_17
REMARK    5  A    between atoms: S_17  and  C_20
REMARK                            x       y       z     vdW  Elec       q    Type
REMARK                         _______ _______ _______ _____ _____    ______ ____
ROOT
ATOM      1  C   UNL     1       5.373   5.181  17.955  0.00  0.00    +0.000 A 
ATOM      2  N   UNL     1       4.294   5.278  18.785  0.00  0.00    +0.000 NA
ATOM      3  C   UNL     1       3.337   4.336  18.659  0.00  0.00    +0.000 A 
ATOM      4  C   UNL     1       2.187   4.399  19.442  0.00  0.00    +0.000 A 
ATOM      5  C   UNL     1       1.192   3.421  19.357  0.00  0.00    +0.000 A 
ATOM      6  C   UNL     1       1.349   2.357  18.480  0.00  0.00    +0.000 A 
ATOM      7  C   UNL     1       2.482   2.300  17.670  0.00  0.00    +0.000 A 
ATOM      8  C   UNL     1       3.460   3.281  17.730  0.00  0.00    +0.000 A 
ATOM      9  N   UNL     1       4.508   3.220  16.895  0.00  0.00    +0.000 NA
ATOM     10  C   UNL     1       5.476   4.169  16.993  0.00  0.00    +0.000 A 
ENDROOT
BRANCH   1  15
ATOM     11  C   UNL     1       9.094   9.567  18.056  0.00  0.00    +0.000 C 
ATOM     12  C   UNL     1       8.103   8.443  18.109  0.00  0.00    +0.000 A 
ATOM     13  C   UNL     1       8.389   7.257  18.775  0.00  0.00    +0.000 A 
ATOM     14  C   UNL     1       7.475   6.200  18.764  0.00  0.00    +0.000 A 
ATOM     15  N   UNL     1       6.294   6.303  18.112  0.00  0.00    +0.000 N 
ATOM     16  C   UNL     1       5.979   7.477  17.505  0.00  0.00    +0.000 A 
ATOM     17  C   UNL     1       6.865   8.553  17.486  0.00  0.00    +0.000 A 
ENDBRANCH   1  15
BRANCH  10  18
ATOM     18  N   UNL     1       6.441   4.003  16.073  0.00  0.00    +0.000 NA
BRANCH  18  19
ATOM     19  S   UNL     1       6.465   4.986  14.823  0.00  0.00    +0.000 S 
ATOM     20  O   UNL     1       5.364   5.944  14.828  0.00  0.00    +0.000 OA
ATOM     21  O   UNL     1       7.768   5.592  14.543  0.00  0.00    +0.000 OA
BRANCH  19  22
ATOM     22  C   UNL     1       6.124   3.951  13.378  0.00  0.00    +0.000 A 
ATOM     23  C   UNL     1       7.190   3.432  12.636  0.00  0.00    +0.000 A 
ATOM     24  C   UNL     1       6.929   2.703  11.473  0.00  0.00    +0.000 A 
ATOM     25  C   UNL     1       5.611   2.491  11.062  0.00  0.00    +0.000 A 
ATOM     26  C   UNL     1       4.551   2.998  11.818  0.00  0.00    +0.000 A 
ATOM     27  C   UNL     1       4.806   3.729  12.982  0.00  0.00    +0.000 A 
ENDBRANCH  19  22
ENDBRANCH  18  19
ENDBRANCH  10  18
TORSDOF 4
ENDMDL
MODEL 6
REMARK VINA RESULT:      -7.7      4.126      6.291
REMARK  Name = 
REMARK  5 active torsions:
REMARK  status: ('A' for Active; 'I' for Inactive)
REMARK    1  A    between atoms: C_1  and  C_2
REMARK    2  A    between atoms: N_5  and  C_6
REMARK    3  A    between atoms: C_15  and  N_16
REMARK    4  A    between atoms: N_16  and  S_17
REMARK    5  A    between atoms: S_17  and  C_20
REMARK                            x       y       z     vdW  Elec       q    Type
REMARK                         _______ _______ _______ _____ _____    ______ ____
ROOT
ATOM      1  C   UNL     1       2.980   7.086  19.149  0.00  0.00    +0.000 A 
ATOM      2  N   UNL     1       2.532   8.191  18.484  0.00  0.00    +0.000 NA
ATOM      3  C   UNL     1       1.509   8.870  19.041  0.00  0.00    +0.000 A 
ATOM      4  C   UNL     1       0.972   9.980  18.394  0.00  0.00    +0.000 A 
ATOM      5  C   UNL     1      -0.068  10.722  18.961  0.00  0.00    +0.000 A 
ATOM      6  C   UNL     1      -0.577  10.355  20.199  0.00  0.00    +0.000 A 
ATOM      7  C   UNL     1      -0.068   9.228  20.842  0.00  0.00    +0.000 A 
ATOM      8  C   UNL     1       0.946   8.472  20.272  0.00  0.00    +0.000 A 
ATOM      9  N   UNL     1       1.370   7.362  20.895  0.00  0.00    +0.000 NA
ATOM     10  C   UNL     1       2.389   6.653  20.342  0.00  0.00    +0.000 A 
ENDROOT
BRANCH   1  15
ATOM     11  C   UNL     1       6.699   3.992  16.035  0.00  0.00    +0.000 C 
ATOM     12  C   UNL     1       5.792   4.852  16.863  0.00  0.00    +0.000 A 
ATOM     13  C   UNL     1       5.831   4.818  18.252  0.00  0.00    +0.000 A 
ATOM     14  C   UNL     1       4.939   5.584  19.006  0.00  0.00    +0.000 A 
ATOM     15  N   UNL     1       4.020   6.378  18.409  0.00  0.00    +0.000 N 
ATOM     16  C   UNL     1       4.010   6.464  17.053  0.00  0.00    +0.000 A 
ATOM     17  C   UNL     1       4.877   5.711  16.263  0.00  0.00    +0.000 A 
ENDBRANCH   1  15
BRANCH  10  18
ATOM     18  N   UNL     1       2.683   5.553  21.054  0.00  0.00    +0.000 NA
BRANCH  18  19
ATOM     19  S   UNL     1       1.760   4.270  20.870  0.00  0.00    +0.000 S 
ATOM     20  O   UNL     1       1.824   3.353  22.004  0.00  0.00    +0.000 OA
ATOM     21  O   UNL     1       0.397   4.553  20.421  0.00  0.00    +0.000 OA
BRANCH  19  22
ATOM     22  C   UNL     1       2.499   3.325  19.515  0.00  0.00    +0.000 A 
ATOM     23  C   UNL     1       2.053   3.535  18.206  0.00  0.00    +0.000 A 
ATOM     24  C   UNL     1       2.562   2.747  17.171  0.00  0.00    +0.000 A 
ATOM     25  C   UNL     1       3.515   1.763  17.444  0.00  0.00    +0.000 A 
ATOM     26  C   UNL     1       3.968   1.570  18.752  0.00  0.00    +0.000 A 
ATOM     27  C   UNL     1       3.461   2.354  19.792  0.00  0.00    +0.000 A 
ENDBRANCH  19  22
ENDBRANCH  18  19
ENDBRANCH  10  18
TORSDOF 4
ENDMDL
MODEL 7
REMARK VINA RESULT:      -7.6      1.933      5.716
REMARK  Name = 
REMARK  5 active torsions:
REMARK  status: ('A' for Active; 'I' for Inactive)
REMARK    1  A    between atoms: C_1  and  C_2
REMARK    2  A    between atoms: N_5  and  C_6
REMARK    3  A    between atoms: C_15  and  N_16
REMARK    4  A    between atoms: N_16  and  S_17
REMARK    5  A    between atoms: S_17  and  C_20
REMARK                            x       y       z     vdW  Elec       q    Type
REMARK                         _______ _______ _______ _____ _____    ______ ____
ROOT
ATOM      1  C   UNL     1       6.482   6.102  16.197  0.00  0.00    +0.000 A 
ATOM      2  N   UNL     1       7.273   5.854  15.113  0.00  0.00    +0.000 NA
ATOM      3  C   UNL     1       6.814   4.965  14.209  0.00  0.00    +0.000 A 
ATOM      4  C   UNL     1       7.590   4.629  13.102  0.00  0.00    +0.000 A 
ATOM      5  C   UNL     1       7.129   3.735  12.132  0.00  0.00    +0.000 A 
ATOM      6  C   UNL     1       5.869   3.168  12.265  0.00  0.00    +0.000 A 
ATOM      7  C   UNL     1       5.096   3.473  13.385  0.00  0.00    +0.000 A 
ATOM      8  C   UNL     1       5.559   4.340  14.364  0.00  0.00    +0.000 A 
ATOM      9  N   UNL     1       4.809   4.564  15.453  0.00  0.00    +0.000 NA
ATOM     10  C   UNL     1       5.260   5.444  16.385  0.00  0.00    +0.000 A 
ENDROOT
BRANCH   1  15
ATOM     11  C   UNL     1       9.319   9.795  19.575  0.00  0.00    +0.000 C 
ATOM     12  C   UNL     1       8.522   8.825  18.755  0.00  0.00    +0.000 A 
ATOM     13  C   UNL     1       8.556   7.460  19.013  0.00  0.00    +0.000 A 
ATOM     14  C   UNL     1       7.852   6.567  18.202  0.00  0.00    +0.000 A 
ATOM     15  N   UNL     1       7.118   7.004  17.152  0.00  0.00    +0.000 N 
ATOM     16  C   UNL     1       7.030   8.340  16.924  0.00  0.00    +0.000 A 
ATOM     17  C   UNL     1       7.724   9.265  17.705  0.00  0.00    +0.000 A 
ENDBRANCH   1  15
BRANCH  10  18
ATOM     18  N   UNL     1       4.426   5.542  17.433  0.00  0.00    +0.000 NA
BRANCH  18  19
ATOM     19  S   UNL     1       4.736   4.666  18.724  0.00  0.00    +0.000 S 
ATOM     20  O   UNL     1       5.599   3.522  18.445  0.00  0.00    +0.000 OA
ATOM     21  O   UNL     1       5.141   5.431  19.904  0.00  0.00    +0.000 OA
BRANCH  19  22
ATOM     22  C   UNL     1       3.160   3.907  19.192  0.00  0.00    +0.000 A 
ATOM     23  C   UNL     1       2.660   2.841  18.438  0.00  0.00    +0.000 A 
ATOM     24  C   UNL     1       1.404   2.310  18.747  0.00  0.00    +0.000 A 
ATOM     25  C   UNL     1       0.662   2.839  19.805  0.00  0.00    +0.000 A 
ATOM     26  C   UNL     1       1.177   3.893  20.564  0.00  0.00    +0.000 A 
ATOM     27  C   UNL     1       2.431   4.430  20.260  0.00  0.00    +0.000 A 
ENDBRANCH  19  22
ENDBRANCH  18  19
ENDBRANCH  10  18
TORSDOF 4
ENDMDL
MODEL 8
REMARK VINA RESULT:      -7.6      2.398      6.582
REMARK  Name = 
REMARK  5 active torsions:
REMARK  status: ('A' for Active; 'I' for Inactive)
REMARK    1  A    between atoms: C_1  and  C_2
REMARK    2  A    between atoms: N_5  and  C_6
REMARK    3  A    between atoms: C_15  and  N_16
REMARK    4  A    between atoms: N_16  and  S_17
REMARK    5  A    between atoms: S_17  and  C_20
REMARK                            x       y       z     vdW  Elec       q    Type
REMARK                         _______ _______ _______ _____ _____    ______ ____
ROOT
ATOM      1  C   UNL     1       5.252   3.622  16.352  0.00  0.00    +0.000 A 
ATOM      2  N   UNL     1       4.853   3.532  15.051  0.00  0.00    +0.000 NA
ATOM      3  C   UNL     1       5.720   3.962  14.111  0.00  0.00    +0.000 A 
ATOM      4  C   UNL     1       5.360   3.942  12.766  0.00  0.00    +0.000 A 
ATOM      5  C   UNL     1       6.248   4.352  11.767  0.00  0.00    +0.000 A 
ATOM      6  C   UNL     1       7.520   4.784  12.116  0.00  0.00    +0.000 A 
ATOM      7  C   UNL     1       7.880   4.837  13.461  0.00  0.00    +0.000 A 
ATOM      8  C   UNL     1       6.995   4.457  14.459  0.00  0.00    +0.000 A 
ATOM      9  N   UNL     1       7.360   4.575  15.744  0.00  0.00    +0.000 NA
ATOM     10  C   UNL     1       6.494   4.163  16.708  0.00  0.00    +0.000 A 
ENDROOT
BRANCH   1  15
ATOM     11  C   UNL     1       1.049   2.547  20.130  0.00  0.00    +0.000 C 
ATOM     12  C   UNL     1       2.141   2.747  19.122  0.00  0.00    +0.000 A 
ATOM     13  C   UNL     1       3.438   2.311  19.363  0.00  0.00    +0.000 A 
ATOM     14  C   UNL     1       4.453   2.558  18.436  0.00  0.00    +0.000 A 
ATOM     15  N   UNL     1       4.202   3.220  17.283  0.00  0.00    +0.000 N 
ATOM     16  C   UNL     1       2.927   3.601  17.009  0.00  0.00    +0.000 A 
ATOM     17  C   UNL     1       1.886   3.382  17.911  0.00  0.00    +0.000 A 
ENDBRANCH   1  15
BRANCH  10  18
ATOM     18  N   UNL     1       6.977   4.374  17.943  0.00  0.00    +0.000 NA
BRANCH  18  19
ATOM     19  S   UNL     1       6.880   5.841  18.548  0.00  0.00    +0.000 S 
ATOM     20  O   UNL     1       7.211   5.897  19.968  0.00  0.00    +0.000 OA
ATOM     21  O   UNL     1       7.536   6.879  17.752  0.00  0.00    +0.000 OA
BRANCH  19  22
ATOM     22  C   UNL     1       5.123   6.276  18.502  0.00  0.00    +0.000 A 
ATOM     23  C   UNL     1       4.632   7.047  17.444  0.00  0.00    +0.000 A 
ATOM     24  C   UNL     1       3.295   7.454  17.451  0.00  0.00    +0.000 A 
ATOM     25  C   UNL     1       2.457   7.083  18.506  0.00  0.00    +0.000 A 
ATOM     26  C   UNL     1       2.951   6.298  19.551  0.00  0.00    +0.000 A 
ATOM     27  C   UNL     1       4.288   5.890  19.550  0.00  0.00    +0.000 A 
ENDBRANCH  19  22
ENDBRANCH  18  19
ENDBRANCH  10  18
TORSDOF 4
ENDMDL
MODEL 9
REMARK VINA RESULT:      -7.5      3.322      4.448
REMARK  Name = 
REMARK  5 active torsions:
REMARK  status: ('A' for Active; 'I' for Inactive)
REMARK    1  A    between atoms: C_1  and  C_2
REMARK    2  A    between atoms: N_5  and  C_6
REMARK    3  A    between atoms: C_15  and  N_16
REMARK    4  A    between atoms: N_16  and  S_17
REMARK    5  A    between atoms: S_17  and  C_20
REMARK                            x       y       z     vdW  Elec       q    Type
REMARK                         _______ _______ _______ _____ _____    ______ ____
ROOT
ATOM      1  C   UNL     1       2.696   6.613  19.287  0.00  0.00    +0.000 A 
ATOM      2  N   UNL     1       2.070   5.897  20.265  0.00  0.00    +0.000 NA
ATOM      3  C   UNL     1       2.459   4.617  20.434  0.00  0.00    +0.000 A 
ATOM      4  C   UNL     1       1.831   3.814  21.383  0.00  0.00    +0.000 A 
ATOM      5  C   UNL     1       2.233   2.494  21.602  0.00  0.00    +0.000 A 
ATOM      6  C   UNL     1       3.285   1.965  20.866  0.00  0.00    +0.000 A 
ATOM      7  C   UNL     1       3.900   2.750  19.892  0.00  0.00    +0.000 A 
ATOM      8  C   UNL     1       3.489   4.052  19.651  0.00  0.00    +0.000 A 
ATOM      9  N   UNL     1       4.069   4.756  18.667  0.00  0.00    +0.000 NA
ATOM     10  C   UNL     1       3.680   6.043  18.469  0.00  0.00    +0.000 A 
ENDROOT
BRANCH   1  15
ATOM     11  C   UNL     1      -0.008  11.657  18.705  0.00  0.00    +0.000 C 
ATOM     12  C   UNL     1       0.769  10.385  18.865  0.00  0.00    +0.000 A 
ATOM     13  C   UNL     1       1.527   9.864  17.823  0.00  0.00    +0.000 A 
ATOM     14  C   UNL     1       2.197   8.648  17.973  0.00  0.00    +0.000 A 
ATOM     15  N   UNL     1       2.130   7.950  19.130  0.00  0.00    +0.000 N 
ATOM     16  C   UNL     1       1.440   8.477  20.176  0.00  0.00    +0.000 A 
ATOM     17  C   UNL     1       0.750   9.683  20.065  0.00  0.00    +0.000 A 
ENDBRANCH   1  15
BRANCH  10  18
ATOM     18  N   UNL     1       4.318   6.610  17.433  0.00  0.00    +0.000 NA
BRANCH  18  19
ATOM     19  S   UNL     1       5.886   6.377  17.296  0.00  0.00    +0.000 S 
ATOM     20  O   UNL     1       6.623   7.604  17.016  0.00  0.00    +0.000 OA
ATOM     21  O   UNL     1       6.481   5.564  18.358  0.00  0.00    +0.000 OA
BRANCH  19  22
ATOM     22  C   UNL     1       6.106   5.393  15.792  0.00  0.00    +0.000 A 
ATOM     23  C   UNL     1       7.320   5.457  15.100  0.00  0.00    +0.000 A 
ATOM     24  C   UNL     1       7.462   4.766  13.895  0.00  0.00    +0.000 A 
ATOM     25  C   UNL     1       6.399   4.011  13.392  0.00  0.00    +0.000 A 
ATOM     26  C   UNL     1       5.196   3.939  14.098  0.00  0.00    +0.000 A 
ATOM     27  C   UNL     1       5.047   4.630  15.304  0.00  0.00    +0.000 A 
ENDBRANCH  19  22
ENDBRANCH  18  19
ENDBRANCH  10  18
TORSDOF 4
ENDMDL
