MODEL 1
REMARK VINA RESULT:      -9.3      0.000      0.000
REMARK  Name = 
REMARK  6 active torsions:
REMARK  status: ('A' for Active; 'I' for Inactive)
REMARK    1  A    between atoms: C_1  and  C_2
REMARK    2  A    between atoms: C_6  and  N_7
REMARK    3  A    between atoms: C_14  and  S_15
REMARK    4  A    between atoms: S_15  and  C_16
REMARK    5  A    between atoms: C_16  and  C_17
REMARK    6  A    between atoms: C_23  and  C_24
REMARK                            x       y       z     vdW  Elec       q    Type
REMARK                         _______ _______ _______ _____ _____    ______ ____
ROOT
ATOM      1  N   UNL     1       9.635  10.205  19.234  0.00  0.00    +0.000 N 
ATOM      2  C   UNL     1       8.723   9.454  18.500  0.00  0.00    +0.000 C 
ATOM      3  O   UNL     1       8.051   9.917  17.583  0.00  0.00    +0.000 OA
ATOM      4  N   UNL     1       8.623   8.146  18.916  0.00  0.00    +0.000 N 
ATOM      5  C   UNL     1       7.849   7.275  18.172  0.00  0.00    +0.000 A 
ATOM      6  N   UNL     1       7.385   7.424  16.953  0.00  0.00    +0.000 NA
ATOM      7  N   UNL     1       6.654   6.336  16.532  0.00  0.00    +0.000 NA
ATOM      8  C   UNL     1       6.602   5.398  17.450  0.00  0.00    +0.000 A 
ATOM      9  S   UNL     1       7.446   5.785  18.903  0.00  0.00    +0.000 S 
ATOM     10  H   UNL     1      10.039   9.790  20.059  0.00  0.00    +0.000 HD
ATOM     11  H   UNL     1       8.909   7.859  19.834  0.00  0.00    +0.000 HD
ENDROOT
BRANCH   1  17
ATOM     12  C   UNL     1      12.229  13.615  16.758  0.00  0.00    +0.000 C 
ATOM     13  C   UNL     1      11.203  13.261  17.795  0.00  0.00    +0.000 A 
ATOM     14  C   UNL     1      10.636  14.267  18.584  0.00  0.00    +0.000 A 
ATOM     15  C   UNL     1       9.696  13.942  19.552  0.00  0.00    +0.000 A 
ATOM     16  C   UNL     1       9.338  12.609  19.753  0.00  0.00    +0.000 A 
ATOM     17  C   UNL     1       9.916  11.578  19.005  0.00  0.00    +0.000 A 
ATOM     18  C   UNL     1      10.828  11.920  17.998  0.00  0.00    +0.000 A 
ENDBRANCH   1  17
BRANCH   8  19
ATOM     19  S   UNL     1       5.738   3.897  17.195  0.00  0.00    +0.000 S 
BRANCH  19  20
ATOM     20  C   UNL     1       4.113   4.547  16.669  0.00  0.00    +0.000 C 
BRANCH  20  21
ATOM     21  C   UNL     1       3.418   5.234  17.831  0.00  0.00    +0.000 A 
ATOM     22  C   UNL     1       3.227   4.585  18.987  0.00  0.00    +0.000 A 
ATOM     23  C   UNL     1       2.571   5.281  20.105  0.00  0.00    +0.000 A 
ATOM     24  O   UNL     1       2.398   4.669  21.160  0.00  0.00    +0.000 OA
ATOM     25  N   UNL     1       2.197   6.592  19.861  0.00  0.00    +0.000 N 
ATOM     26  C   UNL     1       1.555   7.313  20.864  0.00  0.00    +0.000 A 
ATOM     27  C   UNL     1       1.147   8.579  20.688  0.00  0.00    +0.000 A 
ATOM     28  C   UNL     1       0.449   9.369  21.754  0.00  0.00    +0.000 C 
ATOM     29  C   UNL     1       1.392   9.221  19.415  0.00  0.00    +0.000 A 
ATOM     30  C   UNL     1       2.025   8.573  18.430  0.00  0.00    +0.000 A 
ATOM     31  C   UNL     1       2.462   7.161  18.622  0.00  0.00    +0.000 A 
ATOM     32  N   UNL     1       3.051   6.546  17.639  0.00  0.00    +0.000 NA
ENDBRANCH  20  21
ENDBRANCH  19  20
ENDBRANCH   8  19
TORSDOF 4
ENDMDL
MODEL 2
REMARK VINA RESULT:      -8.9      0.725      1.503
REMARK  Name = 
REMARK  6 active torsions:
REMARK  status: ('A' for Active; 'I' for Inactive)
REMARK    1  A    between atoms: C_1  and  C_2
REMARK    2  A    between atoms: C_6  and  N_7
REMARK    3  A    between atoms: C_14  and  S_15
REMARK    4  A    between atoms: S_15  and  C_16
REMARK    5  A    between atoms: C_16  and  C_17
REMARK    6  A    between atoms: C_23  and  C_24
REMARK                            x       y       z     vdW  Elec       q    Type
REMARK                         _______ _______ _______ _____ _____    ______ ____
ROOT
ATOM      1  N   UNL     1       9.606  10.183  19.787  0.00  0.00    +0.000 N 
ATOM      2  C   UNL     1       8.859   9.479  18.847  0.00  0.00    +0.000 C 
ATOM      3  O   UNL     1       8.376   9.997  17.845  0.00  0.00    +0.000 OA
ATOM      4  N   UNL     1       8.689   8.150  19.160  0.00  0.00    +0.000 N 
ATOM      5  C   UNL     1       8.081   7.327  18.230  0.00  0.00    +0.000 A 
ATOM      6  N   UNL     1       7.862   7.548  16.955  0.00  0.00    +0.000 NA
ATOM      7  N   UNL     1       7.234   6.489  16.338  0.00  0.00    +0.000 NA
ATOM      8  C   UNL     1       7.010   5.501  17.173  0.00  0.00    +0.000 A 
ATOM      9  S   UNL     1       7.553   5.799  18.782  0.00  0.00    +0.000 S 
ATOM     10  H   UNL     1       9.845   9.719  20.649  0.00  0.00    +0.000 HD
ATOM     11  H   UNL     1       8.793   7.809  20.098  0.00  0.00    +0.000 HD
ENDROOT
BRANCH   1  17
ATOM     12  C   UNL     1       8.575  14.829  21.141  0.00  0.00    +0.000 C 
ATOM     13  C   UNL     1       9.402  13.858  20.351  0.00  0.00    +0.000 A 
ATOM     14  C   UNL     1      10.374  14.334  19.463  0.00  0.00    +0.000 A 
ATOM     15  C   UNL     1      11.132  13.439  18.722  0.00  0.00    +0.000 A 
ATOM     16  C   UNL     1      10.907  12.068  18.845  0.00  0.00    +0.000 A 
ATOM     17  C   UNL     1       9.917  11.565  19.695  0.00  0.00    +0.000 A 
ATOM     18  C   UNL     1       9.189  12.473  20.475  0.00  0.00    +0.000 A 
ENDBRANCH   1  17
BRANCH   8  19
ATOM     19  S   UNL     1       6.222   4.021  16.669  0.00  0.00    +0.000 S 
BRANCH  19  20
ATOM     20  C   UNL     1       4.587   4.676  16.184  0.00  0.00    +0.000 C 
BRANCH  20  21
ATOM     21  C   UNL     1       3.855   5.218  17.399  0.00  0.00    +0.000 A 
ATOM     22  C   UNL     1       3.708   4.462  18.495  0.00  0.00    +0.000 A 
ATOM     23  C   UNL     1       3.013   5.018  19.667  0.00  0.00    +0.000 A 
ATOM     24  O   UNL     1       2.884   4.309  20.666  0.00  0.00    +0.000 OA
ATOM     25  N   UNL     1       2.557   6.319  19.534  0.00  0.00    +0.000 N 
ATOM     26  C   UNL     1       1.875   6.910  20.593  0.00  0.00    +0.000 A 
ATOM     27  C   UNL     1       1.387   8.158  20.525  0.00  0.00    +0.000 A 
ATOM     28  C   UNL     1       0.644   8.809  21.652  0.00  0.00    +0.000 C 
ATOM     29  C   UNL     1       1.587   8.920  19.312  0.00  0.00    +0.000 A 
ATOM     30  C   UNL     1       2.256   8.398  18.276  0.00  0.00    +0.000 A 
ATOM     31  C   UNL     1       2.782   7.006  18.349  0.00  0.00    +0.000 A 
ATOM     32  N   UNL     1       3.405   6.515  17.318  0.00  0.00    +0.000 NA
ENDBRANCH  20  21
ENDBRANCH  19  20
ENDBRANCH   8  19
TORSDOF 4
ENDMDL
MODEL 3
REMARK VINA RESULT:      -8.6      1.005      1.717
REMARK  Name = 
REMARK  6 active torsions:
REMARK  status: ('A' for Active; 'I' for Inactive)
REMARK    1  A    between atoms: C_1  and  C_2
REMARK    2  A    between atoms: C_6  and  N_7
REMARK    3  A    between atoms: C_14  and  S_15
REMARK    4  A    between atoms: S_15  and  C_16
REMARK    5  A    between atoms: C_16  and  C_17
REMARK    6  A    between atoms: C_23  and  C_24
REMARK                            x       y       z     vdW  Elec       q    Type
REMARK                         _______ _______ _______ _____ _____    ______ ____
ROOT
ATOM      1  N   UNL     1       9.501   9.408  19.384  0.00  0.00    +0.000 N 
ATOM      2  C   UNL     1       8.494   8.920  18.556  0.00  0.00    +0.000 C 
ATOM      3  O   UNL     1       7.777   9.641  17.870  0.00  0.00    +0.000 OA
ATOM      4  N   UNL     1       8.358   7.551  18.599  0.00  0.00    +0.000 N 
ATOM      5  C   UNL     1       7.482   6.948  17.716  0.00  0.00    +0.000 A 
ATOM      6  N   UNL     1       6.931   7.447  16.634  0.00  0.00    +0.000 NA
ATOM      7  N   UNL     1       6.112   6.543  15.996  0.00  0.00    +0.000 NA
ATOM      8  C   UNL     1       6.083   5.387  16.618  0.00  0.00    +0.000 A 
ATOM      9  S   UNL     1       7.060   5.325  18.038  0.00  0.00    +0.000 S 
ATOM     10  H   UNL     1       9.946   8.766  20.020  0.00  0.00    +0.000 HD
ATOM     11  H   UNL     1       8.701   7.009  19.371  0.00  0.00    +0.000 HD
ENDROOT
BRANCH   1  17
ATOM     12  C   UNL     1       9.348  13.526  22.122  0.00  0.00    +0.000 C 
ATOM     13  C   UNL     1       9.749  12.817  20.862  0.00  0.00    +0.000 A 
ATOM     14  C   UNL     1      10.332  13.537  19.814  0.00  0.00    +0.000 A 
ATOM     15  C   UNL     1      10.693  12.886  18.643  0.00  0.00    +0.000 A 
ATOM     16  C   UNL     1      10.450  11.519  18.504  0.00  0.00    +0.000 A 
ATOM     17  C   UNL     1       9.835  10.780  19.520  0.00  0.00    +0.000 A 
ATOM     18  C   UNL     1       9.517  11.436  20.716  0.00  0.00    +0.000 A 
ENDBRANCH   1  17
BRANCH   8  19
ATOM     19  S   UNL     1       5.123   4.044  16.036  0.00  0.00    +0.000 S 
BRANCH  19  20
ATOM     20  C   UNL     1       4.515   3.371  17.622  0.00  0.00    +0.000 C 
BRANCH  20  21
ATOM     21  C   UNL     1       3.728   4.428  18.376  0.00  0.00    +0.000 A 
ATOM     22  C   UNL     1       3.280   4.185  19.615  0.00  0.00    +0.000 A 
ATOM     23  C   UNL     1       2.539   5.234  20.333  0.00  0.00    +0.000 A 
ATOM     24  O   UNL     1       2.130   4.993  21.470  0.00  0.00    +0.000 OA
ATOM     25  N   UNL     1       2.364   6.423  19.646  0.00  0.00    +0.000 N 
ATOM     26  C   UNL     1       1.658   7.459  20.252  0.00  0.00    +0.000 A 
ATOM     27  C   UNL     1       1.433   8.630  19.635  0.00  0.00    +0.000 A 
ATOM     28  C   UNL     1       0.669   9.754  20.269  0.00  0.00    +0.000 C 
ATOM     29  C   UNL     1       1.951   8.826  18.299  0.00  0.00    +0.000 A 
ATOM     30  C   UNL     1       2.654   7.865  17.687  0.00  0.00    +0.000 A 
ATOM     31  C   UNL     1       2.888   6.560  18.367  0.00  0.00    +0.000 A 
ATOM     32  N   UNL     1       3.551   5.634  17.739  0.00  0.00    +0.000 NA
ENDBRANCH  20  21
ENDBRANCH  19  20
ENDBRANCH   8  19
TORSDOF 4
ENDMDL
MODEL 4
REMARK VINA RESULT:      -8.1      1.394      1.787
REMARK  Name = 
REMARK  6 active torsions:
REMARK  status: ('A' for Active; 'I' for Inactive)
REMARK    1  A    between atoms: C_1  and  C_2
REMARK    2  A    between atoms: C_6  and  N_7
REMARK    3  A    between atoms: C_14  and  S_15
REMARK    4  A    between atoms: S_15  and  C_16
REMARK    5  A    between atoms: C_16  and  C_17
REMARK    6  A    between atoms: C_23  and  C_24
REMARK                            x       y       z     vdW  Elec       q    Type
REMARK                         _______ _______ _______ _____ _____    ______ ____
ROOT
ATOM      1  N   UNL     1       9.683   9.807  19.312  0.00  0.00    +0.000 N 
ATOM      2  C   UNL     1       8.640   9.253  18.575  0.00  0.00    +0.000 C 
ATOM      3  O   UNL     1       7.949   9.899  17.793  0.00  0.00    +0.000 OA
ATOM      4  N   UNL     1       8.436   7.915  18.827  0.00  0.00    +0.000 N 
ATOM      5  C   UNL     1       7.517   7.232  18.052  0.00  0.00    +0.000 A 
ATOM      6  N   UNL     1       6.975   7.591  16.911  0.00  0.00    +0.000 NA
ATOM      7  N   UNL     1       6.101   6.645  16.424  0.00  0.00    +0.000 NA
ATOM      8  C   UNL     1       6.024   5.598  17.214  0.00  0.00    +0.000 A 
ATOM      9  S   UNL     1       7.019   5.700  18.619  0.00  0.00    +0.000 S 
ATOM     10  H   UNL     1      10.105   9.246  20.034  0.00  0.00    +0.000 HD
ATOM     11  H   UNL     1       8.763   7.479  19.669  0.00  0.00    +0.000 HD
ENDROOT
BRANCH   1  17
ATOM     12  C   UNL     1      11.911  13.399  16.739  0.00  0.00    +0.000 C 
ATOM     13  C   UNL     1      11.198  12.935  17.976  0.00  0.00    +0.000 A 
ATOM     14  C   UNL     1      11.050  13.806  19.061  0.00  0.00    +0.000 A 
ATOM     15  C   UNL     1      10.402  13.376  20.210  0.00  0.00    +0.000 A 
ATOM     16  C   UNL     1       9.921  12.070  20.290  0.00  0.00    +0.000 A 
ATOM     17  C   UNL     1      10.088  11.165  19.236  0.00  0.00    +0.000 A 
ATOM     18  C   UNL     1      10.701  11.622  18.062  0.00  0.00    +0.000 A 
ENDBRANCH   1  17
BRANCH   8  19
ATOM     19  S   UNL     1       4.989   4.235  16.849  0.00  0.00    +0.000 S 
BRANCH  19  20
ATOM     20  C   UNL     1       3.941   4.218  18.346  0.00  0.00    +0.000 C 
BRANCH  20  21
ATOM     21  C   UNL     1       3.297   5.576  18.556  0.00  0.00    +0.000 A 
ATOM     22  C   UNL     1       3.343   6.505  17.591  0.00  0.00    +0.000 A 
ATOM     23  C   UNL     1       2.692   7.806  17.811  0.00  0.00    +0.000 A 
ATOM     24  O   UNL     1       2.746   8.651  16.916  0.00  0.00    +0.000 OA
ATOM     25  N   UNL     1       2.064   7.965  19.035  0.00  0.00    +0.000 N 
ATOM     26  C   UNL     1       1.439   9.174  19.326  0.00  0.00    +0.000 A 
ATOM     27  C   UNL     1       0.831   9.403  20.500  0.00  0.00    +0.000 A 
ATOM     28  C   UNL     1       0.159  10.701  20.833  0.00  0.00    +0.000 C 
ATOM     29  C   UNL     1       0.815   8.353  21.494  0.00  0.00    +0.000 A 
ATOM     30  C   UNL     1       1.384   7.167  21.249  0.00  0.00    +0.000 A 
ATOM     31  C   UNL     1       2.073   6.921  19.951  0.00  0.00    +0.000 A 
ATOM     32  N   UNL     1       2.642   5.769  19.750  0.00  0.00    +0.000 NA
ENDBRANCH  20  21
ENDBRANCH  19  20
ENDBRANCH   8  19
TORSDOF 4
ENDMDL
MODEL 5
REMARK VINA RESULT:      -8.1      1.206      1.773
REMARK  Name = 
REMARK  6 active torsions:
REMARK  status: ('A' for Active; 'I' for Inactive)
REMARK    1  A    between atoms: C_1  and  C_2
REMARK    2  A    between atoms: C_6  and  N_7
REMARK    3  A    between atoms: C_14  and  S_15
REMARK    4  A    between atoms: S_15  and  C_16
REMARK    5  A    between atoms: C_16  and  C_17
REMARK    6  A    between atoms: C_23  and  C_24
REMARK                            x       y       z     vdW  Elec       q    Type
REMARK                         _______ _______ _______ _____ _____    ______ ____
ROOT
ATOM      1  N   UNL     1       8.723  10.424  17.936  0.00  0.00    +0.000 N 
ATOM      2  C   UNL     1       8.526   9.075  18.217  0.00  0.00    +0.000 C 
ATOM      3  O   UNL     1       9.182   8.458  19.051  0.00  0.00    +0.000 OA
ATOM      4  N   UNL     1       7.544   8.490  17.451  0.00  0.00    +0.000 N 
ATOM      5  C   UNL     1       7.171   7.191  17.741  0.00  0.00    +0.000 A 
ATOM      6  N   UNL     1       7.420   6.484  18.819  0.00  0.00    +0.000 NA
ATOM      7  N   UNL     1       6.878   5.220  18.756  0.00  0.00    +0.000 NA
ATOM      8  C   UNL     1       6.229   5.022  17.631  0.00  0.00    +0.000 A 
ATOM      9  S   UNL     1       6.239   6.376  16.563  0.00  0.00    +0.000 S 
ATOM     10  H   UNL     1       8.246  10.820  17.142  0.00  0.00    +0.000 HD
ATOM     11  H   UNL     1       7.247   8.885  16.578  0.00  0.00    +0.000 HD
ENDROOT
BRANCH   1  17
ATOM     12  C   UNL     1       9.785  13.521  21.647  0.00  0.00    +0.000 C 
ATOM     13  C   UNL     1      10.202  12.787  20.406  0.00  0.00    +0.000 A 
ATOM     14  C   UNL     1      11.467  13.016  19.854  0.00  0.00    +0.000 A 
ATOM     15  C   UNL     1      11.851  12.349  18.699  0.00  0.00    +0.000 A 
ATOM     16  C   UNL     1      10.964  11.470  18.078  0.00  0.00    +0.000 A 
ATOM     17  C   UNL     1       9.679  11.249  18.585  0.00  0.00    +0.000 A 
ATOM     18  C   UNL     1       9.318  11.891  19.776  0.00  0.00    +0.000 A 
ENDBRANCH   1  17
BRANCH   8  19
ATOM     19  S   UNL     1       5.437   3.503  17.271  0.00  0.00    +0.000 S 
BRANCH  19  20
ATOM     20  C   UNL     1       3.772   4.107  16.824  0.00  0.00    +0.000 C 
BRANCH  20  21
ATOM     21  C   UNL     1       3.172   4.899  17.972  0.00  0.00    +0.000 A 
ATOM     22  C   UNL     1       2.985   4.325  19.167  0.00  0.00    +0.000 A 
ATOM     23  C   UNL     1       2.422   5.121  20.270  0.00  0.00    +0.000 A 
ATOM     24  O   UNL     1       2.252   4.578  21.362  0.00  0.00    +0.000 OA
ATOM     25  N   UNL     1       2.126   6.440  19.969  0.00  0.00    +0.000 N 
ATOM     26  C   UNL     1       1.574   7.254  20.954  0.00  0.00    +0.000 A 
ATOM     27  C   UNL     1       1.243   8.534  20.724  0.00  0.00    +0.000 A 
ATOM     28  C   UNL     1       0.642   9.423  21.771  0.00  0.00    +0.000 C 
ATOM     29  C   UNL     1       1.478   9.091  19.411  0.00  0.00    +0.000 A 
ATOM     30  C   UNL     1       2.027   8.351  18.439  0.00  0.00    +0.000 A 
ATOM     31  C   UNL     1       2.378   6.925  18.692  0.00  0.00    +0.000 A 
ATOM     32  N   UNL     1       2.884   6.221  17.723  0.00  0.00    +0.000 NA
ENDBRANCH  20  21
ENDBRANCH  19  20
ENDBRANCH   8  19
TORSDOF 4
ENDMDL
MODEL 6
REMARK VINA RESULT:      -8.0      1.021      1.129
REMARK  Name = 
REMARK  6 active torsions:
REMARK  status: ('A' for Active; 'I' for Inactive)
REMARK    1  A    between atoms: C_1  and  C_2
REMARK    2  A    between atoms: C_6  and  N_7
REMARK    3  A    between atoms: C_14  and  S_15
REMARK    4  A    between atoms: S_15  and  C_16
REMARK    5  A    between atoms: C_16  and  C_17
REMARK    6  A    between atoms: C_23  and  C_24
REMARK                            x       y       z     vdW  Elec       q    Type
REMARK                         _______ _______ _______ _____ _____    ______ ____
ROOT
ATOM      1  N   UNL     1       9.161   9.371  18.934  0.00  0.00    +0.000 N 
ATOM      2  C   UNL     1       8.211   8.635  18.232  0.00  0.00    +0.000 C 
ATOM      3  O   UNL     1       7.546   9.098  17.310  0.00  0.00    +0.000 OA
ATOM      4  N   UNL     1       8.065   7.345  18.688  0.00  0.00    +0.000 N 
ATOM      5  C   UNL     1       7.248   6.485  17.978  0.00  0.00    +0.000 A 
ATOM      6  N   UNL     1       6.775   6.616  16.761  0.00  0.00    +0.000 NA
ATOM      7  N   UNL     1       5.997   5.546  16.381  0.00  0.00    +0.000 NA
ATOM      8  C   UNL     1       5.919   4.638  17.327  0.00  0.00    +0.000 A 
ATOM      9  S   UNL     1       6.796   5.034  18.758  0.00  0.00    +0.000 S 
ATOM     10  H   UNL     1       9.558   8.965  19.766  0.00  0.00    +0.000 HD
ATOM     11  H   UNL     1       8.351   7.074  19.611  0.00  0.00    +0.000 HD
ENDROOT
BRANCH   1  17
ATOM     12  C   UNL     1      12.333  13.126  19.501  0.00  0.00    +0.000 C 
ATOM     13  C   UNL     1      11.048  12.582  18.950  0.00  0.00    +0.000 A 
ATOM     14  C   UNL     1      10.159  13.434  18.286  0.00  0.00    +0.000 A 
ATOM     15  C   UNL     1       8.964  12.936  17.786  0.00  0.00    +0.000 A 
ATOM     16  C   UNL     1       8.641  11.592  17.968  0.00  0.00    +0.000 A 
ATOM     17  C   UNL     1       9.492  10.724  18.661  0.00  0.00    +0.000 A 
ATOM     18  C   UNL     1      10.717  11.225  19.120  0.00  0.00    +0.000 A 
ENDBRANCH   1  17
BRANCH   8  19
ATOM     19  S   UNL     1       4.994   3.166  17.126  0.00  0.00    +0.000 S 
BRANCH  19  20
ATOM     20  C   UNL     1       3.341   3.868  16.794  0.00  0.00    +0.000 C 
BRANCH  20  21
ATOM     21  C   UNL     1       2.852   4.659  17.994  0.00  0.00    +0.000 A 
ATOM     22  C   UNL     1       2.663   4.053  19.173  0.00  0.00    +0.000 A 
ATOM     23  C   UNL     1       2.209   4.846  20.328  0.00  0.00    +0.000 A 
ATOM     24  O   UNL     1       2.036   4.273  21.404  0.00  0.00    +0.000 OA
ATOM     25  N   UNL     1       2.014   6.196  20.090  0.00  0.00    +0.000 N 
ATOM     26  C   UNL     1       1.569   7.010  21.127  0.00  0.00    +0.000 A 
ATOM     27  C   UNL     1       1.338   8.322  20.960  0.00  0.00    +0.000 A 
ATOM     28  C   UNL     1       0.853   9.213  22.064  0.00  0.00    +0.000 C 
ATOM     29  C   UNL     1       1.570   8.912  19.660  0.00  0.00    +0.000 A 
ATOM     30  C   UNL     1       2.018   8.170  18.640  0.00  0.00    +0.000 A 
ATOM     31  C   UNL     1       2.257   6.711  18.823  0.00  0.00    +0.000 A 
ATOM     32  N   UNL     1       2.667   6.009  17.808  0.00  0.00    +0.000 NA
ENDBRANCH  20  21
ENDBRANCH  19  20
ENDBRANCH   8  19
TORSDOF 4
ENDMDL
MODEL 7
REMARK VINA RESULT:      -8.0      5.490      7.969
REMARK  Name = 
REMARK  6 active torsions:
REMARK  status: ('A' for Active; 'I' for Inactive)
REMARK    1  A    between atoms: C_1  and  C_2
REMARK    2  A    between atoms: C_6  and  N_7
REMARK    3  A    between atoms: C_14  and  S_15
REMARK    4  A    between atoms: S_15  and  C_16
REMARK    5  A    between atoms: C_16  and  C_17
REMARK    6  A    between atoms: C_23  and  C_24
REMARK                            x       y       z     vdW  Elec       q    Type
REMARK                         _______ _______ _______ _____ _____    ______ ____
ROOT
ATOM      1  N   UNL     1       5.174   4.405  16.031  0.00  0.00    +0.000 N 
ATOM      2  C   UNL     1       4.581   5.535  16.587  0.00  0.00    +0.000 C 
ATOM      3  O   UNL     1       4.631   6.646  16.069  0.00  0.00    +0.000 OA
ATOM      4  N   UNL     1       3.955   5.295  17.789  0.00  0.00    +0.000 N 
ATOM      5  C   UNL     1       3.218   6.314  18.362  0.00  0.00    +0.000 A 
ATOM      6  N   UNL     1       2.785   7.426  17.813  0.00  0.00    +0.000 NA
ATOM      7  N   UNL     1       2.071   8.204  18.695  0.00  0.00    +0.000 NA
ATOM      8  C   UNL     1       1.982   7.644  19.880  0.00  0.00    +0.000 A 
ATOM      9  S   UNL     1       2.774   6.117  19.999  0.00  0.00    +0.000 S 
ATOM     10  H   UNL     1       5.211   3.566  16.586  0.00  0.00    +0.000 HD
ATOM     11  H   UNL     1       4.184   4.500  18.356  0.00  0.00    +0.000 HD
ENDROOT
BRANCH   1  17
ATOM     12  C   UNL     1       5.628   2.584  11.453  0.00  0.00    +0.000 C 
ATOM     13  C   UNL     1       6.117   3.486  12.548  0.00  0.00    +0.000 A 
ATOM     14  C   UNL     1       7.309   4.198  12.381  0.00  0.00    +0.000 A 
ATOM     15  C   UNL     1       7.771   5.024  13.396  0.00  0.00    +0.000 A 
ATOM     16  C   UNL     1       7.058   5.122  14.591  0.00  0.00    +0.000 A 
ATOM     17  C   UNL     1       5.882   4.392  14.801  0.00  0.00    +0.000 A 
ATOM     18  C   UNL     1       5.399   3.599  13.753  0.00  0.00    +0.000 A 
ENDBRANCH   1  17
BRANCH   8  19
ATOM     19  S   UNL     1       1.131   8.407  21.206  0.00  0.00    +0.000 S 
BRANCH  19  20
ATOM     20  C   UNL     1       1.287  10.161  20.720  0.00  0.00    +0.000 C 
BRANCH  20  21
ATOM     21  C   UNL     1      -0.052  10.701  20.252  0.00  0.00    +0.000 A 
ATOM     22  C   UNL     1      -0.667  11.676  20.935  0.00  0.00    +0.000 A 
ATOM     23  C   UNL     1      -1.954  12.196  20.447  0.00  0.00    +0.000 A 
ATOM     24  O   UNL     1      -2.509  13.090  21.088  0.00  0.00    +0.000 OA
ATOM     25  N   UNL     1      -2.435  11.619  19.284  0.00  0.00    +0.000 N 
ATOM     26  C   UNL     1      -3.655  12.046  18.768  0.00  0.00    +0.000 A 
ATOM     27  C   UNL     1      -4.190  11.514  17.657  0.00  0.00    +0.000 A 
ATOM     28  C   UNL     1      -5.505  11.956  17.091  0.00  0.00    +0.000 C 
ATOM     29  C   UNL     1      -3.468  10.468  16.967  0.00  0.00    +0.000 A 
ATOM     30  C   UNL     1      -2.280  10.042  17.416  0.00  0.00    +0.000 A 
ATOM     31  C   UNL     1      -1.697  10.622  18.658  0.00  0.00    +0.000 A 
ATOM     32  N   UNL     1      -0.555  10.171  19.087  0.00  0.00    +0.000 NA
ENDBRANCH  20  21
ENDBRANCH  19  20
ENDBRANCH   8  19
TORSDOF 4
ENDMDL
MODEL 8
REMARK VINA RESULT:      -7.9      1.409      2.194
REMARK  Name = 
REMARK  6 active torsions:
REMARK  status: ('A' for Active; 'I' for Inactive)
REMARK    1  A    between atoms: C_1  and  C_2
REMARK    2  A    between atoms: C_6  and  N_7
REMARK    3  A    between atoms: C_14  and  S_15
REMARK    4  A    between atoms: S_15  and  C_16
REMARK    5  A    between atoms: C_16  and  C_17
REMARK    6  A    between atoms: C_23  and  C_24
REMARK                            x       y       z     vdW  Elec       q    Type
REMARK                         _______ _______ _______ _____ _____    ______ ____
ROOT
ATOM      1  N   UNL     1       9.830  10.131  19.334  0.00  0.00    +0.000 N 
ATOM      2  C   UNL     1       8.816   9.542  18.584  0.00  0.00    +0.000 C 
ATOM      3  O   UNL     1       8.149  10.154  17.755  0.00  0.00    +0.000 OA
ATOM      4  N   UNL     1       8.611   8.213  18.879  0.00  0.00    +0.000 N 
ATOM      5  C   UNL     1       7.723   7.496  18.100  0.00  0.00    +0.000 A 
ATOM      6  N   UNL     1       7.218   7.807  16.929  0.00  0.00    +0.000 NA
ATOM      7  N   UNL     1       6.367   6.837  16.449  0.00  0.00    +0.000 NA
ATOM      8  C   UNL     1       6.269   5.821  17.276  0.00  0.00    +0.000 A 
ATOM      9  S   UNL     1       7.214   5.983  18.708  0.00  0.00    +0.000 S 
ATOM     10  H   UNL     1      10.231   9.600  20.091  0.00  0.00    +0.000 HD
ATOM     11  H   UNL     1       8.912   7.811  19.748  0.00  0.00    +0.000 HD
ENDROOT
BRANCH   1  17
ATOM     12  C   UNL     1       9.706  14.724  21.169  0.00  0.00    +0.000 C 
ATOM     13  C   UNL     1      10.159  13.757  20.115  0.00  0.00    +0.000 A 
ATOM     14  C   UNL     1      10.858  14.224  18.997  0.00  0.00    +0.000 A 
ATOM     15  C   UNL     1      11.268  13.334  18.015  0.00  0.00    +0.000 A 
ATOM     16  C   UNL     1      10.960  11.979  18.132  0.00  0.00    +0.000 A 
ATOM     17  C   UNL     1      10.230  11.488  19.220  0.00  0.00    +0.000 A 
ATOM     18  C   UNL     1       9.862  12.386  20.230  0.00  0.00    +0.000 A 
ENDBRANCH   1  17
BRANCH   8  19
ATOM     19  S   UNL     1       5.254   4.438  16.928  0.00  0.00    +0.000 S 
BRANCH  19  20
ATOM     20  C   UNL     1       4.239   4.394  18.446  0.00  0.00    +0.000 C 
BRANCH  20  21
ATOM     21  C   UNL     1       3.485   5.701  18.616  0.00  0.00    +0.000 A 
ATOM     22  C   UNL     1       3.475   6.610  17.632  0.00  0.00    +0.000 A 
ATOM     23  C   UNL     1       2.718   7.859  17.813  0.00  0.00    +0.000 A 
ATOM     24  O   UNL     1       2.721   8.687  16.901  0.00  0.00    +0.000 OA
ATOM     25  N   UNL     1       2.057   7.992  19.022  0.00  0.00    +0.000 N 
ATOM     26  C   UNL     1       1.332   9.153  19.276  0.00  0.00    +0.000 A 
ATOM     27  C   UNL     1       0.686   9.356  20.435  0.00  0.00    +0.000 A 
ATOM     28  C   UNL     1      -0.093  10.603  20.729  0.00  0.00    +0.000 C 
ATOM     29  C   UNL     1       0.735   8.328  21.451  0.00  0.00    +0.000 A 
ATOM     30  C   UNL     1       1.402   7.186  21.241  0.00  0.00    +0.000 A 
ATOM     31  C   UNL     1       2.132   6.971  19.961  0.00  0.00    +0.000 A 
ATOM     32  N   UNL     1       2.795   5.864  19.794  0.00  0.00    +0.000 NA
ENDBRANCH  20  21
ENDBRANCH  19  20
ENDBRANCH   8  19
TORSDOF 4
ENDMDL
MODEL 9
REMARK VINA RESULT:      -7.9      2.072      3.241
REMARK  Name = 
REMARK  6 active torsions:
REMARK  status: ('A' for Active; 'I' for Inactive)
REMARK    1  A    between atoms: C_1  and  C_2
REMARK    2  A    between atoms: C_6  and  N_7
REMARK    3  A    between atoms: C_14  and  S_15
REMARK    4  A    between atoms: S_15  and  C_16
REMARK    5  A    between atoms: C_16  and  C_17
REMARK    6  A    between atoms: C_23  and  C_24
REMARK                            x       y       z     vdW  Elec       q    Type
REMARK                         _______ _______ _______ _____ _____    ______ ____
ROOT
ATOM      1  N   UNL     1       9.555  10.128  20.153  0.00  0.00    +0.000 N 
ATOM      2  C   UNL     1       8.932   9.546  19.052  0.00  0.00    +0.000 C 
ATOM      3  O   UNL     1       8.625  10.172  18.043  0.00  0.00    +0.000 OA
ATOM      4  N   UNL     1       8.665   8.205  19.214  0.00  0.00    +0.000 N 
ATOM      5  C   UNL     1       8.173   7.498  18.133  0.00  0.00    +0.000 A 
ATOM      6  N   UNL     1       8.157   7.838  16.865  0.00  0.00    +0.000 NA
ATOM      7  N   UNL     1       7.590   6.870  16.068  0.00  0.00    +0.000 NA
ATOM      8  C   UNL     1       7.205   5.826  16.767  0.00  0.00    +0.000 A 
ATOM      9  S   UNL     1       7.510   5.958  18.458  0.00  0.00    +0.000 S 
ATOM     10  H   UNL     1       9.643   9.580  20.994  0.00  0.00    +0.000 HD
ATOM     11  H   UNL     1       8.614   7.781  20.122  0.00  0.00    +0.000 HD
ENDROOT
BRANCH   1  17
ATOM     12  C   UNL     1       8.267  14.788  21.206  0.00  0.00    +0.000 C 
ATOM     13  C   UNL     1       9.292  13.796  20.741  0.00  0.00    +0.000 A 
ATOM     14  C   UNL     1      10.541  14.243  20.295  0.00  0.00    +0.000 A 
ATOM     15  C   UNL     1      11.487  13.328  19.853  0.00  0.00    +0.000 A 
ATOM     16  C   UNL     1      11.181  11.968  19.832  0.00  0.00    +0.000 A 
ATOM     17  C   UNL     1       9.928  11.494  20.236  0.00  0.00    +0.000 A 
ATOM     18  C   UNL     1       8.997  12.420  20.725  0.00  0.00    +0.000 A 
ENDBRANCH   1  17
BRANCH   8  19
ATOM     19  S   UNL     1       6.446   4.437  16.018  0.00  0.00    +0.000 S 
BRANCH  19  20
ATOM     20  C   UNL     1       4.729   5.045  15.879  0.00  0.00    +0.000 C 
BRANCH  20  21
ATOM     21  C   UNL     1       3.994   4.856  17.194  0.00  0.00    +0.000 A 
ATOM     22  C   UNL     1       3.600   5.917  17.909  0.00  0.00    +0.000 A 
ATOM     23  C   UNL     1       2.870   5.706  19.169  0.00  0.00    +0.000 A 
ATOM     24  O   UNL     1       2.517   6.693  19.818  0.00  0.00    +0.000 OA
ATOM     25  N   UNL     1       2.642   4.386  19.519  0.00  0.00    +0.000 N 
ATOM     26  C   UNL     1       1.972   4.104  20.706  0.00  0.00    +0.000 A 
ATOM     27  C   UNL     1       1.738   2.847  21.116  0.00  0.00    +0.000 A 
ATOM     28  C   UNL     1       1.024   2.524  22.394  0.00  0.00    +0.000 C 
ATOM     29  C   UNL     1       2.187   1.748  20.291  0.00  0.00    +0.000 A 
ATOM     30  C   UNL     1       2.816   1.974  19.130  0.00  0.00    +0.000 A 
ATOM     31  C   UNL     1       3.090   3.369  18.686  0.00  0.00    +0.000 A 
ATOM     32  N   UNL     1       3.727   3.559  17.568  0.00  0.00    +0.000 NA
ENDBRANCH  20  21
ENDBRANCH  19  20
ENDBRANCH   8  19
TORSDOF 4
ENDMDL
