MODEL 1
REMARK VINA RESULT:      -6.6      0.000      0.000
REMARK  Name = 
REMARK  2 active torsions:
REMARK  status: ('A' for Active; 'I' for Inactive)
REMARK    1  A    between atoms: C_1  and  C_2
REMARK    2  A    between atoms: C_10  and  O_11
REMARK                            x       y       z     vdW  Elec       q    Type
REMARK                         _______ _______ _______ _____ _____    ______ ____
ROOT
ATOM      1  C   UNL     1       0.931   3.621  20.445  0.00  0.00    +0.000 C 
ATOM      2  C   UNL     1       2.403   3.511  20.183  0.00  0.00    +0.000 A 
ATOM      3  C   UNL     1       3.142   2.546  20.748  0.00  0.00    +0.000 A 
ATOM      4  C   UNL     1       4.581   2.379  20.505  0.00  0.00    +0.000 A 
ATOM      5  O   UNL     1       5.220   1.507  21.083  0.00  0.00    +0.000 OA
ATOM      6  O   UNL     1       5.155   3.238  19.586  0.00  0.00    +0.000 OA
ATOM      7  C   UNL     1       4.433   4.300  18.996  0.00  0.00    +0.000 A 
ATOM      8  C   UNL     1       5.120   5.175  18.141  0.00  0.00    +0.000 A 
ATOM      9  I   UNL     1       7.141   4.872  17.668  0.00  0.00    +0.000 I 
ATOM     10  C   UNL     1       4.433   6.261  17.598  0.00  0.00    +0.000 A 
ATOM     11  C   UNL     1       3.087   6.460  17.885  0.00  0.00    +0.000 A 
ATOM     12  C   UNL     1       2.408   5.565  18.715  0.00  0.00    +0.000 A 
ATOM     13  C   UNL     1       3.072   4.472  19.289  0.00  0.00    +0.000 A 
ENDROOT
BRANCH  10  14
ATOM     14  O   UNL     1       5.021   7.178  16.771  0.00  0.00    +0.000 OA
ATOM     15  H   UNL     1       5.048   8.029  17.246  0.00  0.00    +0.000 HD
ENDBRANCH  10  14
TORSDOF 1
ENDMDL
MODEL 2
REMARK VINA RESULT:      -6.2      1.709      1.759
REMARK  Name = 
REMARK  2 active torsions:
REMARK  status: ('A' for Active; 'I' for Inactive)
REMARK    1  A    between atoms: C_1  and  C_2
REMARK    2  A    between atoms: C_10  and  O_11
REMARK                            x       y       z     vdW  Elec       q    Type
REMARK                         _______ _______ _______ _____ _____    ______ ____
ROOT
ATOM      1  C   UNL     1       1.537   4.821  20.395  0.00  0.00    +0.000 C 
ATOM      2  C   UNL     1       2.486   4.166  19.436  0.00  0.00    +0.000 A 
ATOM      3  C   UNL     1       2.667   2.839  19.432  0.00  0.00    +0.000 A 
ATOM      4  C   UNL     1       3.564   2.145  18.497  0.00  0.00    +0.000 A 
ATOM      5  O   UNL     1       3.728   0.932  18.565  0.00  0.00    +0.000 OA
ATOM      6  O   UNL     1       4.183   2.929  17.541  0.00  0.00    +0.000 OA
ATOM      7  C   UNL     1       4.062   4.337  17.529  0.00  0.00    +0.000 A 
ATOM      8  C   UNL     1       4.797   5.057  16.576  0.00  0.00    +0.000 A 
ATOM      9  I   UNL     1       5.974   4.080  15.140  0.00  0.00    +0.000 I 
ATOM     10  C   UNL     1       4.732   6.451  16.590  0.00  0.00    +0.000 A 
ATOM     11  C   UNL     1       3.938   7.111  17.521  0.00  0.00    +0.000 A 
ATOM     12  C   UNL     1       3.189   6.380  18.447  0.00  0.00    +0.000 A 
ATOM     13  C   UNL     1       3.244   4.979  18.470  0.00  0.00    +0.000 A 
ENDROOT
BRANCH  10  14
ATOM     14  O   UNL     1       5.427   7.240  15.715  0.00  0.00    +0.000 OA
ATOM     15  H   UNL     1       4.968   7.203  14.856  0.00  0.00    +0.000 HD
ENDBRANCH  10  14
TORSDOF 1
ENDMDL
MODEL 3
REMARK VINA RESULT:      -6.2      2.324      3.368
REMARK  Name = 
REMARK  2 active torsions:
REMARK  status: ('A' for Active; 'I' for Inactive)
REMARK    1  A    between atoms: C_1  and  C_2
REMARK    2  A    between atoms: C_10  and  O_11
REMARK                            x       y       z     vdW  Elec       q    Type
REMARK                         _______ _______ _______ _____ _____    ______ ____
ROOT
ATOM      1  C   UNL     1       1.172   3.007  21.060  0.00  0.00    +0.000 C 
ATOM      2  C   UNL     1       1.820   4.162  20.359  0.00  0.00    +0.000 A 
ATOM      3  C   UNL     1       1.548   5.428  20.704  0.00  0.00    +0.000 A 
ATOM      4  C   UNL     1       2.175   6.595  20.067  0.00  0.00    +0.000 A 
ATOM      5  O   UNL     1       1.856   7.734  20.389  0.00  0.00    +0.000 OA
ATOM      6  O   UNL     1       3.141   6.332  19.115  0.00  0.00    +0.000 OA
ATOM      7  C   UNL     1       3.434   5.019  18.682  0.00  0.00    +0.000 A 
ATOM      8  C   UNL     1       4.367   4.854  17.648  0.00  0.00    +0.000 A 
ATOM      9  I   UNL     1       5.379   6.495  16.821  0.00  0.00    +0.000 I 
ATOM     10  C   UNL     1       4.623   3.567  17.172  0.00  0.00    +0.000 A 
ATOM     11  C   UNL     1       3.976   2.468  17.727  0.00  0.00    +0.000 A 
ATOM     12  C   UNL     1       3.070   2.644  18.776  0.00  0.00    +0.000 A 
ATOM     13  C   UNL     1       2.780   3.925  19.267  0.00  0.00    +0.000 A 
ENDROOT
BRANCH  10  14
ATOM     14  O   UNL     1       5.500   3.308  16.155  0.00  0.00    +0.000 OA
ATOM     15  H   UNL     1       5.172   2.525  15.675  0.00  0.00    +0.000 HD
ENDBRANCH  10  14
TORSDOF 1
ENDMDL
MODEL 4
REMARK VINA RESULT:      -6.0      2.836      5.024
REMARK  Name = 
REMARK  2 active torsions:
REMARK  status: ('A' for Active; 'I' for Inactive)
REMARK    1  A    between atoms: C_1  and  C_2
REMARK    2  A    between atoms: C_10  and  O_11
REMARK                            x       y       z     vdW  Elec       q    Type
REMARK                         _______ _______ _______ _____ _____    ______ ____
ROOT
ATOM      1  C   UNL     1       5.012   6.855  15.971  0.00  0.00    +0.000 C 
ATOM      2  C   UNL     1       4.078   6.535  17.099  0.00  0.00    +0.000 A 
ATOM      3  C   UNL     1       3.455   7.503  17.785  0.00  0.00    +0.000 A 
ATOM      4  C   UNL     1       2.511   7.243  18.881  0.00  0.00    +0.000 A 
ATOM      5  O   UNL     1       2.003   8.166  19.506  0.00  0.00    +0.000 OA
ATOM      6  O   UNL     1       2.223   5.917  19.143  0.00  0.00    +0.000 OA
ATOM      7  C   UNL     1       2.884   4.857  18.481  0.00  0.00    +0.000 A 
ATOM      8  C   UNL     1       2.591   3.543  18.875  0.00  0.00    +0.000 A 
ATOM      9  I   UNL     1       1.143   3.142  20.339  0.00  0.00    +0.000 I 
ATOM     10  C   UNL     1       3.279   2.491  18.270  0.00  0.00    +0.000 A 
ATOM     11  C   UNL     1       4.224   2.741  17.282  0.00  0.00    +0.000 A 
ATOM     12  C   UNL     1       4.487   4.054  16.879  0.00  0.00    +0.000 A 
ATOM     13  C   UNL     1       3.824   5.134  17.478  0.00  0.00    +0.000 A 
ENDROOT
BRANCH  10  14
ATOM     14  O   UNL     1       3.076   1.179  18.600  0.00  0.00    +0.000 OA
ATOM     15  H   UNL     1       3.809   0.904  19.181  0.00  0.00    +0.000 HD
ENDBRANCH  10  14
TORSDOF 1
ENDMDL
MODEL 5
REMARK VINA RESULT:      -5.9      2.772      4.406
REMARK  Name = 
REMARK  2 active torsions:
REMARK  status: ('A' for Active; 'I' for Inactive)
REMARK    1  A    between atoms: C_1  and  C_2
REMARK    2  A    between atoms: C_10  and  O_11
REMARK                            x       y       z     vdW  Elec       q    Type
REMARK                         _______ _______ _______ _____ _____    ______ ____
ROOT
ATOM      1  C   UNL     1       6.889   4.463  15.578  0.00  0.00    +0.000 C 
ATOM      2  C   UNL     1       6.356   4.589  16.973  0.00  0.00    +0.000 A 
ATOM      3  C   UNL     1       7.122   5.042  17.974  0.00  0.00    +0.000 A 
ATOM      4  C   UNL     1       6.642   5.209  19.353  0.00  0.00    +0.000 A 
ATOM      5  O   UNL     1       7.397   5.584  20.242  0.00  0.00    +0.000 OA
ATOM      6  O   UNL     1       5.304   4.940  19.576  0.00  0.00    +0.000 OA
ATOM      7  C   UNL     1       4.464   4.417  18.567  0.00  0.00    +0.000 A 
ATOM      8  C   UNL     1       3.142   4.092  18.908  0.00  0.00    +0.000 A 
ATOM      9  I   UNL     1       2.392   4.453  20.834  0.00  0.00    +0.000 I 
ATOM     10  C   UNL     1       2.318   3.521  17.936  0.00  0.00    +0.000 A 
ATOM     11  C   UNL     1       2.796   3.297  16.650  0.00  0.00    +0.000 A 
ATOM     12  C   UNL     1       4.105   3.653  16.316  0.00  0.00    +0.000 A 
ATOM     13  C   UNL     1       4.963   4.214  17.272  0.00  0.00    +0.000 A 
ENDROOT
BRANCH  10  14
ATOM     14  O   UNL     1       1.024   3.152  18.178  0.00  0.00    +0.000 OA
ATOM     15  H   UNL     1       0.779   3.494  19.058  0.00  0.00    +0.000 HD
ENDBRANCH  10  14
TORSDOF 1
ENDMDL
MODEL 6
REMARK VINA RESULT:      -5.8      2.522      3.484
REMARK  Name = 
REMARK  2 active torsions:
REMARK  status: ('A' for Active; 'I' for Inactive)
REMARK    1  A    between atoms: C_1  and  C_2
REMARK    2  A    between atoms: C_10  and  O_11
REMARK                            x       y       z     vdW  Elec       q    Type
REMARK                         _______ _______ _______ _____ _____    ______ ____
ROOT
ATOM      1  C   UNL     1       2.539   2.411  17.314  0.00  0.00    +0.000 C 
ATOM      2  C   UNL     1       3.221   3.690  17.695  0.00  0.00    +0.000 A 
ATOM      3  C   UNL     1       2.770   4.446  18.705  0.00  0.00    +0.000 A 
ATOM      4  C   UNL     1       3.416   5.695  19.135  0.00  0.00    +0.000 A 
ATOM      5  O   UNL     1       2.936   6.374  20.036  0.00  0.00    +0.000 OA
ATOM      6  O   UNL     1       4.587   6.037  18.486  0.00  0.00    +0.000 OA
ATOM      7  C   UNL     1       5.081   5.300  17.387  0.00  0.00    +0.000 A 
ATOM      8  C   UNL     1       6.230   5.773  16.734  0.00  0.00    +0.000 A 
ATOM      9  I   UNL     1       7.250   7.474  17.418  0.00  0.00    +0.000 I 
ATOM     10  C   UNL     1       6.696   5.087  15.611  0.00  0.00    +0.000 A 
ATOM     11  C   UNL     1       6.042   3.945  15.161  0.00  0.00    +0.000 A 
ATOM     12  C   UNL     1       4.916   3.469  15.838  0.00  0.00    +0.000 A 
ATOM     13  C   UNL     1       4.414   4.143  16.959  0.00  0.00    +0.000 A 
ENDROOT
BRANCH  10  14
ATOM     14  O   UNL     1       7.793   5.481  14.898  0.00  0.00    +0.000 OA
ATOM     15  H   UNL     1       8.059   4.736  14.328  0.00  0.00    +0.000 HD
ENDBRANCH  10  14
TORSDOF 1
ENDMDL
MODEL 7
REMARK VINA RESULT:      -5.7      2.543      3.188
REMARK  Name = 
REMARK  2 active torsions:
REMARK  status: ('A' for Active; 'I' for Inactive)
REMARK    1  A    between atoms: C_1  and  C_2
REMARK    2  A    between atoms: C_10  and  O_11
REMARK                            x       y       z     vdW  Elec       q    Type
REMARK                         _______ _______ _______ _____ _____    ______ ____
ROOT
ATOM      1  C   UNL     1       3.889   1.121  18.466  0.00  0.00    +0.000 C 
ATOM      2  C   UNL     1       3.238   2.460  18.635  0.00  0.00    +0.000 A 
ATOM      3  C   UNL     1       2.184   2.626  19.446  0.00  0.00    +0.000 A 
ATOM      4  C   UNL     1       1.526   3.922  19.667  0.00  0.00    +0.000 A 
ATOM      5  O   UNL     1       0.537   4.011  20.385  0.00  0.00    +0.000 OA
ATOM      6  O   UNL     1       2.095   5.016  19.042  0.00  0.00    +0.000 OA
ATOM      7  C   UNL     1       3.177   4.890  18.142  0.00  0.00    +0.000 A 
ATOM      8  C   UNL     1       3.632   6.044  17.487  0.00  0.00    +0.000 A 
ATOM      9  I   UNL     1       2.801   7.927  17.892  0.00  0.00    +0.000 I 
ATOM     10  C   UNL     1       4.662   5.925  16.552  0.00  0.00    +0.000 A 
ATOM     11  C   UNL     1       5.237   4.686  16.291  0.00  0.00    +0.000 A 
ATOM     12  C   UNL     1       4.793   3.549  16.971  0.00  0.00    +0.000 A 
ATOM     13  C   UNL     1       3.751   3.632  17.905  0.00  0.00    +0.000 A 
ENDROOT
BRANCH  10  14
ATOM     14  O   UNL     1       5.159   6.987  15.849  0.00  0.00    +0.000 OA
ATOM     15  H   UNL     1       5.652   6.632  15.088  0.00  0.00    +0.000 HD
ENDBRANCH  10  14
TORSDOF 1
ENDMDL
MODEL 8
REMARK VINA RESULT:      -5.6      3.094      3.700
REMARK  Name = 
REMARK  2 active torsions:
REMARK  status: ('A' for Active; 'I' for Inactive)
REMARK    1  A    between atoms: C_1  and  C_2
REMARK    2  A    between atoms: C_10  and  O_11
REMARK                            x       y       z     vdW  Elec       q    Type
REMARK                         _______ _______ _______ _____ _____    ______ ____
ROOT
ATOM      1  C   UNL     1       4.435   3.639  17.859  0.00  0.00    +0.000 C 
ATOM      2  C   UNL     1       3.574   4.263  18.916  0.00  0.00    +0.000 A 
ATOM      3  C   UNL     1       3.188   3.574  19.997  0.00  0.00    +0.000 A 
ATOM      4  C   UNL     1       2.367   4.146  21.074  0.00  0.00    +0.000 A 
ATOM      5  O   UNL     1       2.002   3.458  22.020  0.00  0.00    +0.000 OA
ATOM      6  O   UNL     1       2.055   5.488  20.964  0.00  0.00    +0.000 OA
ATOM      7  C   UNL     1       2.399   6.249  19.824  0.00  0.00    +0.000 A 
ATOM      8  C   UNL     1       1.965   7.582  19.761  0.00  0.00    +0.000 A 
ATOM      9  I   UNL     1       0.913   8.462  21.348  0.00  0.00    +0.000 I 
ATOM     10  C   UNL     1       2.248   8.327  18.616  0.00  0.00    +0.000 A 
ATOM     11  C   UNL     1       2.964   7.763  17.566  0.00  0.00    +0.000 A 
ATOM     12  C   UNL     1       3.415   6.444  17.654  0.00  0.00    +0.000 A 
ATOM     13  C   UNL     1       3.135   5.663  18.784  0.00  0.00    +0.000 A 
ENDROOT
BRANCH  10  14
ATOM     14  O   UNL     1       1.849   9.625  18.453  0.00  0.00    +0.000 OA
ATOM     15  H   UNL     1       0.965   9.614  18.043  0.00  0.00    +0.000 HD
ENDBRANCH  10  14
TORSDOF 1
ENDMDL
MODEL 9
REMARK VINA RESULT:      -5.6      3.662      4.442
REMARK  Name = 
REMARK  2 active torsions:
REMARK  status: ('A' for Active; 'I' for Inactive)
REMARK    1  A    between atoms: C_1  and  C_2
REMARK    2  A    between atoms: C_10  and  O_11
REMARK                            x       y       z     vdW  Elec       q    Type
REMARK                         _______ _______ _______ _____ _____    ______ ____
ROOT
ATOM      1  C   UNL     1       4.084   5.069  17.343  0.00  0.00    +0.000 C 
ATOM      2  C   UNL     1       3.269   5.444  18.545  0.00  0.00    +0.000 A 
ATOM      3  C   UNL     1       3.048   4.570  19.536  0.00  0.00    +0.000 A 
ATOM      4  C   UNL     1       2.279   4.894  20.746  0.00  0.00    +0.000 A 
ATOM      5  O   UNL     1       2.066   4.043  21.603  0.00  0.00    +0.000 OA
ATOM      6  O   UNL     1       1.837   6.198  20.864  0.00  0.00    +0.000 OA
ATOM      7  C   UNL     1       2.004   7.146  19.830  0.00  0.00    +0.000 A 
ATOM      8  C   UNL     1       1.445   8.421  20.002  0.00  0.00    +0.000 A 
ATOM      9  I   UNL     1       0.466   8.951  21.780  0.00  0.00    +0.000 I 
ATOM     10  C   UNL     1       1.554   9.348  18.964  0.00  0.00    +0.000 A 
ATOM     11  C   UNL     1       2.220   9.018  17.790  0.00  0.00    +0.000 A 
ATOM     12  C   UNL     1       2.797   7.753  17.643  0.00  0.00    +0.000 A 
ATOM     13  C   UNL     1       2.693   6.794  18.660  0.00  0.00    +0.000 A 
ENDROOT
BRANCH  10  14
ATOM     14  O   UNL     1       1.025  10.607  19.031  0.00  0.00    +0.000 OA
ATOM     15  H   UNL     1       0.252  10.572  19.624  0.00  0.00    +0.000 HD
ENDBRANCH  10  14
TORSDOF 1
ENDMDL
