MODEL 1
REMARK VINA RESULT:      -8.6      0.000      0.000
REMARK  Name = 
REMARK  6 active torsions:
REMARK  status: ('A' for Active; 'I' for Inactive)
REMARK    1  A    between atoms: N_3  and  C_4
REMARK    2  A    between atoms: C_4  and  C_5
REMARK    3  A    between atoms: C_5  and  C_6
REMARK    4  A    between atoms: N_12  and  C_13
REMARK    5  A    between atoms: N_18  and  C_19
REMARK    6  A    between atoms: C_19  and  C_20
REMARK                            x       y       z     vdW  Elec       q    Type
REMARK                         _______ _______ _______ _____ _____    ______ ____
ROOT
ATOM      1  C   UNL     1       6.957   5.543  16.318  0.00  0.00    +0.000 C 
ATOM      2  C   UNL     1       7.216   4.491  17.414  0.00  0.00    +0.000 C 
ATOM      3  C   UNL     1       6.319   4.636  18.639  0.00  0.00    +0.000 C 
ATOM      4  C   UNL     1       4.966   4.002  18.454  0.00  0.00    +0.000 A 
ATOM      5  N   UNL     1       4.408   3.278  19.384  0.00  0.00    +0.000 NA
ATOM      6  N   UNL     1       3.211   2.898  18.831  0.00  0.00    +0.000 N 
ATOM      7  C   UNL     1       3.095   3.399  17.537  0.00  0.00    +0.000 A 
ATOM      8  O   UNL     1       2.207   3.176  16.723  0.00  0.00    +0.000 OA
ATOM      9  N   UNL     1       4.224   4.165  17.343  0.00  0.00    +0.000 N 
ATOM     10  C   UNL     1       4.548   4.783  16.072  0.00  0.00    +0.000 C 
ATOM     11  C   UNL     1       5.490   5.976  16.185  0.00  0.00    +0.000 C 
ENDROOT
BRANCH   1  15
ATOM     12  O   UNL     1       6.371   7.774  17.905  0.00  0.00    +0.000 OA
ATOM     13  C   UNL     1       7.415   7.768  17.268  0.00  0.00    +0.000 C 
ATOM     14  N   UNL     1       8.317   8.805  17.277  0.00  0.00    +0.000 N 
ATOM     15  N   UNL     1       7.826   6.712  16.487  0.00  0.00    +0.000 N 
ATOM     16  H   UNL     1       9.261   8.589  16.996  0.00  0.00    +0.000 HD
ATOM     17  H   UNL     1       8.483   6.930  15.752  0.00  0.00    +0.000 HD
BRANCH  14  18
ATOM     18  C   UNL     1       8.103   9.903  18.213  0.00  0.00    +0.000 C 
BRANCH  18  19
ATOM     19  C   UNL     1       9.379  10.351  18.928  0.00  0.00    +0.000 C 
BRANCH  19  20
ATOM     20  C   UNL     1       9.937  11.629  18.344  0.00  0.00    +0.000 A 
ATOM     21  C   UNL     1      11.238  11.676  17.826  0.00  0.00    +0.000 A 
ATOM     22  C   UNL     1      11.756  12.868  17.312  0.00  0.00    +0.000 A 
ATOM     23  C   UNL     1      10.980  14.026  17.313  0.00  0.00    +0.000 A 
ATOM     24  C   UNL     1       9.685  13.992  17.827  0.00  0.00    +0.000 A 
ATOM     25  C   UNL     1       9.167  12.802  18.342  0.00  0.00    +0.000 A 
ENDBRANCH  19  20
ENDBRANCH  18  19
ENDBRANCH  14  18
ENDBRANCH   1  15
BRANCH   6  26
ATOM     26  C   UNL     1       2.308   1.963  19.460  0.00  0.00    +0.000 C 
BRANCH  26  27
ATOM     27  C   UNL     1       1.239   2.663  20.246  0.00  0.00    +0.000 C 
ATOM     28  C   UNL     1       1.303   2.853  21.744  0.00  0.00    +0.000 C 
ATOM     29  C   UNL     1       1.541   4.022  20.831  0.00  0.00    +0.000 C 
ENDBRANCH  26  27
ENDBRANCH   6  26
TORSDOF 6
ENDMDL
MODEL 2
REMARK VINA RESULT:      -8.5      5.867      9.736
REMARK  Name = 
REMARK  6 active torsions:
REMARK  status: ('A' for Active; 'I' for Inactive)
REMARK    1  A    between atoms: N_3  and  C_4
REMARK    2  A    between atoms: C_4  and  C_5
REMARK    3  A    between atoms: C_5  and  C_6
REMARK    4  A    between atoms: N_12  and  C_13
REMARK    5  A    between atoms: N_18  and  C_19
REMARK    6  A    between atoms: C_19  and  C_20
REMARK                            x       y       z     vdW  Elec       q    Type
REMARK                         _______ _______ _______ _____ _____    ______ ____
ROOT
ATOM      1  C   UNL     1       2.469   7.698  19.040  0.00  0.00    +0.000 C 
ATOM      2  C   UNL     1       2.230   9.007  18.261  0.00  0.00    +0.000 C 
ATOM      3  C   UNL     1       0.764   9.423  18.181  0.00  0.00    +0.000 C 
ATOM      4  C   UNL     1       0.293  10.154  19.410  0.00  0.00    +0.000 A 
ATOM      5  N   UNL     1      -0.446  11.226  19.337  0.00  0.00    +0.000 NA
ATOM      6  N   UNL     1      -0.652  11.573  20.649  0.00  0.00    +0.000 N 
ATOM      7  C   UNL     1       0.012  10.688  21.493  0.00  0.00    +0.000 A 
ATOM      8  O   UNL     1       0.123  10.754  22.712  0.00  0.00    +0.000 OA
ATOM      9  N   UNL     1       0.566   9.740  20.662  0.00  0.00    +0.000 N 
ATOM     10  C   UNL     1       1.441   8.687  21.139  0.00  0.00    +0.000 C 
ATOM     11  C   UNL     1       1.511   7.474  20.218  0.00  0.00    +0.000 C 
ENDROOT
BRANCH   1  15
ATOM     12  O   UNL     1       4.404   5.674  19.010  0.00  0.00    +0.000 OA
ATOM     13  C   UNL     1       3.491   5.623  18.196  0.00  0.00    +0.000 C 
ATOM     14  N   UNL     1       3.367   4.630  17.255  0.00  0.00    +0.000 N 
ATOM     15  N   UNL     1       2.465   6.538  18.143  0.00  0.00    +0.000 N 
ATOM     16  H   UNL     1       2.451   4.491  16.857  0.00  0.00    +0.000 HD
ATOM     17  H   UNL     1       1.985   6.619  17.258  0.00  0.00    +0.000 HD
BRANCH  14  18
ATOM     18  C   UNL     1       4.275   3.490  17.324  0.00  0.00    +0.000 C 
BRANCH  18  19
ATOM     19  C   UNL     1       3.605   2.206  17.816  0.00  0.00    +0.000 C 
BRANCH  19  20
ATOM     20  C   UNL     1       2.780   2.440  19.061  0.00  0.00    +0.000 A 
ATOM     21  C   UNL     1       1.391   2.618  18.981  0.00  0.00    +0.000 A 
ATOM     22  C   UNL     1       0.639   2.861  20.134  0.00  0.00    +0.000 A 
ATOM     23  C   UNL     1       1.266   2.932  21.377  0.00  0.00    +0.000 A 
ATOM     24  C   UNL     1       2.646   2.759  21.468  0.00  0.00    +0.000 A 
ATOM     25  C   UNL     1       3.399   2.517  20.317  0.00  0.00    +0.000 A 
ENDBRANCH  19  20
ENDBRANCH  18  19
ENDBRANCH  14  18
ENDBRANCH   1  15
BRANCH   6  26
ATOM     26  C   UNL     1      -1.314  12.791  21.052  0.00  0.00    +0.000 C 
BRANCH  26  27
ATOM     27  C   UNL     1      -2.777  12.574  21.301  0.00  0.00    +0.000 C 
ATOM     28  C   UNL     1      -3.804  13.681  21.226  0.00  0.00    +0.000 C 
ATOM     29  C   UNL     1      -3.732  12.653  20.133  0.00  0.00    +0.000 C 
ENDBRANCH  26  27
ENDBRANCH   6  26
TORSDOF 6
ENDMDL
MODEL 3
REMARK VINA RESULT:      -8.4      5.923      9.708
REMARK  Name = 
REMARK  6 active torsions:
REMARK  status: ('A' for Active; 'I' for Inactive)
REMARK    1  A    between atoms: N_3  and  C_4
REMARK    2  A    between atoms: C_4  and  C_5
REMARK    3  A    between atoms: C_5  and  C_6
REMARK    4  A    between atoms: N_12  and  C_13
REMARK    5  A    between atoms: N_18  and  C_19
REMARK    6  A    between atoms: C_19  and  C_20
REMARK                            x       y       z     vdW  Elec       q    Type
REMARK                         _______ _______ _______ _____ _____    ______ ____
ROOT
ATOM      1  C   UNL     1       2.450   7.805  19.110  0.00  0.00    +0.000 C 
ATOM      2  C   UNL     1       2.019   9.116  18.422  0.00  0.00    +0.000 C 
ATOM      3  C   UNL     1       0.515   9.366  18.450  0.00  0.00    +0.000 C 
ATOM      4  C   UNL     1       0.044   9.977  19.744  0.00  0.00    +0.000 A 
ATOM      5  N   UNL     1      -0.812  10.960  19.774  0.00  0.00    +0.000 NA
ATOM      6  N   UNL     1      -0.971  11.215  21.113  0.00  0.00    +0.000 N 
ATOM      7  C   UNL     1      -0.162  10.370  21.866  0.00  0.00    +0.000 A 
ATOM      8  O   UNL     1       0.018  10.386  23.079  0.00  0.00    +0.000 OA
ATOM      9  N   UNL     1       0.439   9.533  20.952  0.00  0.00    +0.000 N 
ATOM     10  C   UNL     1       1.453   8.564  21.318  0.00  0.00    +0.000 C 
ATOM     11  C   UNL     1       1.599   7.415  20.327  0.00  0.00    +0.000 C 
ENDROOT
BRANCH   1  15
ATOM     12  O   UNL     1       4.343   5.742  19.155  0.00  0.00    +0.000 OA
ATOM     13  C   UNL     1       3.517   5.759  18.253  0.00  0.00    +0.000 C 
ATOM     14  N   UNL     1       3.472   4.824  17.246  0.00  0.00    +0.000 N 
ATOM     15  N   UNL     1       2.517   6.699  18.151  0.00  0.00    +0.000 N 
ATOM     16  H   UNL     1       2.599   4.729  16.752  0.00  0.00    +0.000 HD
ATOM     17  H   UNL     1       2.132   6.841  17.228  0.00  0.00    +0.000 HD
BRANCH  14  18
ATOM     18  C   UNL     1       4.349   3.661  17.339  0.00  0.00    +0.000 C 
BRANCH  18  19
ATOM     19  C   UNL     1       3.626   2.385  17.772  0.00  0.00    +0.000 C 
BRANCH  19  20
ATOM     20  C   UNL     1       2.812   2.595  19.029  0.00  0.00    +0.000 A 
ATOM     21  C   UNL     1       3.421   2.581  20.292  0.00  0.00    +0.000 A 
ATOM     22  C   UNL     1       2.658   2.749  21.450  0.00  0.00    +0.000 A 
ATOM     23  C   UNL     1       1.279   2.930  21.360  0.00  0.00    +0.000 A 
ATOM     24  C   UNL     1       0.662   2.945  20.110  0.00  0.00    +0.000 A 
ATOM     25  C   UNL     1       1.423   2.775  18.952  0.00  0.00    +0.000 A 
ENDBRANCH  19  20
ENDBRANCH  18  19
ENDBRANCH  14  18
ENDBRANCH   1  15
BRANCH   6  26
ATOM     26  C   UNL     1      -1.738  12.328  21.622  0.00  0.00    +0.000 C 
BRANCH  26  27
ATOM     27  C   UNL     1      -2.573  12.965  20.551  0.00  0.00    +0.000 C 
ATOM     28  C   UNL     1      -4.084  12.927  20.548  0.00  0.00    +0.000 C 
ATOM     29  C   UNL     1      -3.369  14.203  20.892  0.00  0.00    +0.000 C 
ENDBRANCH  26  27
ENDBRANCH   6  26
TORSDOF 6
ENDMDL
MODEL 4
REMARK VINA RESULT:      -8.3      5.894      9.769
REMARK  Name = 
REMARK  6 active torsions:
REMARK  status: ('A' for Active; 'I' for Inactive)
REMARK    1  A    between atoms: N_3  and  C_4
REMARK    2  A    between atoms: C_4  and  C_5
REMARK    3  A    between atoms: C_5  and  C_6
REMARK    4  A    between atoms: N_12  and  C_13
REMARK    5  A    between atoms: N_18  and  C_19
REMARK    6  A    between atoms: C_19  and  C_20
REMARK                            x       y       z     vdW  Elec       q    Type
REMARK                         _______ _______ _______ _____ _____    ______ ____
ROOT
ATOM      1  C   UNL     1       2.497   7.713  18.987  0.00  0.00    +0.000 C 
ATOM      2  C   UNL     1       2.145   9.005  18.223  0.00  0.00    +0.000 C 
ATOM      3  C   UNL     1       0.654   9.326  18.200  0.00  0.00    +0.000 C 
ATOM      4  C   UNL     1       0.185  10.024  19.450  0.00  0.00    +0.000 A 
ATOM      5  N   UNL     1      -0.624  11.046  19.409  0.00  0.00    +0.000 NA
ATOM      6  N   UNL     1      -0.802  11.377  20.729  0.00  0.00    +0.000 N 
ATOM      7  C   UNL     1      -0.051  10.535  21.544  0.00  0.00    +0.000 A 
ATOM      8  O   UNL     1       0.102  10.605  22.758  0.00  0.00    +0.000 OA
ATOM      9  N   UNL     1       0.531   9.625  20.688  0.00  0.00    +0.000 N 
ATOM     10  C   UNL     1       1.488   8.630  21.127  0.00  0.00    +0.000 C 
ATOM     11  C   UNL     1       1.601   7.426  20.200  0.00  0.00    +0.000 C 
ENDROOT
BRANCH   1  15
ATOM     12  O   UNL     1       4.406   5.666  19.063  0.00  0.00    +0.000 OA
ATOM     13  C   UNL     1       3.543   5.629  18.196  0.00  0.00    +0.000 C 
ATOM     14  N   UNL     1       3.464   4.641  17.245  0.00  0.00    +0.000 N 
ATOM     15  N   UNL     1       2.533   6.556  18.086  0.00  0.00    +0.000 N 
ATOM     16  H   UNL     1       2.572   4.515  16.793  0.00  0.00    +0.000 HD
ATOM     17  H   UNL     1       2.108   6.647  17.174  0.00  0.00    +0.000 HD
BRANCH  14  18
ATOM     18  C   UNL     1       4.353   3.489  17.363  0.00  0.00    +0.000 C 
BRANCH  18  19
ATOM     19  C   UNL     1       3.644   2.219  17.834  0.00  0.00    +0.000 C 
BRANCH  19  20
ATOM     20  C   UNL     1       2.801   2.464  19.064  0.00  0.00    +0.000 A 
ATOM     21  C   UNL     1       1.417   2.663  18.960  0.00  0.00    +0.000 A 
ATOM     22  C   UNL     1       0.648   2.916  20.099  0.00  0.00    +0.000 A 
ATOM     23  C   UNL     1       1.253   2.976  21.353  0.00  0.00    +0.000 A 
ATOM     24  C   UNL     1       2.628   2.781  21.469  0.00  0.00    +0.000 A 
ATOM     25  C   UNL     1       3.398   2.529  20.331  0.00  0.00    +0.000 A 
ENDBRANCH  19  20
ENDBRANCH  18  19
ENDBRANCH  14  18
ENDBRANCH   1  15
BRANCH   6  26
ATOM     26  C   UNL     1      -1.525  12.550  21.162  0.00  0.00    +0.000 C 
BRANCH  26  27
ATOM     27  C   UNL     1      -0.622  13.738  21.311  0.00  0.00    +0.000 C 
ATOM     28  C   UNL     1      -1.132  15.143  21.536  0.00  0.00    +0.000 C 
ATOM     29  C   UNL     1      -0.495  14.388  22.668  0.00  0.00    +0.000 C 
ENDBRANCH  26  27
ENDBRANCH   6  26
TORSDOF 6
ENDMDL
MODEL 5
REMARK VINA RESULT:      -8.2      5.738      9.679
REMARK  Name = 
REMARK  6 active torsions:
REMARK  status: ('A' for Active; 'I' for Inactive)
REMARK    1  A    between atoms: N_3  and  C_4
REMARK    2  A    between atoms: C_4  and  C_5
REMARK    3  A    between atoms: C_5  and  C_6
REMARK    4  A    between atoms: N_12  and  C_13
REMARK    5  A    between atoms: N_18  and  C_19
REMARK    6  A    between atoms: C_19  and  C_20
REMARK                            x       y       z     vdW  Elec       q    Type
REMARK                         _______ _______ _______ _____ _____    ______ ____
ROOT
ATOM      1  C   UNL     1       2.581   7.752  18.811  0.00  0.00    +0.000 C 
ATOM      2  C   UNL     1       2.222   9.030  18.027  0.00  0.00    +0.000 C 
ATOM      3  C   UNL     1       0.728   9.334  17.985  0.00  0.00    +0.000 C 
ATOM      4  C   UNL     1       0.237  10.042  19.220  0.00  0.00    +0.000 A 
ATOM      5  N   UNL     1      -0.583  11.054  19.157  0.00  0.00    +0.000 NA
ATOM      6  N   UNL     1      -0.778  11.400  20.471  0.00  0.00    +0.000 N 
ATOM      7  C   UNL     1      -0.026  10.577  21.305  0.00  0.00    +0.000 A 
ATOM      8  O   UNL     1       0.113  10.665  22.519  0.00  0.00    +0.000 OA
ATOM      9  N   UNL     1       0.574   9.663  20.467  0.00  0.00    +0.000 N 
ATOM     10  C   UNL     1       1.539   8.685  20.929  0.00  0.00    +0.000 C 
ATOM     11  C   UNL     1       1.675   7.470  20.018  0.00  0.00    +0.000 C 
ENDROOT
BRANCH   1  15
ATOM     12  O   UNL     1       4.407   5.642  19.041  0.00  0.00    +0.000 OA
ATOM     13  C   UNL     1       3.607   5.625  18.116  0.00  0.00    +0.000 C 
ATOM     14  N   UNL     1       3.560   4.629  17.170  0.00  0.00    +0.000 N 
ATOM     15  N   UNL     1       2.639   6.585  17.926  0.00  0.00    +0.000 N 
ATOM     16  H   UNL     1       2.698   4.528  16.657  0.00  0.00    +0.000 HD
ATOM     17  H   UNL     1       2.283   6.679  16.986  0.00  0.00    +0.000 HD
BRANCH  14  18
ATOM     18  C   UNL     1       4.398   3.449  17.361  0.00  0.00    +0.000 C 
BRANCH  18  19
ATOM     19  C   UNL     1       3.618   2.216  17.820  0.00  0.00    +0.000 C 
BRANCH  19  20
ATOM     20  C   UNL     1       2.804   2.492  19.064  0.00  0.00    +0.000 A 
ATOM     21  C   UNL     1       3.404   2.493  20.331  0.00  0.00    +0.000 A 
ATOM     22  C   UNL     1       2.639   2.722  21.478  0.00  0.00    +0.000 A 
ATOM     23  C   UNL     1       1.268   2.950  21.372  0.00  0.00    +0.000 A 
ATOM     24  C   UNL     1       0.661   2.949  20.118  0.00  0.00    +0.000 A 
ATOM     25  C   UNL     1       1.423   2.719  18.971  0.00  0.00    +0.000 A 
ENDBRANCH  19  20
ENDBRANCH  18  19
ENDBRANCH  14  18
ENDBRANCH   1  15
BRANCH   6  26
ATOM     26  C   UNL     1      -1.519  12.570  20.881  0.00  0.00    +0.000 C 
BRANCH  26  27
ATOM     27  C   UNL     1      -0.874  13.835  20.399  0.00  0.00    +0.000 C 
ATOM     28  C   UNL     1      -0.535  14.991  21.312  0.00  0.00    +0.000 C 
ATOM     29  C   UNL     1       0.560  14.110  20.783  0.00  0.00    +0.000 C 
ENDBRANCH  26  27
ENDBRANCH   6  26
TORSDOF 6
ENDMDL
MODEL 6
REMARK VINA RESULT:      -8.2      6.225      8.417
REMARK  Name = 
REMARK  6 active torsions:
REMARK  status: ('A' for Active; 'I' for Inactive)
REMARK    1  A    between atoms: N_3  and  C_4
REMARK    2  A    between atoms: C_4  and  C_5
REMARK    3  A    between atoms: C_5  and  C_6
REMARK    4  A    between atoms: N_12  and  C_13
REMARK    5  A    between atoms: N_18  and  C_19
REMARK    6  A    between atoms: C_19  and  C_20
REMARK                            x       y       z     vdW  Elec       q    Type
REMARK                         _______ _______ _______ _____ _____    ______ ____
ROOT
ATOM      1  C   UNL     1       2.028   8.148  19.492  0.00  0.00    +0.000 C 
ATOM      2  C   UNL     1       1.665   9.477  18.799  0.00  0.00    +0.000 C 
ATOM      3  C   UNL     1       0.171   9.786  18.790  0.00  0.00    +0.000 C 
ATOM      4  C   UNL     1      -0.308  10.409  20.075  0.00  0.00    +0.000 A 
ATOM      5  N   UNL     1      -1.126  11.424  20.088  0.00  0.00    +0.000 NA
ATOM      6  N   UNL     1      -1.310  11.680  21.424  0.00  0.00    +0.000 N 
ATOM      7  C   UNL     1      -0.553  10.801  22.193  0.00  0.00    +0.000 A 
ATOM      8  O   UNL     1      -0.403  10.806  23.410  0.00  0.00    +0.000 OA
ATOM      9  N   UNL     1       0.039   9.946  21.290  0.00  0.00    +0.000 N 
ATOM     10  C   UNL     1       1.006   8.936  21.677  0.00  0.00    +0.000 C 
ATOM     11  C   UNL     1       1.132   7.787  20.684  0.00  0.00    +0.000 C 
ENDROOT
BRANCH   1  15
ATOM     12  O   UNL     1       3.894   6.061  19.523  0.00  0.00    +0.000 OA
ATOM     13  C   UNL     1       3.065   6.091  18.624  0.00  0.00    +0.000 C 
ATOM     14  N   UNL     1       3.004   5.159  17.616  0.00  0.00    +0.000 N 
ATOM     15  N   UNL     1       2.077   7.044  18.529  0.00  0.00    +0.000 N 
ATOM     16  H   UNL     1       2.127   5.077  17.124  0.00  0.00    +0.000 HD
ATOM     17  H   UNL     1       1.690   7.194  17.609  0.00  0.00    +0.000 HD
BRANCH  14  18
ATOM     18  C   UNL     1       3.866   3.985  17.701  0.00  0.00    +0.000 C 
BRANCH  18  19
ATOM     19  C   UNL     1       5.107   4.074  16.811  0.00  0.00    +0.000 C 
BRANCH  19  20
ATOM     20  C   UNL     1       6.120   5.059  17.350  0.00  0.00    +0.000 A 
ATOM     21  C   UNL     1       6.890   4.754  18.480  0.00  0.00    +0.000 A 
ATOM     22  C   UNL     1       7.805   5.680  18.987  0.00  0.00    +0.000 A 
ATOM     23  C   UNL     1       7.958   6.922  18.373  0.00  0.00    +0.000 A 
ATOM     24  C   UNL     1       7.196   7.238  17.249  0.00  0.00    +0.000 A 
ATOM     25  C   UNL     1       6.280   6.313  16.742  0.00  0.00    +0.000 A 
ENDBRANCH  19  20
ENDBRANCH  18  19
ENDBRANCH  14  18
ENDBRANCH   1  15
BRANCH   6  26
ATOM     26  C   UNL     1      -2.045  12.820  21.919  0.00  0.00    +0.000 C 
BRANCH  26  27
ATOM     27  C   UNL     1      -3.373  12.421  22.491  0.00  0.00    +0.000 C 
ATOM     28  C   UNL     1      -3.689  12.476  23.968  0.00  0.00    +0.000 C 
ATOM     29  C   UNL     1      -4.280  13.497  23.038  0.00  0.00    +0.000 C 
ENDBRANCH  26  27
ENDBRANCH   6  26
TORSDOF 6
ENDMDL
MODEL 7
REMARK VINA RESULT:      -8.1      6.503      8.647
REMARK  Name = 
REMARK  6 active torsions:
REMARK  status: ('A' for Active; 'I' for Inactive)
REMARK    1  A    between atoms: N_3  and  C_4
REMARK    2  A    between atoms: C_4  and  C_5
REMARK    3  A    between atoms: C_5  and  C_6
REMARK    4  A    between atoms: N_12  and  C_13
REMARK    5  A    between atoms: N_18  and  C_19
REMARK    6  A    between atoms: C_19  and  C_20
REMARK                            x       y       z     vdW  Elec       q    Type
REMARK                         _______ _______ _______ _____ _____    ______ ____
ROOT
ATOM      1  C   UNL     1       1.146   7.979  20.151  0.00  0.00    +0.000 C 
ATOM      2  C   UNL     1       0.616   7.963  21.600  0.00  0.00    +0.000 C 
ATOM      3  C   UNL     1       0.968   9.210  22.404  0.00  0.00    +0.000 C 
ATOM      4  C   UNL     1       0.026  10.357  22.150  0.00  0.00    +0.000 A 
ATOM      5  N   UNL     1      -0.441  11.096  23.118  0.00  0.00    +0.000 NA
ATOM      6  N   UNL     1      -1.242  12.008  22.478  0.00  0.00    +0.000 N 
ATOM      7  C   UNL     1      -1.251  11.765  21.107  0.00  0.00    +0.000 A 
ATOM      8  O   UNL     1      -1.929  12.322  20.251  0.00  0.00    +0.000 OA
ATOM      9  N   UNL     1      -0.368  10.725  20.917  0.00  0.00    +0.000 N 
ATOM     10  C   UNL     1      -0.165  10.088  19.630  0.00  0.00    +0.000 C 
ATOM     11  C   UNL     1       1.171   9.368  19.499  0.00  0.00    +0.000 C 
ENDROOT
BRANCH   1  15
ATOM     12  O   UNL     1       1.594   5.270  19.601  0.00  0.00    +0.000 OA
ATOM     13  C   UNL     1       2.559   5.991  19.819  0.00  0.00    +0.000 C 
ATOM     14  N   UNL     1       3.858   5.541  19.820  0.00  0.00    +0.000 N 
ATOM     15  N   UNL     1       2.464   7.342  20.061  0.00  0.00    +0.000 N 
ATOM     16  H   UNL     1       4.579   6.233  19.690  0.00  0.00    +0.000 HD
ATOM     17  H   UNL     1       3.233   7.761  20.563  0.00  0.00    +0.000 HD
BRANCH  14  18
ATOM     18  C   UNL     1       4.120   4.173  19.386  0.00  0.00    +0.000 C 
BRANCH  18  19
ATOM     19  C   UNL     1       5.011   4.087  18.146  0.00  0.00    +0.000 C 
BRANCH  19  20
ATOM     20  C   UNL     1       5.995   5.233  18.076  0.00  0.00    +0.000 A 
ATOM     21  C   UNL     1       7.113   5.275  18.920  0.00  0.00    +0.000 A 
ATOM     22  C   UNL     1       8.003   6.351  18.867  0.00  0.00    +0.000 A 
ATOM     23  C   UNL     1       7.783   7.398  17.973  0.00  0.00    +0.000 A 
ATOM     24  C   UNL     1       6.674   7.369  17.131  0.00  0.00    +0.000 A 
ATOM     25  C   UNL     1       5.783   6.294  17.183  0.00  0.00    +0.000 A 
ENDBRANCH  19  20
ENDBRANCH  18  19
ENDBRANCH  14  18
ENDBRANCH   1  15
BRANCH   6  26
ATOM     26  C   UNL     1      -2.081  12.954  23.176  0.00  0.00    +0.000 C 
BRANCH  26  27
ATOM     27  C   UNL     1      -3.435  12.382  23.474  0.00  0.00    +0.000 C 
ATOM     28  C   UNL     1      -4.511  13.143  24.213  0.00  0.00    +0.000 C 
ATOM     29  C   UNL     1      -4.632  12.927  22.732  0.00  0.00    +0.000 C 
ENDBRANCH  26  27
ENDBRANCH   6  26
TORSDOF 6
ENDMDL
MODEL 8
REMARK VINA RESULT:      -8.1      5.198      8.084
REMARK  Name = 
REMARK  6 active torsions:
REMARK  status: ('A' for Active; 'I' for Inactive)
REMARK    1  A    between atoms: N_3  and  C_4
REMARK    2  A    between atoms: C_4  and  C_5
REMARK    3  A    between atoms: C_5  and  C_6
REMARK    4  A    between atoms: N_12  and  C_13
REMARK    5  A    between atoms: N_18  and  C_19
REMARK    6  A    between atoms: C_19  and  C_20
REMARK                            x       y       z     vdW  Elec       q    Type
REMARK                         _______ _______ _______ _____ _____    ______ ____
ROOT
ATOM      1  C   UNL     1       3.731   4.383  19.739  0.00  0.00    +0.000 C 
ATOM      2  C   UNL     1       3.153   3.803  18.433  0.00  0.00    +0.000 C 
ATOM      3  C   UNL     1       3.274   4.735  17.231  0.00  0.00    +0.000 C 
ATOM      4  C   UNL     1       4.628   4.672  16.574  0.00  0.00    +0.000 A 
ATOM      5  N   UNL     1       4.766   4.631  15.278  0.00  0.00    +0.000 NA
ATOM      6  N   UNL     1       6.125   4.583  15.095  0.00  0.00    +0.000 N 
ATOM      7  C   UNL     1       6.779   4.570  16.323  0.00  0.00    +0.000 A 
ATOM      8  O   UNL     1       7.979   4.435  16.533  0.00  0.00    +0.000 OA
ATOM      9  N   UNL     1       5.782   4.693  17.266  0.00  0.00    +0.000 N 
ATOM     10  C   UNL     1       6.031   4.612  18.692  0.00  0.00    +0.000 C 
ATOM     11  C   UNL     1       4.962   5.280  19.547  0.00  0.00    +0.000 C 
ENDROOT
BRANCH   1  15
ATOM     12  O   UNL     1       2.985   7.059  19.388  0.00  0.00    +0.000 OA
ATOM     13  C   UNL     1       2.443   6.412  20.273  0.00  0.00    +0.000 C 
ATOM     14  N   UNL     1       1.491   6.930  21.119  0.00  0.00    +0.000 N 
ATOM     15  N   UNL     1       2.699   5.081  20.512  0.00  0.00    +0.000 N 
ATOM     16  H   UNL     1       0.887   6.270  21.583  0.00  0.00    +0.000 HD
ATOM     17  H   UNL     1       2.489   4.747  21.441  0.00  0.00    +0.000 HD
BRANCH  14  18
ATOM     18  C   UNL     1       0.981   8.272  20.853  0.00  0.00    +0.000 C 
BRANCH  18  19
ATOM     19  C   UNL     1       1.041   9.198  22.068  0.00  0.00    +0.000 C 
BRANCH  19  20
ATOM     20  C   UNL     1      -0.017  10.276  22.011  0.00  0.00    +0.000 A 
ATOM     21  C   UNL     1      -0.835  10.541  23.118  0.00  0.00    +0.000 A 
ATOM     22  C   UNL     1      -1.829  11.521  23.048  0.00  0.00    +0.000 A 
ATOM     23  C   UNL     1      -2.017  12.244  21.871  0.00  0.00    +0.000 A 
ATOM     24  C   UNL     1      -1.211  11.988  20.764  0.00  0.00    +0.000 A 
ATOM     25  C   UNL     1      -0.219  11.008  20.832  0.00  0.00    +0.000 A 
ENDBRANCH  19  20
ENDBRANCH  18  19
ENDBRANCH  14  18
ENDBRANCH   1  15
BRANCH   6  26
ATOM     26  C   UNL     1       6.744   4.390  13.804  0.00  0.00    +0.000 C 
BRANCH  26  27
ATOM     27  C   UNL     1       6.139   3.235  13.063  0.00  0.00    +0.000 C 
ATOM     28  C   UNL     1       5.199   3.405  11.891  0.00  0.00    +0.000 C 
ATOM     29  C   UNL     1       6.611   2.947  11.658  0.00  0.00    +0.000 C 
ENDBRANCH  26  27
ENDBRANCH   6  26
TORSDOF 6
ENDMDL
MODEL 9
REMARK VINA RESULT:      -8.0      5.187      7.886
REMARK  Name = 
REMARK  6 active torsions:
REMARK  status: ('A' for Active; 'I' for Inactive)
REMARK    1  A    between atoms: N_3  and  C_4
REMARK    2  A    between atoms: C_4  and  C_5
REMARK    3  A    between atoms: C_5  and  C_6
REMARK    4  A    between atoms: N_12  and  C_13
REMARK    5  A    between atoms: N_18  and  C_19
REMARK    6  A    between atoms: C_19  and  C_20
REMARK                            x       y       z     vdW  Elec       q    Type
REMARK                         _______ _______ _______ _____ _____    ______ ____
ROOT
ATOM      1  C   UNL     1       3.936   4.486  19.803  0.00  0.00    +0.000 C 
ATOM      2  C   UNL     1       3.310   3.742  18.607  0.00  0.00    +0.000 C 
ATOM      3  C   UNL     1       3.284   4.553  17.315  0.00  0.00    +0.000 C 
ATOM      4  C   UNL     1       4.590   4.507  16.566  0.00  0.00    +0.000 A 
ATOM      5  N   UNL     1       4.640   4.343  15.273  0.00  0.00    +0.000 NA
ATOM      6  N   UNL     1       5.984   4.361  14.993  0.00  0.00    +0.000 N 
ATOM      7  C   UNL     1       6.720   4.513  16.164  0.00  0.00    +0.000 A 
ATOM      8  O   UNL     1       7.938   4.474  16.295  0.00  0.00    +0.000 OA
ATOM      9  N   UNL     1       5.785   4.669  17.163  0.00  0.00    +0.000 N 
ATOM     10  C   UNL     1       6.137   4.749  18.567  0.00  0.00    +0.000 C 
ATOM     11  C   UNL     1       5.086   5.433  19.432  0.00  0.00    +0.000 C 
ENDROOT
BRANCH   1  15
ATOM     12  O   UNL     1       2.980   7.059  19.248  0.00  0.00    +0.000 OA
ATOM     13  C   UNL     1       2.549   6.474  20.232  0.00  0.00    +0.000 C 
ATOM     14  N   UNL     1       1.624   7.016  21.093  0.00  0.00    +0.000 N 
ATOM     15  N   UNL     1       2.914   5.194  20.581  0.00  0.00    +0.000 N 
ATOM     16  H   UNL     1       1.103   6.371  21.666  0.00  0.00    +0.000 HD
ATOM     17  H   UNL     1       2.795   4.945  21.552  0.00  0.00    +0.000 HD
BRANCH  14  18
ATOM     18  C   UNL     1       1.004   8.288  20.736  0.00  0.00    +0.000 C 
BRANCH  18  19
ATOM     19  C   UNL     1      -0.200   8.645  21.610  0.00  0.00    +0.000 C 
BRANCH  19  20
ATOM     20  C   UNL     1      -0.374  10.140  21.750  0.00  0.00    +0.000 A 
ATOM     21  C   UNL     1       0.120  11.017  20.775  0.00  0.00    +0.000 A 
ATOM     22  C   UNL     1      -0.021  12.399  20.925  0.00  0.00    +0.000 A 
ATOM     23  C   UNL     1      -0.656  12.919  22.052  0.00  0.00    +0.000 A 
ATOM     24  C   UNL     1      -1.150  12.057  23.029  0.00  0.00    +0.000 A 
ATOM     25  C   UNL     1      -1.008  10.676  22.881  0.00  0.00    +0.000 A 
ENDBRANCH  19  20
ENDBRANCH  18  19
ENDBRANCH  14  18
ENDBRANCH   1  15
BRANCH   6  26
ATOM     26  C   UNL     1       6.524   4.076  13.684  0.00  0.00    +0.000 C 
BRANCH  26  27
ATOM     27  C   UNL     1       5.683   3.083  12.939  0.00  0.00    +0.000 C 
ATOM     28  C   UNL     1       4.945   3.415  11.662  0.00  0.00    +0.000 C 
ATOM     29  C   UNL     1       6.180   2.562  11.611  0.00  0.00    +0.000 C 
ENDBRANCH  26  27
ENDBRANCH   6  26
TORSDOF 6
ENDMDL
