MODEL 1
REMARK VINA RESULT:      -8.7      0.000      0.000
REMARK  Name = 
REMARK  5 active torsions:
REMARK  status: ('A' for Active; 'I' for Inactive)
REMARK    1  A    between atoms: C_2  and  O_3
REMARK    2  A    between atoms: C_2  and  C_4
REMARK    3  A    between atoms: N_11  and  C_12
REMARK    4  A    between atoms: C_18  and  N_19
REMARK    5  A    between atoms: N_19  and  C_20
REMARK                            x       y       z     vdW  Elec       q    Type
REMARK                         _______ _______ _______ _____ _____    ______ ____
ROOT
ATOM      1  C   UNL     1       3.940   3.536  19.481  0.00  0.00    +0.000 A 
ATOM      2  C   UNL     1       2.907   4.049  20.254  0.00  0.00    +0.000 A 
ATOM      3  N   UNL     1       2.415   5.296  20.164  0.00  0.00    +0.000 NA
ATOM      4  C   UNL     1       2.976   6.050  19.196  0.00  0.00    +0.000 A 
ATOM      5  C   UNL     1       3.981   5.637  18.327  0.00  0.00    +0.000 A 
ATOM      6  C   UNL     1       4.126   6.737  17.451  0.00  0.00    +0.000 A 
ATOM      7  N   UNL     1       3.361   7.779  17.767  0.00  0.00    +0.000 NA
ATOM      8  N   UNL     1       2.659   7.369  18.863  0.00  0.00    +0.000 N 
ATOM      9  C   UNL     1       4.538   4.336  18.478  0.00  0.00    +0.000 A 
ENDROOT
BRANCH   8  10
ATOM     10  C   UNL     1       1.725   8.250  19.485  0.00  0.00    +0.000 A 
ATOM     11  C   UNL     1       1.109   9.256  18.725  0.00  0.00    +0.000 A 
ATOM     12  C   UNL     1       0.143  10.085  19.304  0.00  0.00    +0.000 A 
ATOM     13  C   UNL     1      -0.205   9.924  20.644  0.00  0.00    +0.000 A 
ATOM     14  C   UNL     1       0.425   8.953  21.413  0.00  0.00    +0.000 A 
ATOM     15  C   UNL     1       1.390   8.122  20.840  0.00  0.00    +0.000 A 
ENDBRANCH   8  10
BRANCH   1  17
ATOM     16  O   UNL     1       4.859   1.831  20.845  0.00  0.00    +0.000 OA
ATOM     17  C   UNL     1       4.338   2.146  19.793  0.00  0.00    +0.000 C 
BRANCH  17  18
ATOM     18  O   UNL     1       4.113   1.269  18.792  0.00  0.00    +0.000 OA
ATOM     19  H   UNL     1       4.865   1.172  18.169  0.00  0.00    +0.000 HD
ENDBRANCH  17  18
ENDBRANCH   1  17
BRANCH   9  20
ATOM     20  N   UNL     1       5.617   3.814  17.700  0.00  0.00    +0.000 N 
ATOM     21  H   UNL     1       5.715   2.805  17.846  0.00  0.00    +0.000 HD
BRANCH  20  22
ATOM     22  C   UNL     1       5.985   4.201  16.391  0.00  0.00    +0.000 A 
ATOM     23  C   UNL     1       7.178   4.909  16.178  0.00  0.00    +0.000 A 
ATOM     24  C   UNL     1       7.616   5.200  14.881  0.00  0.00    +0.000 A 
ATOM     25  C   UNL     1       6.861   4.795  13.783  0.00  0.00    +0.000 A 
ATOM     26  C   UNL     1       5.653   4.146  13.993  0.00  0.00    +0.000 A 
ATOM     27  F   UNL     1       4.926   3.745  12.942  0.00  0.00    +0.000 F 
ATOM     28  C   UNL     1       5.198   3.875  15.280  0.00  0.00    +0.000 A 
ENDBRANCH  20  22
ENDBRANCH   9  20
TORSDOF 5
ENDMDL
MODEL 2
REMARK VINA RESULT:      -8.6      2.351      6.889
REMARK  Name = 
REMARK  5 active torsions:
REMARK  status: ('A' for Active; 'I' for Inactive)
REMARK    1  A    between atoms: C_2  and  O_3
REMARK    2  A    between atoms: C_2  and  C_4
REMARK    3  A    between atoms: N_11  and  C_12
REMARK    4  A    between atoms: C_18  and  N_19
REMARK    5  A    between atoms: N_19  and  C_20
REMARK                            x       y       z     vdW  Elec       q    Type
REMARK                         _______ _______ _______ _____ _____    ______ ____
ROOT
ATOM      1  C   UNL     1       2.900   4.077  18.622  0.00  0.00    +0.000 A 
ATOM      2  C   UNL     1       3.230   3.246  17.559  0.00  0.00    +0.000 A 
ATOM      3  N   UNL     1       4.074   3.560  16.562  0.00  0.00    +0.000 NA
ATOM      4  C   UNL     1       4.654   4.772  16.681  0.00  0.00    +0.000 A 
ATOM      5  C   UNL     1       4.444   5.674  17.720  0.00  0.00    +0.000 A 
ATOM      6  C   UNL     1       5.356   6.715  17.436  0.00  0.00    +0.000 A 
ATOM      7  N   UNL     1       6.024   6.549  16.297  0.00  0.00    +0.000 NA
ATOM      8  N   UNL     1       5.578   5.355  15.810  0.00  0.00    +0.000 N 
ATOM      9  C   UNL     1       3.496   5.356  18.733  0.00  0.00    +0.000 A 
ENDROOT
BRANCH   8  10
ATOM     10  C   UNL     1       6.087   4.851  14.576  0.00  0.00    +0.000 A 
ATOM     11  C   UNL     1       5.331   3.924  13.841  0.00  0.00    +0.000 A 
ATOM     12  C   UNL     1       5.785   3.470  12.599  0.00  0.00    +0.000 A 
ATOM     13  C   UNL     1       7.000   3.927  12.089  0.00  0.00    +0.000 A 
ATOM     14  C   UNL     1       7.772   4.818  12.826  0.00  0.00    +0.000 A 
ATOM     15  C   UNL     1       7.322   5.275  14.067  0.00  0.00    +0.000 A 
ENDBRANCH   8  10
BRANCH   1  17
ATOM     16  O   UNL     1       1.937   3.774  20.766  0.00  0.00    +0.000 OA
ATOM     17  C   UNL     1       1.911   3.527  19.575  0.00  0.00    +0.000 C 
BRANCH  17  18
ATOM     18  O   UNL     1       1.009   2.694  19.016  0.00  0.00    +0.000 OA
ATOM     19  H   UNL     1       1.305   2.293  18.171  0.00  0.00    +0.000 HD
ENDBRANCH  17  18
ENDBRANCH   1  17
BRANCH   9  20
ATOM     20  N   UNL     1       3.136   6.218  19.814  0.00  0.00    +0.000 N 
ATOM     21  H   UNL     1       3.939   6.385  20.428  0.00  0.00    +0.000 HD
BRANCH  20  22
ATOM     22  C   UNL     1       2.268   7.333  19.759  0.00  0.00    +0.000 A 
ATOM     23  C   UNL     1       1.532   7.705  20.894  0.00  0.00    +0.000 A 
ATOM     24  C   UNL     1       0.756   8.870  20.895  0.00  0.00    +0.000 A 
ATOM     25  C   UNL     1       0.701   9.670  19.756  0.00  0.00    +0.000 A 
ATOM     26  C   UNL     1       1.380   9.273  18.614  0.00  0.00    +0.000 A 
ATOM     27  F   UNL     1       1.339  10.042  17.518  0.00  0.00    +0.000 F 
ATOM     28  C   UNL     1       2.134   8.103  18.597  0.00  0.00    +0.000 A 
ENDBRANCH  20  22
ENDBRANCH   9  20
TORSDOF 5
ENDMDL
MODEL 3
REMARK VINA RESULT:      -8.5      2.836      7.047
REMARK  Name = 
REMARK  5 active torsions:
REMARK  status: ('A' for Active; 'I' for Inactive)
REMARK    1  A    between atoms: C_2  and  O_3
REMARK    2  A    between atoms: C_2  and  C_4
REMARK    3  A    between atoms: N_11  and  C_12
REMARK    4  A    between atoms: C_18  and  N_19
REMARK    5  A    between atoms: N_19  and  C_20
REMARK                            x       y       z     vdW  Elec       q    Type
REMARK                         _______ _______ _______ _____ _____    ______ ____
ROOT
ATOM      1  C   UNL     1       2.811   4.210  18.597  0.00  0.00    +0.000 A 
ATOM      2  C   UNL     1       3.172   3.347  17.571  0.00  0.00    +0.000 A 
ATOM      3  N   UNL     1       4.027   3.639  16.575  0.00  0.00    +0.000 NA
ATOM      4  C   UNL     1       4.583   4.865  16.658  0.00  0.00    +0.000 A 
ATOM      5  C   UNL     1       4.341   5.800  17.659  0.00  0.00    +0.000 A 
ATOM      6  C   UNL     1       5.240   6.847  17.351  0.00  0.00    +0.000 A 
ATOM      7  N   UNL     1       5.928   6.651  16.230  0.00  0.00    +0.000 NA
ATOM      8  N   UNL     1       5.510   5.432  15.780  0.00  0.00    +0.000 N 
ATOM      9  C   UNL     1       3.384   5.503  18.670  0.00  0.00    +0.000 A 
ENDROOT
BRANCH   8  10
ATOM     10  C   UNL     1       6.047   4.892  14.573  0.00  0.00    +0.000 A 
ATOM     11  C   UNL     1       5.305   3.949  13.845  0.00  0.00    +0.000 A 
ATOM     12  C   UNL     1       5.787   3.460  12.628  0.00  0.00    +0.000 A 
ATOM     13  C   UNL     1       7.016   3.897  12.135  0.00  0.00    +0.000 A 
ATOM     14  C   UNL     1       7.774   4.805  12.867  0.00  0.00    +0.000 A 
ATOM     15  C   UNL     1       7.296   5.297  14.083  0.00  0.00    +0.000 A 
ENDBRANCH   8  10
BRANCH   1  17
ATOM     16  O   UNL     1       1.080   4.394  20.204  0.00  0.00    +0.000 OA
ATOM     17  C   UNL     1       1.818   3.677  19.555  0.00  0.00    +0.000 C 
BRANCH  17  18
ATOM     18  O   UNL     1       1.835   2.334  19.678  0.00  0.00    +0.000 OA
ATOM     19  H   UNL     1       1.240   1.868  19.052  0.00  0.00    +0.000 HD
ENDBRANCH  17  18
ENDBRANCH   1  17
BRANCH   9  20
ATOM     20  N   UNL     1       2.992   6.397  19.712  0.00  0.00    +0.000 N 
ATOM     21  H   UNL     1       3.739   6.496  20.406  0.00  0.00    +0.000 HD
BRANCH  20  22
ATOM     22  C   UNL     1       2.234   7.583  19.575  0.00  0.00    +0.000 A 
ATOM     23  C   UNL     1       2.159   8.227  18.331  0.00  0.00    +0.000 A 
ATOM     24  C   UNL     1       1.323   9.335  18.149  0.00  0.00    +0.000 A 
ATOM     25  C   UNL     1       0.562   9.817  19.211  0.00  0.00    +0.000 A 
ATOM     26  C   UNL     1       0.680   9.217  20.457  0.00  0.00    +0.000 A 
ATOM     27  F   UNL     1      -0.055   9.668  21.481  0.00  0.00    +0.000 F 
ATOM     28  C   UNL     1       1.527   8.131  20.653  0.00  0.00    +0.000 A 
ENDBRANCH  20  22
ENDBRANCH   9  20
TORSDOF 5
ENDMDL
MODEL 4
REMARK VINA RESULT:      -8.5      2.370      6.893
REMARK  Name = 
REMARK  5 active torsions:
REMARK  status: ('A' for Active; 'I' for Inactive)
REMARK    1  A    between atoms: C_2  and  O_3
REMARK    2  A    between atoms: C_2  and  C_4
REMARK    3  A    between atoms: N_11  and  C_12
REMARK    4  A    between atoms: C_18  and  N_19
REMARK    5  A    between atoms: N_19  and  C_20
REMARK                            x       y       z     vdW  Elec       q    Type
REMARK                         _______ _______ _______ _____ _____    ______ ____
ROOT
ATOM      1  C   UNL     1       2.905   4.059  18.644  0.00  0.00    +0.000 A 
ATOM      2  C   UNL     1       3.227   3.231  17.576  0.00  0.00    +0.000 A 
ATOM      3  N   UNL     1       4.042   3.558  16.558  0.00  0.00    +0.000 NA
ATOM      4  C   UNL     1       4.601   4.781  16.661  0.00  0.00    +0.000 A 
ATOM      5  C   UNL     1       4.399   5.681  17.703  0.00  0.00    +0.000 A 
ATOM      6  C   UNL     1       5.285   6.739  17.396  0.00  0.00    +0.000 A 
ATOM      7  N   UNL     1       5.929   6.582  16.243  0.00  0.00    +0.000 NA
ATOM      8  N   UNL     1       5.494   5.379  15.768  0.00  0.00    +0.000 N 
ATOM      9  C   UNL     1       3.480   5.349  18.738  0.00  0.00    +0.000 A 
ENDROOT
BRANCH   8  10
ATOM     10  C   UNL     1       5.984   4.881  14.524  0.00  0.00    +0.000 A 
ATOM     11  C   UNL     1       7.245   5.289  14.062  0.00  0.00    +0.000 A 
ATOM     12  C   UNL     1       7.767   4.761  12.877  0.00  0.00    +0.000 A 
ATOM     13  C   UNL     1       7.031   3.833  12.141  0.00  0.00    +0.000 A 
ATOM     14  C   UNL     1       5.767   3.449  12.573  0.00  0.00    +0.000 A 
ATOM     15  C   UNL     1       5.241   3.974  13.756  0.00  0.00    +0.000 A 
ENDBRANCH   8  10
BRANCH   1  17
ATOM     16  O   UNL     1       0.973   4.101  20.013  0.00  0.00    +0.000 OA
ATOM     17  C   UNL     1       1.950   3.493  19.621  0.00  0.00    +0.000 C 
BRANCH  17  18
ATOM     18  O   UNL     1       2.281   2.265  20.070  0.00  0.00    +0.000 OA
ATOM     19  H   UNL     1       2.506   1.626  19.359  0.00  0.00    +0.000 HD
ENDBRANCH  17  18
ENDBRANCH   1  17
BRANCH   9  20
ATOM     20  N   UNL     1       3.129   6.207  19.825  0.00  0.00    +0.000 N 
ATOM     21  H   UNL     1       3.936   6.370  20.434  0.00  0.00    +0.000 HD
BRANCH  20  22
ATOM     22  C   UNL     1       2.262   7.323  19.781  0.00  0.00    +0.000 A 
ATOM     23  C   UNL     1       1.522   7.681  20.918  0.00  0.00    +0.000 A 
ATOM     24  C   UNL     1       0.747   8.847  20.930  0.00  0.00    +0.000 A 
ATOM     25  C   UNL     1       0.696   9.661  19.802  0.00  0.00    +0.000 A 
ATOM     26  C   UNL     1       1.380   9.277  18.657  0.00  0.00    +0.000 A 
ATOM     27  F   UNL     1       1.343  10.060  17.571  0.00  0.00    +0.000 F 
ATOM     28  C   UNL     1       2.132   8.107  18.628  0.00  0.00    +0.000 A 
ENDBRANCH  20  22
ENDBRANCH   9  20
TORSDOF 5
ENDMDL
MODEL 5
REMARK VINA RESULT:      -8.4      1.119      1.301
REMARK  Name = 
REMARK  5 active torsions:
REMARK  status: ('A' for Active; 'I' for Inactive)
REMARK    1  A    between atoms: C_2  and  O_3
REMARK    2  A    between atoms: C_2  and  C_4
REMARK    3  A    between atoms: N_11  and  C_12
REMARK    4  A    between atoms: C_18  and  N_19
REMARK    5  A    between atoms: N_19  and  C_20
REMARK                            x       y       z     vdW  Elec       q    Type
REMARK                         _______ _______ _______ _____ _____    ______ ____
ROOT
ATOM      1  C   UNL     1       2.785   4.181  20.220  0.00  0.00    +0.000 A 
ATOM      2  C   UNL     1       1.766   4.924  20.802  0.00  0.00    +0.000 A 
ATOM      3  N   UNL     1       1.467   6.200  20.501  0.00  0.00    +0.000 NA
ATOM      4  C   UNL     1       2.217   6.733  19.515  0.00  0.00    +0.000 A 
ATOM      5  C   UNL     1       3.232   6.078  18.824  0.00  0.00    +0.000 A 
ATOM      6  C   UNL     1       3.614   7.018  17.839  0.00  0.00    +0.000 A 
ATOM      7  N   UNL     1       2.977   8.182  17.933  0.00  0.00    +0.000 NA
ATOM      8  N   UNL     1       2.123   8.022  18.986  0.00  0.00    +0.000 N 
ATOM      9  C   UNL     1       3.583   4.751  19.199  0.00  0.00    +0.000 A 
ENDROOT
BRANCH   8  10
ATOM     10  C   UNL     1       1.268   9.093  19.382  0.00  0.00    +0.000 A 
ATOM     11  C   UNL     1       0.645   9.882  18.403  0.00  0.00    +0.000 A 
ATOM     12  C   UNL     1      -0.246  10.893  18.774  0.00  0.00    +0.000 A 
ATOM     13  C   UNL     1      -0.513  11.130  20.122  0.00  0.00    +0.000 A 
ATOM     14  C   UNL     1       0.125  10.376  21.100  0.00  0.00    +0.000 A 
ATOM     15  C   UNL     1       1.017   9.365  20.734  0.00  0.00    +0.000 A 
ENDBRANCH   8  10
BRANCH   1  17
ATOM     16  O   UNL     1       2.881   2.547  21.932  0.00  0.00    +0.000 OA
ATOM     17  C   UNL     1       2.951   2.809  20.747  0.00  0.00    +0.000 C 
BRANCH  17  18
ATOM     18  O   UNL     1       3.231   1.886  19.804  0.00  0.00    +0.000 OA
ATOM     19  H   UNL     1       3.203   2.230  18.886  0.00  0.00    +0.000 HD
ENDBRANCH  17  18
ENDBRANCH   1  17
BRANCH   9  20
ATOM     20  N   UNL     1       4.646   3.992  18.619  0.00  0.00    +0.000 N 
ATOM     21  H   UNL     1       4.463   2.988  18.703  0.00  0.00    +0.000 HD
BRANCH  20  22
ATOM     22  C   UNL     1       5.372   4.305  17.447  0.00  0.00    +0.000 A 
ATOM     23  C   UNL     1       6.685   4.792  17.544  0.00  0.00    +0.000 A 
ATOM     24  C   UNL     1       7.459   4.998  16.396  0.00  0.00    +0.000 A 
ATOM     25  C   UNL     1       6.925   4.729  15.138  0.00  0.00    +0.000 A 
ATOM     26  C   UNL     1       5.608   4.304  15.037  0.00  0.00    +0.000 A 
ATOM     27  F   UNL     1       5.090   4.034  13.832  0.00  0.00    +0.000 F 
ATOM     28  C   UNL     1       4.824   4.120  16.172  0.00  0.00    +0.000 A 
ENDBRANCH  20  22
ENDBRANCH   9  20
TORSDOF 5
ENDMDL
MODEL 6
REMARK VINA RESULT:      -8.3      0.901      1.296
REMARK  Name = 
REMARK  5 active torsions:
REMARK  status: ('A' for Active; 'I' for Inactive)
REMARK    1  A    between atoms: C_2  and  O_3
REMARK    2  A    between atoms: C_2  and  C_4
REMARK    3  A    between atoms: N_11  and  C_12
REMARK    4  A    between atoms: C_18  and  N_19
REMARK    5  A    between atoms: N_19  and  C_20
REMARK                            x       y       z     vdW  Elec       q    Type
REMARK                         _______ _______ _______ _____ _____    ______ ____
ROOT
ATOM      1  C   UNL     1       3.988   3.730  19.171  0.00  0.00    +0.000 A 
ATOM      2  C   UNL     1       2.882   4.211  19.859  0.00  0.00    +0.000 A 
ATOM      3  N   UNL     1       2.388   5.457  19.760  0.00  0.00    +0.000 NA
ATOM      4  C   UNL     1       3.028   6.243  18.870  0.00  0.00    +0.000 A 
ATOM      5  C   UNL     1       4.114   5.864  18.086  0.00  0.00    +0.000 A 
ATOM      6  C   UNL     1       4.328   6.991  17.260  0.00  0.00    +0.000 A 
ATOM      7  N   UNL     1       3.526   8.017  17.533  0.00  0.00    +0.000 NA
ATOM      8  N   UNL     1       2.730   7.569  18.547  0.00  0.00    +0.000 N 
ATOM      9  C   UNL     1       4.669   4.564  18.251  0.00  0.00    +0.000 A 
ENDROOT
BRANCH   8  10
ATOM     10  C   UNL     1       1.732   8.424  19.103  0.00  0.00    +0.000 A 
ATOM     11  C   UNL     1       1.052   9.329  18.274  0.00  0.00    +0.000 A 
ATOM     12  C   UNL     1       0.028  10.127  18.791  0.00  0.00    +0.000 A 
ATOM     13  C   UNL     1      -0.318  10.036  20.138  0.00  0.00    +0.000 A 
ATOM     14  C   UNL     1       0.373   9.167  20.975  0.00  0.00    +0.000 A 
ATOM     15  C   UNL     1       1.397   8.368  20.463  0.00  0.00    +0.000 A 
ENDBRANCH   8  10
BRANCH   1  17
ATOM     16  O   UNL     1       4.882   2.010  20.533  0.00  0.00    +0.000 OA
ATOM     17  C   UNL     1       4.370   2.335  19.479  0.00  0.00    +0.000 C 
BRANCH  17  18
ATOM     18  O   UNL     1       4.143   1.465  18.473  0.00  0.00    +0.000 OA
ATOM     19  H   UNL     1       4.083   0.528  18.759  0.00  0.00    +0.000 HD
ENDBRANCH  17  18
ENDBRANCH   1  17
BRANCH   9  20
ATOM     20  N   UNL     1       5.820   4.074  17.563  0.00  0.00    +0.000 N 
ATOM     21  H   UNL     1       6.151   3.201  17.983  0.00  0.00    +0.000 HD
BRANCH  20  22
ATOM     22  C   UNL     1       6.061   4.118  16.170  0.00  0.00    +0.000 A 
ATOM     23  C   UNL     1       5.149   3.529  15.282  0.00  0.00    +0.000 A 
ATOM     24  C   UNL     1       5.310   3.662  13.898  0.00  0.00    +0.000 A 
ATOM     25  C   UNL     1       6.391   4.376  13.387  0.00  0.00    +0.000 A 
ATOM     26  C   UNL     1       7.326   4.909  14.263  0.00  0.00    +0.000 A 
ATOM     27  F   UNL     1       8.363   5.605  13.781  0.00  0.00    +0.000 F 
ATOM     28  C   UNL     1       7.187   4.760  15.640  0.00  0.00    +0.000 A 
ENDBRANCH  20  22
ENDBRANCH   9  20
TORSDOF 5
ENDMDL
MODEL 7
REMARK VINA RESULT:      -8.3      4.316      8.566
REMARK  Name = 
REMARK  5 active torsions:
REMARK  status: ('A' for Active; 'I' for Inactive)
REMARK    1  A    between atoms: C_2  and  O_3
REMARK    2  A    between atoms: C_2  and  C_4
REMARK    3  A    between atoms: N_11  and  C_12
REMARK    4  A    between atoms: C_18  and  N_19
REMARK    5  A    between atoms: N_19  and  C_20
REMARK                            x       y       z     vdW  Elec       q    Type
REMARK                         _______ _______ _______ _____ _____    ______ ____
ROOT
ATOM      1  C   UNL     1       0.448   9.498  21.447  0.00  0.00    +0.000 A 
ATOM      2  C   UNL     1       1.092   8.280  21.620  0.00  0.00    +0.000 A 
ATOM      3  N   UNL     1       1.734   7.597  20.656  0.00  0.00    +0.000 NA
ATOM      4  C   UNL     1       1.762   8.216  19.458  0.00  0.00    +0.000 A 
ATOM      5  C   UNL     1       1.199   9.455  19.171  0.00  0.00    +0.000 A 
ATOM      6  C   UNL     1       1.601   9.695  17.837  0.00  0.00    +0.000 A 
ATOM      7  N   UNL     1       2.279   8.688  17.292  0.00  0.00    +0.000 NA
ATOM      8  N   UNL     1       2.365   7.756  18.285  0.00  0.00    +0.000 N 
ATOM      9  C   UNL     1       0.465  10.135  20.183  0.00  0.00    +0.000 A 
ENDROOT
BRANCH   8  10
ATOM     10  C   UNL     1       3.038   6.519  18.049  0.00  0.00    +0.000 A 
ATOM     11  C   UNL     1       2.296   5.330  17.971  0.00  0.00    +0.000 A 
ATOM     12  C   UNL     1       2.932   4.121  17.677  0.00  0.00    +0.000 A 
ATOM     13  C   UNL     1       4.310   4.087  17.470  0.00  0.00    +0.000 A 
ATOM     14  C   UNL     1       5.058   5.254  17.579  0.00  0.00    +0.000 A 
ATOM     15  C   UNL     1       4.427   6.465  17.873  0.00  0.00    +0.000 A 
ENDBRANCH   8  10
BRANCH   1  17
ATOM     16  O   UNL     1      -0.207  11.216  22.941  0.00  0.00    +0.000 OA
ATOM     17  C   UNL     1      -0.227  10.036  22.648  0.00  0.00    +0.000 C 
BRANCH  17  18
ATOM     18  O   UNL     1      -0.826   9.099  23.411  0.00  0.00    +0.000 OA
ATOM     19  H   UNL     1      -0.805   8.196  23.027  0.00  0.00    +0.000 HD
ENDBRANCH  17  18
ENDBRANCH   1  17
BRANCH   9  20
ATOM     20  N   UNL     1      -0.219  11.376  20.002  0.00  0.00    +0.000 N 
ATOM     21  H   UNL     1       0.388  12.062  19.543  0.00  0.00    +0.000 HD
BRANCH  20  22
ATOM     22  C   UNL     1      -1.579  11.555  19.658  0.00  0.00    +0.000 A 
ATOM     23  C   UNL     1      -2.392  12.400  20.428  0.00  0.00    +0.000 A 
ATOM     24  C   UNL     1      -3.707  12.680  20.038  0.00  0.00    +0.000 A 
ATOM     25  C   UNL     1      -4.226  12.108  18.879  0.00  0.00    +0.000 A 
ATOM     26  C   UNL     1      -3.443  11.226  18.149  0.00  0.00    +0.000 A 
ATOM     27  F   UNL     1      -3.932  10.680  17.028  0.00  0.00    +0.000 F 
ATOM     28  C   UNL     1      -2.143  10.923  18.543  0.00  0.00    +0.000 A 
ENDBRANCH  20  22
ENDBRANCH   9  20
TORSDOF 5
ENDMDL
MODEL 8
REMARK VINA RESULT:      -8.3      4.762      8.818
REMARK  Name = 
REMARK  5 active torsions:
REMARK  status: ('A' for Active; 'I' for Inactive)
REMARK    1  A    between atoms: C_2  and  O_3
REMARK    2  A    between atoms: C_2  and  C_4
REMARK    3  A    between atoms: N_11  and  C_12
REMARK    4  A    between atoms: C_18  and  N_19
REMARK    5  A    between atoms: N_19  and  C_20
REMARK                            x       y       z     vdW  Elec       q    Type
REMARK                         _______ _______ _______ _____ _____    ______ ____
ROOT
ATOM      1  C   UNL     1       0.390   9.584  21.467  0.00  0.00    +0.000 A 
ATOM      2  C   UNL     1       1.000   8.346  21.623  0.00  0.00    +0.000 A 
ATOM      3  N   UNL     1       1.633   7.664  20.653  0.00  0.00    +0.000 NA
ATOM      4  C   UNL     1       1.691   8.303  19.467  0.00  0.00    +0.000 A 
ATOM      5  C   UNL     1       1.164   9.562  19.197  0.00  0.00    +0.000 A 
ATOM      6  C   UNL     1       1.587   9.815  17.873  0.00  0.00    +0.000 A 
ATOM      7  N   UNL     1       2.243   8.801  17.316  0.00  0.00    +0.000 NA
ATOM      8  N   UNL     1       2.293   7.848  18.292  0.00  0.00    +0.000 N 
ATOM      9  C   UNL     1       0.437  10.243  20.215  0.00  0.00    +0.000 A 
ENDROOT
BRANCH   8  10
ATOM     10  C   UNL     1       2.935   6.599  18.040  0.00  0.00    +0.000 A 
ATOM     11  C   UNL     1       2.179   5.417  18.049  0.00  0.00    +0.000 A 
ATOM     12  C   UNL     1       2.780   4.193  17.740  0.00  0.00    +0.000 A 
ATOM     13  C   UNL     1       4.139   4.138  17.433  0.00  0.00    +0.000 A 
ATOM     14  C   UNL     1       4.903   5.299  17.456  0.00  0.00    +0.000 A 
ATOM     15  C   UNL     1       4.307   6.524  17.764  0.00  0.00    +0.000 A 
ENDBRANCH   8  10
BRANCH   1  17
ATOM     16  O   UNL     1      -0.286  11.301  22.952  0.00  0.00    +0.000 OA
ATOM     17  C   UNL     1      -0.283  10.118  22.671  0.00  0.00    +0.000 C 
BRANCH  17  18
ATOM     18  O   UNL     1      -0.852   9.175  23.449  0.00  0.00    +0.000 OA
ATOM     19  H   UNL     1      -1.409   9.535  24.172  0.00  0.00    +0.000 HD
ENDBRANCH  17  18
ENDBRANCH   1  17
BRANCH   9  20
ATOM     20  N   UNL     1      -0.211  11.505  20.050  0.00  0.00    +0.000 N 
ATOM     21  H   UNL     1       0.441  12.203  19.680  0.00  0.00    +0.000 HD
BRANCH  20  22
ATOM     22  C   UNL     1      -1.536  11.729  19.609  0.00  0.00    +0.000 A 
ATOM     23  C   UNL     1      -1.963  11.209  18.378  0.00  0.00    +0.000 A 
ATOM     24  C   UNL     1      -3.300  11.322  17.978  0.00  0.00    +0.000 A 
ATOM     25  C   UNL     1      -4.222  11.965  18.801  0.00  0.00    +0.000 A 
ATOM     26  C   UNL     1      -3.788  12.531  19.991  0.00  0.00    +0.000 A 
ATOM     27  F   UNL     1      -4.670  13.143  20.792  0.00  0.00    +0.000 F 
ATOM     28  C   UNL     1      -2.456  12.446  20.384  0.00  0.00    +0.000 A 
ENDBRANCH  20  22
ENDBRANCH   9  20
TORSDOF 5
ENDMDL
MODEL 9
REMARK VINA RESULT:      -8.2      1.995      2.544
REMARK  Name = 
REMARK  5 active torsions:
REMARK  status: ('A' for Active; 'I' for Inactive)
REMARK    1  A    between atoms: C_2  and  O_3
REMARK    2  A    between atoms: C_2  and  C_4
REMARK    3  A    between atoms: N_11  and  C_12
REMARK    4  A    between atoms: C_18  and  N_19
REMARK    5  A    between atoms: N_19  and  C_20
REMARK                            x       y       z     vdW  Elec       q    Type
REMARK                         _______ _______ _______ _____ _____    ______ ____
ROOT
ATOM      1  C   UNL     1       2.395   4.118  19.562  0.00  0.00    +0.000 A 
ATOM      2  C   UNL     1       1.677   4.607  20.646  0.00  0.00    +0.000 A 
ATOM      3  N   UNL     1       1.362   5.897  20.850  0.00  0.00    +0.000 NA
ATOM      4  C   UNL     1       1.758   6.731  19.867  0.00  0.00    +0.000 A 
ATOM      5  C   UNL     1       2.437   6.359  18.711  0.00  0.00    +0.000 A 
ATOM      6  C   UNL     1       2.509   7.563  17.973  0.00  0.00    +0.000 A 
ATOM      7  N   UNL     1       2.006   8.616  18.613  0.00  0.00    +0.000 NA
ATOM      8  N   UNL     1       1.557   8.113  19.800  0.00  0.00    +0.000 N 
ATOM      9  C   UNL     1       2.824   5.000  18.541  0.00  0.00    +0.000 A 
ENDROOT
BRANCH   8  10
ATOM     10  C   UNL     1       0.948   8.976  20.758  0.00  0.00    +0.000 A 
ATOM     11  C   UNL     1       0.132  10.032  20.321  0.00  0.00    +0.000 A 
ATOM     12  C   UNL     1      -0.524  10.847  21.248  0.00  0.00    +0.000 A 
ATOM     13  C   UNL     1      -0.362  10.622  22.615  0.00  0.00    +0.000 A 
ATOM     14  C   UNL     1       0.472   9.602  23.057  0.00  0.00    +0.000 A 
ATOM     15  C   UNL     1       1.129   8.785  22.135  0.00  0.00    +0.000 A 
ENDBRANCH   8  10
BRANCH   1  17
ATOM     16  O   UNL     1       1.788   1.835  19.379  0.00  0.00    +0.000 OA
ATOM     17  C   UNL     1       2.657   2.663  19.578  0.00  0.00    +0.000 C 
BRANCH  17  18
ATOM     18  O   UNL     1       3.931   2.334  19.876  0.00  0.00    +0.000 OA
ATOM     19  H   UNL     1       4.510   3.105  20.058  0.00  0.00    +0.000 HD
ENDBRANCH  17  18
ENDBRANCH   1  17
BRANCH   9  20
ATOM     20  N   UNL     1       3.582   4.498  17.439  0.00  0.00    +0.000 N 
ATOM     21  H   UNL     1       3.106   4.691  16.553  0.00  0.00    +0.000 HD
BRANCH  20  22
ATOM     22  C   UNL     1       4.989   4.510  17.300  0.00  0.00    +0.000 A 
ATOM     23  C   UNL     1       5.575   4.195  16.064  0.00  0.00    +0.000 A 
ATOM     24  C   UNL     1       6.957   4.312  15.876  0.00  0.00    +0.000 A 
ATOM     25  C   UNL     1       7.770   4.734  16.925  0.00  0.00    +0.000 A 
ATOM     26  C   UNL     1       7.200   4.989  18.165  0.00  0.00    +0.000 A 
ATOM     27  F   UNL     1       7.973   5.404  19.176  0.00  0.00    +0.000 F 
ATOM     28  C   UNL     1       5.830   4.851  18.367  0.00  0.00    +0.000 A 
ENDBRANCH  20  22
ENDBRANCH   9  20
TORSDOF 5
ENDMDL
