MODEL 1
REMARK VINA RESULT:      -8.3      0.000      0.000
REMARK  Name = 
REMARK  10 active torsions:
REMARK  status: ('A' for Active; 'I' for Inactive)
REMARK    1  A    between atoms: C_1  and  O_2
REMARK    2  A    between atoms: O_2  and  C_3
REMARK    3  A    between atoms: C_7  and  N_8
REMARK    4  A    between atoms: N_11  and  C_12
REMARK    5  A    between atoms: C_15  and  N_16
REMARK    6  A    between atoms: N_16  and  C_17
REMARK    7  A    between atoms: C_23  and  O_24
REMARK    8  A    between atoms: O_24  and  C_25
REMARK    9  A    between atoms: C_26  and  O_27
REMARK   10  A    between atoms: O_27  and  C_28
REMARK                            x       y       z     vdW  Elec       q    Type
REMARK                         _______ _______ _______ _____ _____    ______ ____
ROOT
ATOM      1  C   UNL     1       2.156   7.671  19.366  0.00  0.00    +0.000 A 
ATOM      2  C   UNL     1       1.662   7.875  20.659  0.00  0.00    +0.000 A 
ATOM      3  C   UNL     1       0.888   9.052  21.040  0.00  0.00    +0.000 A 
ATOM      4  C   UNL     1       0.579  10.108  20.161  0.00  0.00    +0.000 A 
ATOM      5  C   UNL     1       0.994   9.835  18.834  0.00  0.00    +0.000 A 
ATOM      6  C   UNL     1       1.767   8.664  18.452  0.00  0.00    +0.000 A 
ENDROOT
BRANCH   1  10
ATOM      7  N   UNL     1       4.138   4.441  19.049  0.00  0.00    +0.000 N 
ATOM      8  C   UNL     1       3.251   5.371  19.571  0.00  0.00    +0.000 C 
ATOM      9  O   UNL     1       2.636   5.011  20.581  0.00  0.00    +0.000 OA
ATOM     10  N   UNL     1       3.026   6.573  18.933  0.00  0.00    +0.000 N 
ATOM     11  H   UNL     1       3.995   3.561  19.545  0.00  0.00    +0.000 HD
ATOM     12  H   UNL     1       3.368   6.623  17.985  0.00  0.00    +0.000 HD
BRANCH   7  17
ATOM     13  C   UNL     1       6.026   3.967  15.818  0.00  0.00    +0.000 A 
ATOM     14  C   UNL     1       7.314   4.300  16.220  0.00  0.00    +0.000 A 
ATOM     15  C   UNL     1       7.575   4.629  17.553  0.00  0.00    +0.000 A 
ATOM     16  C   UNL     1       6.538   4.672  18.496  0.00  0.00    +0.000 A 
ATOM     17  C   UNL     1       5.224   4.404  18.127  0.00  0.00    +0.000 A 
ATOM     18  C   UNL     1       4.986   4.005  16.770  0.00  0.00    +0.000 A 
BRANCH  13  20
ATOM     19  C   UNL     1       6.756   4.401  13.579  0.00  0.00    +0.000 C 
ATOM     20  O   UNL     1       5.933   3.676  14.480  0.00  0.00    +0.000 OA
ENDBRANCH  13  20
ENDBRANCH   7  17
ENDBRANCH   1  10
BRANCH   4  21
ATOM     21  N   UNL     1      -0.133  11.377  20.481  0.00  0.00    +0.000 N 
ATOM     22  H   UNL     1      -0.743  11.162  21.269  0.00  0.00    +0.000 HD
BRANCH  21  23
ATOM     23  C   UNL     1      -0.925  12.320  19.611  0.00  0.00    +0.000 A 
ATOM     24  N   UNL     1      -0.831  13.548  20.044  0.00  0.00    +0.000 NA
ATOM     25  C   UNL     1      -1.934  13.952  20.663  0.00  0.00    +0.000 A 
ATOM     26  N   UNL     1      -3.101  13.299  20.685  0.00  0.00    +0.000 NA
ATOM     27  C   UNL     1      -3.255  12.348  19.767  0.00  0.00    +0.000 A 
ATOM     28  C   UNL     1      -4.597  12.059  19.500  0.00  0.00    +0.000 A 
ATOM     29  C   UNL     1      -5.091  11.602  18.271  0.00  0.00    +0.000 A 
ATOM     30  C   UNL     1      -4.166  11.447  17.246  0.00  0.00    +0.000 A 
ATOM     31  C   UNL     1      -2.751  11.540  17.600  0.00  0.00    +0.000 A 
ATOM     32  C   UNL     1      -2.217  11.901  18.974  0.00  0.00    +0.000 A 
BRANCH  29  33
ATOM     33  O   UNL     1      -6.426  11.390  18.057  0.00  0.00    +0.000 OA
ATOM     34  C   UNL     1      -7.242  12.521  17.744  0.00  0.00    +0.000 C 
ENDBRANCH  29  33
BRANCH  30  35
ATOM     35  O   UNL     1      -4.479  11.297  15.900  0.00  0.00    +0.000 OA
ATOM     36  C   UNL     1      -3.551  10.698  14.964  0.00  0.00    +0.000 C 
ENDBRANCH  30  35
ENDBRANCH  21  23
ENDBRANCH   4  21
TORSDOF 7
ENDMDL
MODEL 2
REMARK VINA RESULT:      -8.2      3.120      4.365
REMARK  Name = 
REMARK  10 active torsions:
REMARK  status: ('A' for Active; 'I' for Inactive)
REMARK    1  A    between atoms: C_1  and  O_2
REMARK    2  A    between atoms: O_2  and  C_3
REMARK    3  A    between atoms: C_7  and  N_8
REMARK    4  A    between atoms: N_11  and  C_12
REMARK    5  A    between atoms: C_15  and  N_16
REMARK    6  A    between atoms: N_16  and  C_17
REMARK    7  A    between atoms: C_23  and  O_24
REMARK    8  A    between atoms: O_24  and  C_25
REMARK    9  A    between atoms: C_26  and  O_27
REMARK   10  A    between atoms: O_27  and  C_28
REMARK                            x       y       z     vdW  Elec       q    Type
REMARK                         _______ _______ _______ _____ _____    ______ ____
ROOT
ATOM      1  C   UNL     1       3.611   5.719  18.062  0.00  0.00    +0.000 A 
ATOM      2  C   UNL     1       3.027   5.065  19.152  0.00  0.00    +0.000 A 
ATOM      3  C   UNL     1       2.157   5.736  20.111  0.00  0.00    +0.000 A 
ATOM      4  C   UNL     1       1.834   7.106  20.056  0.00  0.00    +0.000 A 
ATOM      5  C   UNL     1       2.346   7.727  18.889  0.00  0.00    +0.000 A 
ATOM      6  C   UNL     1       3.215   7.061  17.933  0.00  0.00    +0.000 A 
ENDROOT
BRANCH   1  10
ATOM      7  N   UNL     1       6.640   4.151  16.381  0.00  0.00    +0.000 N 
ATOM      8  C   UNL     1       5.825   4.630  17.396  0.00  0.00    +0.000 C 
ATOM      9  O   UNL     1       6.264   4.489  18.542  0.00  0.00    +0.000 OA
ATOM     10  N   UNL     1       4.575   5.144  17.119  0.00  0.00    +0.000 N 
ATOM     11  H   UNL     1       7.406   3.634  16.814  0.00  0.00    +0.000 HD
ATOM     12  H   UNL     1       4.228   4.942  16.194  0.00  0.00    +0.000 HD
BRANCH   7  17
ATOM     13  C   UNL     1       6.097   3.470  12.711  0.00  0.00    +0.000 A 
ATOM     14  C   UNL     1       6.936   4.422  12.145  0.00  0.00    +0.000 A 
ATOM     15  C   UNL     1       7.717   5.249  12.958  0.00  0.00    +0.000 A 
ATOM     16  C   UNL     1       7.633   5.165  14.354  0.00  0.00    +0.000 A 
ATOM     17  C   UNL     1       6.763   4.268  14.966  0.00  0.00    +0.000 A 
ATOM     18  C   UNL     1       6.020   3.383  14.117  0.00  0.00    +0.000 A 
BRANCH  13  20
ATOM     19  C   UNL     1       4.155   3.263  11.325  0.00  0.00    +0.000 C 
ATOM     20  O   UNL     1       5.395   2.744  11.782  0.00  0.00    +0.000 OA
ENDBRANCH  13  20
ENDBRANCH   7  17
ENDBRANCH   1  10
BRANCH   4  21
ATOM     21  N   UNL     1       1.023   7.888  21.030  0.00  0.00    +0.000 N 
ATOM     22  H   UNL     1       0.075   7.904  20.654  0.00  0.00    +0.000 HD
BRANCH  21  23
ATOM     23  C   UNL     1       1.235   9.255  21.630  0.00  0.00    +0.000 A 
ATOM     24  N   UNL     1       1.235   9.200  22.934  0.00  0.00    +0.000 NA
ATOM     25  C   UNL     1       0.109   9.668  23.461  0.00  0.00    +0.000 A 
ATOM     26  N   UNL     1      -0.851  10.320  22.797  0.00  0.00    +0.000 NA
ATOM     27  C   UNL     1      -0.510  10.807  21.606  0.00  0.00    +0.000 A 
ATOM     28  C   UNL     1      -1.329  11.863  21.194  0.00  0.00    +0.000 A 
ATOM     29  C   UNL     1      -0.923  12.917  20.365  0.00  0.00    +0.000 A 
ATOM     30  C   UNL     1       0.402  12.905  19.944  0.00  0.00    +0.000 A 
ATOM     31  C   UNL     1       1.176  11.692  20.200  0.00  0.00    +0.000 A 
ATOM     32  C   UNL     1       0.680  10.491  20.983  0.00  0.00    +0.000 A 
BRANCH  29  33
ATOM     33  O   UNL     1      -1.757  13.952  20.042  0.00  0.00    +0.000 OA
ATOM     34  C   UNL     1      -2.746  14.340  20.998  0.00  0.00    +0.000 C 
ENDBRANCH  29  33
BRANCH  30  35
ATOM     35  O   UNL     1       1.073  13.983  19.379  0.00  0.00    +0.000 OA
ATOM     36  C   UNL     1       2.517  14.078  19.401  0.00  0.00    +0.000 C 
ENDBRANCH  30  35
ENDBRANCH  21  23
ENDBRANCH   4  21
TORSDOF 7
ENDMDL
MODEL 3
REMARK VINA RESULT:      -8.1      3.119      4.017
REMARK  Name = 
REMARK  10 active torsions:
REMARK  status: ('A' for Active; 'I' for Inactive)
REMARK    1  A    between atoms: C_1  and  O_2
REMARK    2  A    between atoms: O_2  and  C_3
REMARK    3  A    between atoms: C_7  and  N_8
REMARK    4  A    between atoms: N_11  and  C_12
REMARK    5  A    between atoms: C_15  and  N_16
REMARK    6  A    between atoms: N_16  and  C_17
REMARK    7  A    between atoms: C_23  and  O_24
REMARK    8  A    between atoms: O_24  and  C_25
REMARK    9  A    between atoms: C_26  and  O_27
REMARK   10  A    between atoms: O_27  and  C_28
REMARK                            x       y       z     vdW  Elec       q    Type
REMARK                         _______ _______ _______ _____ _____    ______ ____
ROOT
ATOM      1  C   UNL     1       2.191   7.727  19.019  0.00  0.00    +0.000 A 
ATOM      2  C   UNL     1       1.847   7.664  20.373  0.00  0.00    +0.000 A 
ATOM      3  C   UNL     1       1.187   8.757  21.079  0.00  0.00    +0.000 A 
ATOM      4  C   UNL     1       0.850   9.988  20.484  0.00  0.00    +0.000 A 
ATOM      5  C   UNL     1       1.108   9.994  19.091  0.00  0.00    +0.000 A 
ATOM      6  C   UNL     1       1.768   8.907  18.385  0.00  0.00    +0.000 A 
ENDROOT
BRANCH   1  10
ATOM      7  N   UNL     1       3.521   4.532  17.444  0.00  0.00    +0.000 N 
ATOM      8  C   UNL     1       2.686   5.368  18.170  0.00  0.00    +0.000 C 
ATOM      9  O   UNL     1       1.677   4.834  18.641  0.00  0.00    +0.000 OA
ATOM     10  N   UNL     1       2.946   6.719  18.267  0.00  0.00    +0.000 N 
ATOM     11  H   UNL     1       3.042   3.639  17.325  0.00  0.00    +0.000 HD
ATOM     12  H   UNL     1       3.629   7.070  17.613  0.00  0.00    +0.000 HD
BRANCH   7  17
ATOM     13  C   UNL     1       6.366   4.396  14.970  0.00  0.00    +0.000 A 
ATOM     14  C   UNL     1       7.456   4.529  15.822  0.00  0.00    +0.000 A 
ATOM     15  C   UNL     1       7.266   4.611  17.205  0.00  0.00    +0.000 A 
ATOM     16  C   UNL     1       5.975   4.606  17.752  0.00  0.00    +0.000 A 
ATOM     17  C   UNL     1       4.853   4.534  16.933  0.00  0.00    +0.000 A 
ATOM     18  C   UNL     1       5.069   4.385  15.524  0.00  0.00    +0.000 A 
BRANCH  13  20
ATOM     19  C   UNL     1       5.931   3.528  12.782  0.00  0.00    +0.000 C 
ATOM     20  O   UNL     1       6.717   4.335  13.645  0.00  0.00    +0.000 OA
ENDBRANCH  13  20
ENDBRANCH   7  17
ENDBRANCH   1  10
BRANCH   4  21
ATOM     21  N   UNL     1       0.251  11.182  21.144  0.00  0.00    +0.000 N 
ATOM     22  H   UNL     1       0.437  11.072  22.140  0.00  0.00    +0.000 HD
BRANCH  21  23
ATOM     23  C   UNL     1      -1.134  11.773  21.061  0.00  0.00    +0.000 A 
ATOM     24  N   UNL     1      -1.324  12.363  19.912  0.00  0.00    +0.000 NA
ATOM     25  C   UNL     1      -1.282  13.687  20.010  0.00  0.00    +0.000 A 
ATOM     26  N   UNL     1      -1.260  14.385  21.149  0.00  0.00    +0.000 NA
ATOM     27  C   UNL     1      -1.625  13.726  22.246  0.00  0.00    +0.000 A 
ATOM     28  C   UNL     1      -2.063  14.570  23.271  0.00  0.00    +0.000 A 
ATOM     29  C   UNL     1      -3.011  14.227  24.243  0.00  0.00    +0.000 A 
ATOM     30  C   UNL     1      -3.560  12.953  24.157  0.00  0.00    +0.000 A 
ATOM     31  C   UNL     1      -2.936  12.016  23.225  0.00  0.00    +0.000 A 
ATOM     32  C   UNL     1      -1.810  12.358  22.267  0.00  0.00    +0.000 A 
BRANCH  29  33
ATOM     33  O   UNL     1      -3.441  15.119  25.188  0.00  0.00    +0.000 OA
ATOM     34  C   UNL     1      -4.130  16.288  24.742  0.00  0.00    +0.000 C 
ENDBRANCH  29  33
BRANCH  30  35
ATOM     35  O   UNL     1      -4.704  12.526  24.821  0.00  0.00    +0.000 OA
ATOM     36  C   UNL     1      -6.019  12.646  24.228  0.00  0.00    +0.000 C 
ENDBRANCH  30  35
ENDBRANCH  21  23
ENDBRANCH   4  21
TORSDOF 7
ENDMDL
MODEL 4
REMARK VINA RESULT:      -8.0      2.801      3.697
REMARK  Name = 
REMARK  10 active torsions:
REMARK  status: ('A' for Active; 'I' for Inactive)
REMARK    1  A    between atoms: C_1  and  O_2
REMARK    2  A    between atoms: O_2  and  C_3
REMARK    3  A    between atoms: C_7  and  N_8
REMARK    4  A    between atoms: N_11  and  C_12
REMARK    5  A    between atoms: C_15  and  N_16
REMARK    6  A    between atoms: N_16  and  C_17
REMARK    7  A    between atoms: C_23  and  O_24
REMARK    8  A    between atoms: O_24  and  C_25
REMARK    9  A    between atoms: C_26  and  O_27
REMARK   10  A    between atoms: O_27  and  C_28
REMARK                            x       y       z     vdW  Elec       q    Type
REMARK                         _______ _______ _______ _____ _____    ______ ____
ROOT
ATOM      1  C   UNL     1       1.464   8.502  20.179  0.00  0.00    +0.000 A 
ATOM      2  C   UNL     1       0.822   9.612  19.619  0.00  0.00    +0.000 A 
ATOM      3  C   UNL     1       0.074  10.582  20.411  0.00  0.00    +0.000 A 
ATOM      4  C   UNL     1      -0.101  10.493  21.806  0.00  0.00    +0.000 A 
ATOM      5  C   UNL     1       0.642   9.425  22.367  0.00  0.00    +0.000 A 
ATOM      6  C   UNL     1       1.388   8.455  21.580  0.00  0.00    +0.000 A 
ENDROOT
BRANCH   1  10
ATOM      7  N   UNL     1       3.004   5.222  19.026  0.00  0.00    +0.000 N 
ATOM      8  C   UNL     1       2.298   6.113  19.821  0.00  0.00    +0.000 C 
ATOM      9  O   UNL     1       1.767   5.626  20.824  0.00  0.00    +0.000 OA
ATOM     10  N   UNL     1       2.143   7.431  19.444  0.00  0.00    +0.000 N 
ATOM     11  H   UNL     1       2.818   4.280  19.372  0.00  0.00    +0.000 HD
ATOM     12  H   UNL     1       2.377   7.629  18.482  0.00  0.00    +0.000 HD
BRANCH   7  17
ATOM     13  C   UNL     1       5.859   6.436  16.880  0.00  0.00    +0.000 A 
ATOM     14  C   UNL     1       5.912   5.428  15.925  0.00  0.00    +0.000 A 
ATOM     15  C   UNL     1       4.985   4.380  15.951  0.00  0.00    +0.000 A 
ATOM     16  C   UNL     1       4.019   4.306  16.964  0.00  0.00    +0.000 A 
ATOM     17  C   UNL     1       3.965   5.260  17.974  0.00  0.00    +0.000 A 
ATOM     18  C   UNL     1       4.881   6.361  17.894  0.00  0.00    +0.000 A 
BRANCH  13  20
ATOM     19  C   UNL     1       7.733   7.607  17.802  0.00  0.00    +0.000 C 
ATOM     20  O   UNL     1       6.838   7.385  16.723  0.00  0.00    +0.000 OA
ENDBRANCH  13  20
ENDBRANCH   7  17
ENDBRANCH   1  10
BRANCH   4  21
ATOM     21  N   UNL     1      -0.910  11.388  22.679  0.00  0.00    +0.000 N 
ATOM     22  H   UNL     1      -1.501  10.771  23.236  0.00  0.00    +0.000 HD
BRANCH  21  23
ATOM     23  C   UNL     1      -1.774  12.579  22.354  0.00  0.00    +0.000 A 
ATOM     24  N   UNL     1      -1.209  13.689  22.745  0.00  0.00    +0.000 NA
ATOM     25  C   UNL     1      -1.771  14.183  23.843  0.00  0.00    +0.000 A 
ATOM     26  N   UNL     1      -2.908  13.753  24.399  0.00  0.00    +0.000 NA
ATOM     27  C   UNL     1      -3.687  12.999  23.628  0.00  0.00    +0.000 A 
ATOM     28  C   UNL     1      -5.024  12.999  24.036  0.00  0.00    +0.000 A 
ATOM     29  C   UNL     1      -6.123  12.832  23.184  0.00  0.00    +0.000 A 
ATOM     30  C   UNL     1      -5.846  12.675  21.831  0.00  0.00    +0.000 A 
ATOM     31  C   UNL     1      -4.451  12.458  21.454  0.00  0.00    +0.000 A 
ATOM     32  C   UNL     1      -3.272  12.501  22.408  0.00  0.00    +0.000 A 
BRANCH  29  33
ATOM     33  O   UNL     1      -7.412  12.898  23.638  0.00  0.00    +0.000 OA
ATOM     34  C   UNL     1      -7.863  14.132  24.200  0.00  0.00    +0.000 C 
ENDBRANCH  29  33
BRANCH  30  35
ATOM     35  O   UNL     1      -6.774  12.793  20.804  0.00  0.00    +0.000 OA
ATOM     36  C   UNL     1      -7.497  11.647  20.293  0.00  0.00    +0.000 C 
ENDBRANCH  30  35
ENDBRANCH  21  23
ENDBRANCH   4  21
TORSDOF 7
ENDMDL
MODEL 5
REMARK VINA RESULT:      -7.9      1.515      1.885
REMARK  Name = 
REMARK  10 active torsions:
REMARK  status: ('A' for Active; 'I' for Inactive)
REMARK    1  A    between atoms: C_1  and  O_2
REMARK    2  A    between atoms: O_2  and  C_3
REMARK    3  A    between atoms: C_7  and  N_8
REMARK    4  A    between atoms: N_11  and  C_12
REMARK    5  A    between atoms: C_15  and  N_16
REMARK    6  A    between atoms: N_16  and  C_17
REMARK    7  A    between atoms: C_23  and  O_24
REMARK    8  A    between atoms: O_24  and  C_25
REMARK    9  A    between atoms: C_26  and  O_27
REMARK   10  A    between atoms: O_27  and  C_28
REMARK                            x       y       z     vdW  Elec       q    Type
REMARK                         _______ _______ _______ _____ _____    ______ ____
ROOT
ATOM      1  C   UNL     1       2.061   7.675  19.385  0.00  0.00    +0.000 A 
ATOM      2  C   UNL     1       1.721   7.537  20.735  0.00  0.00    +0.000 A 
ATOM      3  C   UNL     1       1.036   8.577  21.494  0.00  0.00    +0.000 A 
ATOM      4  C   UNL     1       0.668   9.828  20.961  0.00  0.00    +0.000 A 
ATOM      5  C   UNL     1       0.924   9.908  19.570  0.00  0.00    +0.000 A 
ATOM      6  C   UNL     1       1.609   8.874  18.811  0.00  0.00    +0.000 A 
ENDROOT
BRANCH   1  10
ATOM      7  N   UNL     1       3.435   4.603  17.614  0.00  0.00    +0.000 N 
ATOM      8  C   UNL     1       2.577   5.385  18.373  0.00  0.00    +0.000 C 
ATOM      9  O   UNL     1       1.551   4.822  18.766  0.00  0.00    +0.000 OA
ATOM     10  N   UNL     1       2.838   6.724  18.585  0.00  0.00    +0.000 N 
ATOM     11  H   UNL     1       2.957   3.725  17.409  0.00  0.00    +0.000 HD
ATOM     12  H   UNL     1       3.545   7.120  17.983  0.00  0.00    +0.000 HD
BRANCH   7  17
ATOM     13  C   UNL     1       6.400   4.238  15.310  0.00  0.00    +0.000 A 
ATOM     14  C   UNL     1       7.427   4.668  16.141  0.00  0.00    +0.000 A 
ATOM     15  C   UNL     1       7.161   5.029  17.465  0.00  0.00    +0.000 A 
ATOM     16  C   UNL     1       5.851   5.005  17.964  0.00  0.00    +0.000 A 
ATOM     17  C   UNL     1       4.783   4.637  17.152  0.00  0.00    +0.000 A 
ATOM     18  C   UNL     1       5.084   4.209  15.817  0.00  0.00    +0.000 A 
BRANCH  13  20
ATOM     19  C   UNL     1       5.834   3.675  13.053  0.00  0.00    +0.000 C 
ATOM     20  O   UNL     1       6.821   3.928  14.041  0.00  0.00    +0.000 OA
ENDBRANCH  13  20
ENDBRANCH   7  17
ENDBRANCH   1  10
BRANCH   4  21
ATOM     21  N   UNL     1       0.042  10.973  21.679  0.00  0.00    +0.000 N 
ATOM     22  H   UNL     1      -0.594  10.559  22.361  0.00  0.00    +0.000 HD
BRANCH  21  23
ATOM     23  C   UNL     1      -0.670  12.199  21.166  0.00  0.00    +0.000 A 
ATOM     24  N   UNL     1      -0.160  13.286  21.679  0.00  0.00    +0.000 NA
ATOM     25  C   UNL     1      -0.936  13.813  22.620  0.00  0.00    +0.000 A 
ATOM     26  N   UNL     1      -2.188  13.439  22.899  0.00  0.00    +0.000 NA
ATOM     27  C   UNL     1      -2.803  12.714  21.968  0.00  0.00    +0.000 A 
ATOM     28  C   UNL     1      -4.197  12.777  22.058  0.00  0.00    +0.000 A 
ATOM     29  C   UNL     1      -5.077  12.652  20.976  0.00  0.00    +0.000 A 
ATOM     30  C   UNL     1      -4.504  12.471  19.722  0.00  0.00    +0.000 A 
ATOM     31  C   UNL     1      -3.071  12.189  19.675  0.00  0.00    +0.000 A 
ATOM     32  C   UNL     1      -2.142  12.188  20.875  0.00  0.00    +0.000 A 
BRANCH  29  33
ATOM     33  O   UNL     1      -6.432  12.779  21.121  0.00  0.00    +0.000 OA
ATOM     34  C   UNL     1      -7.222  11.587  21.109  0.00  0.00    +0.000 C 
ENDBRANCH  29  33
BRANCH  30  35
ATOM     35  O   UNL     1      -5.165  12.621  18.509  0.00  0.00    +0.000 OA
ATOM     36  C   UNL     1      -5.564  11.481  17.711  0.00  0.00    +0.000 C 
ENDBRANCH  30  35
ENDBRANCH  21  23
ENDBRANCH   4  21
TORSDOF 7
ENDMDL
MODEL 6
REMARK VINA RESULT:      -7.9      1.192      1.523
REMARK  Name = 
REMARK  10 active torsions:
REMARK  status: ('A' for Active; 'I' for Inactive)
REMARK    1  A    between atoms: C_1  and  O_2
REMARK    2  A    between atoms: O_2  and  C_3
REMARK    3  A    between atoms: C_7  and  N_8
REMARK    4  A    between atoms: N_11  and  C_12
REMARK    5  A    between atoms: C_15  and  N_16
REMARK    6  A    between atoms: N_16  and  C_17
REMARK    7  A    between atoms: C_23  and  O_24
REMARK    8  A    between atoms: O_24  and  C_25
REMARK    9  A    between atoms: C_26  and  O_27
REMARK   10  A    between atoms: O_27  and  C_28
REMARK                            x       y       z     vdW  Elec       q    Type
REMARK                         _______ _______ _______ _____ _____    ______ ____
ROOT
ATOM      1  C   UNL     1       1.845   8.156  19.576  0.00  0.00    +0.000 A 
ATOM      2  C   UNL     1       1.355   8.375  20.868  0.00  0.00    +0.000 A 
ATOM      3  C   UNL     1       0.621   9.577  21.248  0.00  0.00    +0.000 A 
ATOM      4  C   UNL     1       0.350  10.645  20.371  0.00  0.00    +0.000 A 
ATOM      5  C   UNL     1       0.759  10.360  19.045  0.00  0.00    +0.000 A 
ATOM      6  C   UNL     1       1.493   9.164  18.663  0.00  0.00    +0.000 A 
ENDROOT
BRANCH   1  10
ATOM      7  N   UNL     1       3.523   4.776  19.108  0.00  0.00    +0.000 N 
ATOM      8  C   UNL     1       2.637   5.727  19.594  0.00  0.00    +0.000 C 
ATOM      9  O   UNL     1       1.783   5.305  20.380  0.00  0.00    +0.000 OA
ATOM     10  N   UNL     1       2.677   7.030  19.143  0.00  0.00    +0.000 N 
ATOM     11  H   UNL     1       3.189   3.859  19.403  0.00  0.00    +0.000 HD
ATOM     12  H   UNL     1       3.223   7.175  18.307  0.00  0.00    +0.000 HD
BRANCH   7  17
ATOM     13  C   UNL     1       6.067   4.116  16.402  0.00  0.00    +0.000 A 
ATOM     14  C   UNL     1       7.220   4.604  17.006  0.00  0.00    +0.000 A 
ATOM     15  C   UNL     1       7.177   5.101  18.312  0.00  0.00    +0.000 A 
ATOM     16  C   UNL     1       5.966   5.156  19.017  0.00  0.00    +0.000 A 
ATOM     17  C   UNL     1       4.778   4.733  18.432  0.00  0.00    +0.000 A 
ATOM     18  C   UNL     1       4.852   4.167  17.116  0.00  0.00    +0.000 A 
BRANCH  13  20
ATOM     19  C   UNL     1       6.610   4.628  14.127  0.00  0.00    +0.000 C 
ATOM     20  O   UNL     1       6.273   3.671  15.120  0.00  0.00    +0.000 OA
ENDBRANCH  13  20
ENDBRANCH   7  17
ENDBRANCH   1  10
BRANCH   4  21
ATOM     21  N   UNL     1      -0.318  11.937  20.692  0.00  0.00    +0.000 N 
ATOM     22  H   UNL     1      -0.749  11.807  21.607  0.00  0.00    +0.000 HD
BRANCH  21  23
ATOM     23  C   UNL     1      -1.296  12.772  19.906  0.00  0.00    +0.000 A 
ATOM     24  N   UNL     1      -0.941  14.029  19.899  0.00  0.00    +0.000 NA
ATOM     25  C   UNL     1      -1.689  14.770  20.709  0.00  0.00    +0.000 A 
ATOM     26  N   UNL     1      -2.812  14.373  21.316  0.00  0.00    +0.000 NA
ATOM     27  C   UNL     1      -3.383  13.275  20.829  0.00  0.00    +0.000 A 
ATOM     28  C   UNL     1      -4.745  13.187  21.132  0.00  0.00    +0.000 A 
ATOM     29  C   UNL     1      -5.705  12.547  20.336  0.00  0.00    +0.000 A 
ATOM     30  C   UNL     1      -5.254  11.977  19.152  0.00  0.00    +0.000 A 
ATOM     31  C   UNL     1      -3.808  11.886  18.960  0.00  0.00    +0.000 A 
ATOM     32  C   UNL     1      -2.765  12.462  19.899  0.00  0.00    +0.000 A 
BRANCH  29  33
ATOM     33  O   UNL     1      -7.034  12.544  20.661  0.00  0.00    +0.000 OA
ATOM     34  C   UNL     1      -7.748  13.779  20.574  0.00  0.00    +0.000 C 
ENDBRANCH  29  33
BRANCH  30  35
ATOM     35  O   UNL     1      -6.064  11.567  18.100  0.00  0.00    +0.000 OA
ATOM     36  C   UNL     1      -6.605  12.508  17.143  0.00  0.00    +0.000 C 
ENDBRANCH  30  35
ENDBRANCH  21  23
ENDBRANCH   4  21
TORSDOF 7
ENDMDL
MODEL 7
REMARK VINA RESULT:      -7.9      2.562      4.339
REMARK  Name = 
REMARK  10 active torsions:
REMARK  status: ('A' for Active; 'I' for Inactive)
REMARK    1  A    between atoms: C_1  and  O_2
REMARK    2  A    between atoms: O_2  and  C_3
REMARK    3  A    between atoms: C_7  and  N_8
REMARK    4  A    between atoms: N_11  and  C_12
REMARK    5  A    between atoms: C_15  and  N_16
REMARK    6  A    between atoms: N_16  and  C_17
REMARK    7  A    between atoms: C_23  and  O_24
REMARK    8  A    between atoms: O_24  and  C_25
REMARK    9  A    between atoms: C_26  and  O_27
REMARK   10  A    between atoms: O_27  and  C_28
REMARK                            x       y       z     vdW  Elec       q    Type
REMARK                         _______ _______ _______ _____ _____    ______ ____
ROOT
ATOM      1  C   UNL     1       4.193   5.839  17.722  0.00  0.00    +0.000 A 
ATOM      2  C   UNL     1       3.739   5.112  18.828  0.00  0.00    +0.000 A 
ATOM      3  C   UNL     1       2.855   5.675  19.842  0.00  0.00    +0.000 A 
ATOM      4  C   UNL     1       2.387   7.004  19.830  0.00  0.00    +0.000 A 
ATOM      5  C   UNL     1       2.769   7.690  18.651  0.00  0.00    +0.000 A 
ATOM      6  C   UNL     1       3.653   7.133  17.638  0.00  0.00    +0.000 A 
ENDROOT
BRANCH   1  10
ATOM      7  N   UNL     1       7.323   4.956  15.752  0.00  0.00    +0.000 N 
ATOM      8  C   UNL     1       6.538   5.393  16.808  0.00  0.00    +0.000 C 
ATOM      9  O   UNL     1       7.151   5.710  17.832  0.00  0.00    +0.000 OA
ATOM     10  N   UNL     1       5.161   5.381  16.720  0.00  0.00    +0.000 N 
ATOM     11  H   UNL     1       8.277   4.848  16.096  0.00  0.00    +0.000 HD
ATOM     12  H   UNL     1       4.788   4.842  15.954  0.00  0.00    +0.000 HD
BRANCH   7  17
ATOM     13  C   UNL     1       6.127   3.469  12.497  0.00  0.00    +0.000 A 
ATOM     14  C   UNL     1       6.873   4.207  11.586  0.00  0.00    +0.000 A 
ATOM     15  C   UNL     1       7.802   5.152  12.034  0.00  0.00    +0.000 A 
ATOM     16  C   UNL     1       7.964   5.402  13.404  0.00  0.00    +0.000 A 
ATOM     17  C   UNL     1       7.197   4.730  14.350  0.00  0.00    +0.000 A 
ATOM     18  C   UNL     1       6.297   3.720  13.875  0.00  0.00    +0.000 A 
BRANCH  13  20
ATOM     19  C   UNL     1       5.799   1.449  11.257  0.00  0.00    +0.000 C 
ATOM     20  O   UNL     1       5.257   2.591  11.902  0.00  0.00    +0.000 OA
ENDBRANCH  13  20
ENDBRANCH   7  17
ENDBRANCH   1  10
BRANCH   4  21
ATOM     21  N   UNL     1       1.552   7.682  20.859  0.00  0.00    +0.000 N 
ATOM     22  H   UNL     1       0.588   7.420  20.652  0.00  0.00    +0.000 HD
BRANCH  21  23
ATOM     23  C   UNL     1       1.486   9.124  21.294  0.00  0.00    +0.000 A 
ATOM     24  N   UNL     1       1.573   9.227  22.593  0.00  0.00    +0.000 NA
ATOM     25  C   UNL     1       0.403   9.500  23.158  0.00  0.00    +0.000 A 
ATOM     26  N   UNL     1      -0.715   9.845  22.512  0.00  0.00    +0.000 NA
ATOM     27  C   UNL     1      -0.561  10.249  21.253  0.00  0.00    +0.000 A 
ATOM     28  C   UNL     1      -1.617  11.046  20.802  0.00  0.00    +0.000 A 
ATOM     29  C   UNL     1      -1.506  12.056  19.837  0.00  0.00    +0.000 A 
ATOM     30  C   UNL     1      -0.238  12.280  19.313  0.00  0.00    +0.000 A 
ATOM     31  C   UNL     1       0.801  11.303  19.629  0.00  0.00    +0.000 A 
ATOM     32  C   UNL     1       0.633  10.125  20.570  0.00  0.00    +0.000 A 
BRANCH  29  33
ATOM     33  O   UNL     1      -2.568  12.840  19.479  0.00  0.00    +0.000 OA
ATOM     34  C   UNL     1      -3.794  12.191  19.133  0.00  0.00    +0.000 C 
ENDBRANCH  29  33
BRANCH  30  35
ATOM     35  O   UNL     1       0.141  13.403  18.586  0.00  0.00    +0.000 OA
ATOM     36  C   UNL     1       1.208  14.274  19.030  0.00  0.00    +0.000 C 
ENDBRANCH  30  35
ENDBRANCH  21  23
ENDBRANCH   4  21
TORSDOF 7
ENDMDL
MODEL 8
REMARK VINA RESULT:      -7.8      1.238      1.645
REMARK  Name = 
REMARK  10 active torsions:
REMARK  status: ('A' for Active; 'I' for Inactive)
REMARK    1  A    between atoms: C_1  and  O_2
REMARK    2  A    between atoms: O_2  and  C_3
REMARK    3  A    between atoms: C_7  and  N_8
REMARK    4  A    between atoms: N_11  and  C_12
REMARK    5  A    between atoms: C_15  and  N_16
REMARK    6  A    between atoms: N_16  and  C_17
REMARK    7  A    between atoms: C_23  and  O_24
REMARK    8  A    between atoms: O_24  and  C_25
REMARK    9  A    between atoms: C_26  and  O_27
REMARK   10  A    between atoms: O_27  and  C_28
REMARK                            x       y       z     vdW  Elec       q    Type
REMARK                         _______ _______ _______ _____ _____    ______ ____
ROOT
ATOM      1  C   UNL     1       2.671   7.354  18.517  0.00  0.00    +0.000 A 
ATOM      2  C   UNL     1       2.236   7.402  19.847  0.00  0.00    +0.000 A 
ATOM      3  C   UNL     1       1.419   8.487  20.378  0.00  0.00    +0.000 A 
ATOM      4  C   UNL     1       1.003   9.602  19.625  0.00  0.00    +0.000 A 
ATOM      5  C   UNL     1       1.361   9.484  18.259  0.00  0.00    +0.000 A 
ATOM      6  C   UNL     1       2.178   8.405  17.726  0.00  0.00    +0.000 A 
ENDROOT
BRANCH   1  10
ATOM      7  N   UNL     1       5.355   4.737  17.880  0.00  0.00    +0.000 N 
ATOM      8  C   UNL     1       4.547   5.620  18.581  0.00  0.00    +0.000 C 
ATOM      9  O   UNL     1       4.708   5.631  19.806  0.00  0.00    +0.000 OA
ATOM     10  N   UNL     1       3.576   6.359  17.936  0.00  0.00    +0.000 N 
ATOM     11  H   UNL     1       5.841   4.153  18.560  0.00  0.00    +0.000 HD
ATOM     12  H   UNL     1       3.360   6.052  17.000  0.00  0.00    +0.000 HD
BRANCH   7  17
ATOM     13  C   UNL     1       7.264   5.087  14.645  0.00  0.00    +0.000 A 
ATOM     14  C   UNL     1       6.645   4.111  13.874  0.00  0.00    +0.000 A 
ATOM     15  C   UNL     1       5.574   3.375  14.390  0.00  0.00    +0.000 A 
ATOM     16  C   UNL     1       5.136   3.577  15.706  0.00  0.00    +0.000 A 
ATOM     17  C   UNL     1       5.762   4.502  16.534  0.00  0.00    +0.000 A 
ATOM     18  C   UNL     1       6.816   5.292  15.967  0.00  0.00    +0.000 A 
BRANCH  13  20
ATOM     19  C   UNL     1       8.287   5.736  12.581  0.00  0.00    +0.000 C 
ATOM     20  O   UNL     1       8.300   5.714  14.000  0.00  0.00    +0.000 OA
ENDBRANCH  13  20
ENDBRANCH   7  17
ENDBRANCH   1  10
BRANCH   4  21
ATOM     21  N   UNL     1       0.239  10.788  20.103  0.00  0.00    +0.000 N 
ATOM     22  H   UNL     1      -0.431  10.431  20.783  0.00  0.00    +0.000 HD
BRANCH  21  23
ATOM     23  C   UNL     1      -0.495  11.868  19.349  0.00  0.00    +0.000 A 
ATOM     24  N   UNL     1      -0.429  13.009  19.981  0.00  0.00    +0.000 NA
ATOM     25  C   UNL     1      -1.569  13.319  20.587  0.00  0.00    +0.000 A 
ATOM     26  N   UNL     1      -2.735  12.683  20.429  0.00  0.00    +0.000 NA
ATOM     27  C   UNL     1      -2.831  11.896  19.360  0.00  0.00    +0.000 A 
ATOM     28  C   UNL     1      -4.153  11.668  18.966  0.00  0.00    +0.000 A 
ATOM     29  C   UNL     1      -4.567  11.422  17.651  0.00  0.00    +0.000 A 
ATOM     30  C   UNL     1      -3.579  11.425  16.674  0.00  0.00    +0.000 A 
ATOM     31  C   UNL     1      -2.189  11.444  17.127  0.00  0.00    +0.000 A 
ATOM     32  C   UNL     1      -1.745  11.572  18.572  0.00  0.00    +0.000 A 
BRANCH  29  33
ATOM     33  O   UNL     1      -5.886  11.262  17.321  0.00  0.00    +0.000 OA
ATOM     34  C   UNL     1      -6.811  10.981  18.374  0.00  0.00    +0.000 C 
ENDBRANCH  29  33
BRANCH  30  35
ATOM     35  O   UNL     1      -3.805  11.498  15.305  0.00  0.00    +0.000 OA
ATOM     36  C   UNL     1      -3.751  10.325  14.459  0.00  0.00    +0.000 C 
ENDBRANCH  30  35
ENDBRANCH  21  23
ENDBRANCH   4  21
TORSDOF 7
ENDMDL
MODEL 9
REMARK VINA RESULT:      -7.8      1.787      2.372
REMARK  Name = 
REMARK  10 active torsions:
REMARK  status: ('A' for Active; 'I' for Inactive)
REMARK    1  A    between atoms: C_1  and  O_2
REMARK    2  A    between atoms: O_2  and  C_3
REMARK    3  A    between atoms: C_7  and  N_8
REMARK    4  A    between atoms: N_11  and  C_12
REMARK    5  A    between atoms: C_15  and  N_16
REMARK    6  A    between atoms: N_16  and  C_17
REMARK    7  A    between atoms: C_23  and  O_24
REMARK    8  A    between atoms: O_24  and  C_25
REMARK    9  A    between atoms: C_26  and  O_27
REMARK   10  A    between atoms: O_27  and  C_28
REMARK                            x       y       z     vdW  Elec       q    Type
REMARK                         _______ _______ _______ _____ _____    ______ ____
ROOT
ATOM      1  C   UNL     1       1.679   8.103  20.107  0.00  0.00    +0.000 A 
ATOM      2  C   UNL     1       1.363   8.118  21.471  0.00  0.00    +0.000 A 
ATOM      3  C   UNL     1       0.713   9.247  22.125  0.00  0.00    +0.000 A 
ATOM      4  C   UNL     1       0.358  10.441  21.467  0.00  0.00    +0.000 A 
ATOM      5  C   UNL     1       0.587  10.367  20.071  0.00  0.00    +0.000 A 
ATOM      6  C   UNL     1       1.238   9.243  19.415  0.00  0.00    +0.000 A 
ENDROOT
BRANCH   1  10
ATOM      7  N   UNL     1       3.392   4.884  19.029  0.00  0.00    +0.000 N 
ATOM      8  C   UNL     1       2.629   5.751  19.797  0.00  0.00    +0.000 C 
ATOM      9  O   UNL     1       2.098   5.252  20.795  0.00  0.00    +0.000 OA
ATOM     10  N   UNL     1       2.422   7.056  19.400  0.00  0.00    +0.000 N 
ATOM     11  H   UNL     1       3.241   3.939  19.383  0.00  0.00    +0.000 HD
ATOM     12  H   UNL     1       2.668   7.253  18.442  0.00  0.00    +0.000 HD
BRANCH   7  17
ATOM     13  C   UNL     1       6.525   5.888  17.184  0.00  0.00    +0.000 A 
ATOM     14  C   UNL     1       6.378   5.160  16.009  0.00  0.00    +0.000 A 
ATOM     15  C   UNL     1       5.235   4.383  15.798  0.00  0.00    +0.000 A 
ATOM     16  C   UNL     1       4.241   4.290  16.782  0.00  0.00    +0.000 A 
ATOM     17  C   UNL     1       4.373   4.954  17.997  0.00  0.00    +0.000 A 
ATOM     18  C   UNL     1       5.520   5.797  18.169  0.00  0.00    +0.000 A 
BRANCH  13  20
ATOM     19  C   UNL     1       7.638   7.972  17.573  0.00  0.00    +0.000 C 
ATOM     20  O   UNL     1       7.701   6.593  17.242  0.00  0.00    +0.000 OA
ENDBRANCH  13  20
ENDBRANCH   7  17
ENDBRANCH   1  10
BRANCH   4  21
ATOM     21  N   UNL     1      -0.233  11.669  22.068  0.00  0.00    +0.000 N 
ATOM     22  H   UNL     1      -0.752  11.355  22.887  0.00  0.00    +0.000 HD
BRANCH  21  23
ATOM     23  C   UNL     1      -1.070  12.768  21.465  0.00  0.00    +0.000 A 
ATOM     24  N   UNL     1      -0.807  13.919  22.024  0.00  0.00    +0.000 NA
ATOM     25  C   UNL     1      -1.762  14.303  22.863  0.00  0.00    +0.000 A 
ATOM     26  N   UNL     1      -2.961  13.727  22.997  0.00  0.00    +0.000 NA
ATOM     27  C   UNL     1      -3.337  12.921  22.007  0.00  0.00    +0.000 A 
ATOM     28  C   UNL     1      -4.723  12.755  21.934  0.00  0.00    +0.000 A 
ATOM     29  C   UNL     1      -5.439  12.500  20.758  0.00  0.00    +0.000 A 
ATOM     30  C   UNL     1      -4.702  12.427  19.581  0.00  0.00    +0.000 A 
ATOM     31  C   UNL     1      -3.247  12.383  19.704  0.00  0.00    +0.000 A 
ATOM     32  C   UNL     1      -2.477  12.521  21.004  0.00  0.00    +0.000 A 
BRANCH  29  33
ATOM     33  O   UNL     1      -6.804  12.403  20.743  0.00  0.00    +0.000 OA
ATOM     34  C   UNL     1      -7.385  11.099  20.826  0.00  0.00    +0.000 C 
ENDBRANCH  29  33
BRANCH  30  35
ATOM     35  O   UNL     1      -5.233  12.480  18.298  0.00  0.00    +0.000 OA
ATOM     36  C   UNL     1      -5.526  11.280  17.544  0.00  0.00    +0.000 C 
ENDBRANCH  30  35
ENDBRANCH  21  23
ENDBRANCH   4  21
TORSDOF 7
ENDMDL
