MODEL 1
REMARK VINA RESULT:      -7.8      0.000      0.000
REMARK  Name = 
REMARK  4 active torsions:
REMARK  status: ('A' for Active; 'I' for Inactive)
REMARK    1  A    between atoms: N_20  and  C_21
REMARK    2  A    between atoms: C_21  and  C_22
REMARK    3  A    between atoms: C_22  and  C_23
REMARK    4  A    between atoms: C_23  and  N_24
REMARK                            x       y       z     vdW  Elec       q    Type
REMARK                         _______ _______ _______ _____ _____    ______ ____
ROOT
ATOM      1  O   UNL     1      -1.983  10.298  17.146  0.00  0.00    +0.000 OA
ATOM      2  C   UNL     1      -2.292  11.004  18.075  0.00  0.00    +0.000 C 
ATOM      3  C   UNL     1      -3.600  11.586  18.303  0.00  0.00    +0.000 A 
ATOM      4  C   UNL     1      -4.672  11.540  17.427  0.00  0.00    +0.000 A 
ATOM      5  C   UNL     1      -5.751  12.287  17.810  0.00  0.00    +0.000 A 
ATOM      6  C   UNL     1      -5.777  12.961  19.020  0.00  0.00    +0.000 A 
ATOM      7  C   UNL     1      -4.722  12.934  19.927  0.00  0.00    +0.000 A 
ATOM      8  C   UNL     1      -3.569  12.255  19.544  0.00  0.00    +0.000 A 
ATOM      9  C   UNL     1      -2.238  12.027  20.143  0.00  0.00    +0.000 A 
ATOM     10  C   UNL     1      -1.470  11.389  19.243  0.00  0.00    +0.000 A 
ATOM     11  C   UNL     1      -0.179  10.827  19.586  0.00  0.00    +0.000 A 
ATOM     12  C   UNL     1       0.600  10.196  18.621  0.00  0.00    +0.000 A 
ATOM     13  C   UNL     1       1.260   9.029  18.979  0.00  0.00    +0.000 A 
ATOM     14  C   UNL     1       1.361   8.694  20.325  0.00  0.00    +0.000 A 
ATOM     15  F   UNL     1       1.957   7.542  20.662  0.00  0.00    +0.000 F 
ATOM     16  C   UNL     1       0.862   9.536  21.319  0.00  0.00    +0.000 A 
ATOM     17  C   UNL     1       0.041  10.605  20.943  0.00  0.00    +0.000 A 
ATOM     18  C   UNL     1      -0.698  11.470  21.932  0.00  0.00    +0.000 A 
ATOM     19  O   UNL     1      -0.318  11.430  23.096  0.00  0.00    +0.000 OA
ATOM     20  N   UNL     1      -1.781  12.241  21.443  0.00  0.00    +0.000 N 
ATOM     21  O   UNL     1      -6.926  13.677  19.171  0.00  0.00    +0.000 OA
ATOM     22  C   UNL     1      -7.568  13.447  17.896  0.00  0.00    +0.000 C 
ATOM     23  O   UNL     1      -6.877  12.483  17.077  0.00  0.00    +0.000 OA
ENDROOT
BRANCH  20  24
ATOM     24  C   UNL     1      -2.558  13.054  22.384  0.00  0.00    +0.000 C 
BRANCH  24  25
ATOM     25  C   UNL     1      -3.560  12.348  23.314  0.00  0.00    +0.000 C 
BRANCH  25  26
ATOM     26  C   UNL     1      -4.392  13.331  24.125  0.00  0.00    +0.000 C 
BRANCH  26  27
ATOM     27  N   UNL     1      -5.801  13.260  23.771  0.00  0.00    +0.000 N 
ATOM     28  C   UNL     1      -6.438  14.000  22.815  0.00  0.00    +0.000 A 
ATOM     29  C   UNL     1      -7.744  13.578  22.856  0.00  0.00    +0.000 A 
ATOM     30  N   UNL     1      -7.913  12.613  23.817  0.00  0.00    +0.000 NA
ATOM     31  C   UNL     1      -6.726  12.437  24.349  0.00  0.00    +0.000 A 
ENDBRANCH  26  27
ENDBRANCH  25  26
ENDBRANCH  24  25
ENDBRANCH  20  24
TORSDOF 4
ENDMDL
MODEL 2
REMARK VINA RESULT:      -7.7      1.165      1.538
REMARK  Name = 
REMARK  4 active torsions:
REMARK  status: ('A' for Active; 'I' for Inactive)
REMARK    1  A    between atoms: N_20  and  C_21
REMARK    2  A    between atoms: C_21  and  C_22
REMARK    3  A    between atoms: C_22  and  C_23
REMARK    4  A    between atoms: C_23  and  N_24
REMARK                            x       y       z     vdW  Elec       q    Type
REMARK                         _______ _______ _______ _____ _____    ______ ____
ROOT
ATOM      1  O   UNL     1      -1.295   9.840  16.837  0.00  0.00    +0.000 OA
ATOM      2  C   UNL     1      -1.547  10.440  17.855  0.00  0.00    +0.000 C 
ATOM      3  C   UNL     1      -2.814  11.063  18.182  0.00  0.00    +0.000 A 
ATOM      4  C   UNL     1      -3.899  11.191  17.331  0.00  0.00    +0.000 A 
ATOM      5  C   UNL     1      -4.926  11.945  17.828  0.00  0.00    +0.000 A 
ATOM      6  C   UNL     1      -4.894  12.460  19.113  0.00  0.00    +0.000 A 
ATOM      7  C   UNL     1      -3.829  12.257  19.987  0.00  0.00    +0.000 A 
ATOM      8  C   UNL     1      -2.725  11.566  19.496  0.00  0.00    +0.000 A 
ATOM      9  C   UNL     1      -1.402  11.187  20.032  0.00  0.00    +0.000 A 
ATOM     10  C   UNL     1      -0.687  10.624  19.043  0.00  0.00    +0.000 A 
ATOM     11  C   UNL     1       0.572   9.950  19.284  0.00  0.00    +0.000 A 
ATOM     12  C   UNL     1       1.298   9.402  18.231  0.00  0.00    +0.000 A 
ATOM     13  C   UNL     1       1.891   8.162  18.425  0.00  0.00    +0.000 A 
ATOM     14  C   UNL     1       1.991   7.654  19.715  0.00  0.00    +0.000 A 
ATOM     15  F   UNL     1       2.521   6.436  19.892  0.00  0.00    +0.000 F 
ATOM     16  C   UNL     1       1.558   8.391  20.818  0.00  0.00    +0.000 A 
ATOM     17  C   UNL     1       0.798   9.545  20.598  0.00  0.00    +0.000 A 
ATOM     18  C   UNL     1       0.127  10.319  21.704  0.00  0.00    +0.000 A 
ATOM     19  O   UNL     1       0.521  10.110  22.845  0.00  0.00    +0.000 OA
ATOM     20  N   UNL     1      -0.914  11.208  21.339  0.00  0.00    +0.000 N 
ATOM     21  O   UNL     1      -5.995  13.217  19.379  0.00  0.00    +0.000 OA
ATOM     22  C   UNL     1      -6.668  13.189  18.099  0.00  0.00    +0.000 C 
ATOM     23  O   UNL     1      -6.048  12.298  17.151  0.00  0.00    +0.000 OA
ENDROOT
BRANCH  20  24
ATOM     24  C   UNL     1      -1.628  11.938  22.391  0.00  0.00    +0.000 C 
BRANCH  24  25
ATOM     25  C   UNL     1      -1.390  13.452  22.529  0.00  0.00    +0.000 C 
BRANCH  25  26
ATOM     26  C   UNL     1      -2.170  14.060  23.686  0.00  0.00    +0.000 C 
BRANCH  26  27
ATOM     27  N   UNL     1      -3.547  13.593  23.708  0.00  0.00    +0.000 N 
ATOM     28  C   UNL     1      -4.571  14.036  22.919  0.00  0.00    +0.000 A 
ATOM     29  C   UNL     1      -5.662  13.301  23.311  0.00  0.00    +0.000 A 
ATOM     30  N   UNL     1      -5.327  12.435  24.321  0.00  0.00    +0.000 NA
ATOM     31  C   UNL     1      -4.046  12.628  24.537  0.00  0.00    +0.000 A 
ENDBRANCH  26  27
ENDBRANCH  25  26
ENDBRANCH  24  25
ENDBRANCH  20  24
TORSDOF 4
ENDMDL
MODEL 3
REMARK VINA RESULT:      -7.5      2.373      3.577
REMARK  Name = 
REMARK  4 active torsions:
REMARK  status: ('A' for Active; 'I' for Inactive)
REMARK    1  A    between atoms: N_20  and  C_21
REMARK    2  A    between atoms: C_21  and  C_22
REMARK    3  A    between atoms: C_22  and  C_23
REMARK    4  A    between atoms: C_23  and  N_24
REMARK                            x       y       z     vdW  Elec       q    Type
REMARK                         _______ _______ _______ _____ _____    ______ ____
ROOT
ATOM      1  O   UNL     1      -1.558   9.964  16.826  0.00  0.00    +0.000 OA
ATOM      2  C   UNL     1      -1.837  10.613  17.805  0.00  0.00    +0.000 C 
ATOM      3  C   UNL     1      -3.126  11.213  18.088  0.00  0.00    +0.000 A 
ATOM      4  C   UNL     1      -4.207  11.256  17.224  0.00  0.00    +0.000 A 
ATOM      5  C   UNL     1      -5.262  12.004  17.671  0.00  0.00    +0.000 A 
ATOM      6  C   UNL     1      -5.256  12.595  18.923  0.00  0.00    +0.000 A 
ATOM      7  C   UNL     1      -4.192  12.477  19.813  0.00  0.00    +0.000 A 
ATOM      8  C   UNL     1      -3.063  11.795  19.370  0.00  0.00    +0.000 A 
ATOM      9  C   UNL     1      -1.732  11.492  19.935  0.00  0.00    +0.000 A 
ATOM     10  C   UNL     1      -0.992  10.895  18.985  0.00  0.00    +0.000 A 
ATOM     11  C   UNL     1       0.286  10.277  19.273  0.00  0.00    +0.000 A 
ATOM     12  C   UNL     1       1.038   9.692  18.258  0.00  0.00    +0.000 A 
ATOM     13  C   UNL     1       1.669   8.486  18.528  0.00  0.00    +0.000 A 
ATOM     14  C   UNL     1       1.775   8.058  19.847  0.00  0.00    +0.000 A 
ATOM     15  F   UNL     1       2.342   6.871  20.098  0.00  0.00    +0.000 F 
ATOM     16  C   UNL     1       1.310   8.844  20.902  0.00  0.00    +0.000 A 
ATOM     17  C   UNL     1       0.516   9.958  20.609  0.00  0.00    +0.000 A 
ATOM     18  C   UNL     1      -0.189  10.774  21.664  0.00  0.00    +0.000 A 
ATOM     19  O   UNL     1       0.203  10.644  22.817  0.00  0.00    +0.000 OA
ATOM     20  N   UNL     1      -1.255  11.605  21.241  0.00  0.00    +0.000 N 
ATOM     21  O   UNL     1      -6.383  13.330  19.137  0.00  0.00    +0.000 OA
ATOM     22  C   UNL     1      -7.045  13.204  17.858  0.00  0.00    +0.000 C 
ATOM     23  O   UNL     1      -6.390  12.280  16.967  0.00  0.00    +0.000 OA
ENDROOT
BRANCH  20  24
ATOM     24  C   UNL     1      -2.000  12.372  22.245  0.00  0.00    +0.000 C 
BRANCH  24  25
ATOM     25  C   UNL     1      -1.863  13.905  22.251  0.00  0.00    +0.000 C 
BRANCH  25  26
ATOM     26  C   UNL     1      -0.417  14.361  22.124  0.00  0.00    +0.000 C 
BRANCH  26  27
ATOM     27  N   UNL     1      -0.092  14.735  20.757  0.00  0.00    +0.000 N 
ATOM     28  C   UNL     1      -0.715  15.690  20.004  0.00  0.00    +0.000 A 
ATOM     29  C   UNL     1      -0.058  15.672  18.798  0.00  0.00    +0.000 A 
ATOM     30  N   UNL     1       0.936  14.726  18.801  0.00  0.00    +0.000 NA
ATOM     31  C   UNL     1       0.897  14.180  19.994  0.00  0.00    +0.000 A 
ENDBRANCH  26  27
ENDBRANCH  25  26
ENDBRANCH  24  25
ENDBRANCH  20  24
TORSDOF 4
ENDMDL
MODEL 4
REMARK VINA RESULT:      -7.4      1.245      1.686
REMARK  Name = 
REMARK  4 active torsions:
REMARK  status: ('A' for Active; 'I' for Inactive)
REMARK    1  A    between atoms: N_20  and  C_21
REMARK    2  A    between atoms: C_21  and  C_22
REMARK    3  A    between atoms: C_22  and  C_23
REMARK    4  A    between atoms: C_23  and  N_24
REMARK                            x       y       z     vdW  Elec       q    Type
REMARK                         _______ _______ _______ _____ _____    ______ ____
ROOT
ATOM      1  O   UNL     1      -2.003  10.204  16.923  0.00  0.00    +0.000 OA
ATOM      2  C   UNL     1      -2.269  10.897  17.875  0.00  0.00    +0.000 C 
ATOM      3  C   UNL     1      -3.566  11.471  18.173  0.00  0.00    +0.000 A 
ATOM      4  C   UNL     1      -4.679  11.430  17.350  0.00  0.00    +0.000 A 
ATOM      5  C   UNL     1      -5.741  12.169  17.794  0.00  0.00    +0.000 A 
ATOM      6  C   UNL     1      -5.711  12.828  19.012  0.00  0.00    +0.000 A 
ATOM      7  C   UNL     1      -4.612  12.794  19.866  0.00  0.00    +0.000 A 
ATOM      8  C   UNL     1      -3.477  12.125  19.419  0.00  0.00    +0.000 A 
ATOM      9  C   UNL     1      -2.118  11.895  19.949  0.00  0.00    +0.000 A 
ATOM     10  C   UNL     1      -1.392  11.271  19.005  0.00  0.00    +0.000 A 
ATOM     11  C   UNL     1      -0.084  10.711  19.278  0.00  0.00    +0.000 A 
ATOM     12  C   UNL     1       0.649  10.095  18.269  0.00  0.00    +0.000 A 
ATOM     13  C   UNL     1       1.330   8.926  18.580  0.00  0.00    +0.000 A 
ATOM     14  C   UNL     1       1.498   8.575  19.915  0.00  0.00    +0.000 A 
ATOM     15  F   UNL     1       2.113   7.422  20.209  0.00  0.00    +0.000 F 
ATOM     16  C   UNL     1       1.045   9.403  20.943  0.00  0.00    +0.000 A 
ATOM     17  C   UNL     1       0.203  10.474  20.620  0.00  0.00    +0.000 A 
ATOM     18  C   UNL     1      -0.490  11.324  21.655  0.00  0.00    +0.000 A 
ATOM     19  O   UNL     1      -0.053  11.271  22.798  0.00  0.00    +0.000 OA
ATOM     20  N   UNL     1      -1.598  12.096  21.228  0.00  0.00    +0.000 N 
ATOM     21  O   UNL     1      -6.854  13.537  19.228  0.00  0.00    +0.000 OA
ATOM     22  C   UNL     1      -7.556  13.320  17.983  0.00  0.00    +0.000 C 
ATOM     23  O   UNL     1      -6.903  12.369  17.120  0.00  0.00    +0.000 OA
ENDROOT
BRANCH  20  24
ATOM     24  C   UNL     1      -2.332  12.894  22.216  0.00  0.00    +0.000 C 
BRANCH  24  25
ATOM     25  C   UNL     1      -3.048  12.166  23.366  0.00  0.00    +0.000 C 
BRANCH  25  26
ATOM     26  C   UNL     1      -4.346  12.851  23.770  0.00  0.00    +0.000 C 
BRANCH  26  27
ATOM     27  N   UNL     1      -4.118  14.223  24.192  0.00  0.00    +0.000 N 
ATOM     28  C   UNL     1      -4.798  15.330  23.766  0.00  0.00    +0.000 A 
ATOM     29  C   UNL     1      -4.224  16.378  24.442  0.00  0.00    +0.000 A 
ATOM     30  N   UNL     1      -3.210  15.935  25.256  0.00  0.00    +0.000 NA
ATOM     31  C   UNL     1      -3.173  14.633  25.089  0.00  0.00    +0.000 A 
ENDBRANCH  26  27
ENDBRANCH  25  26
ENDBRANCH  24  25
ENDBRANCH  20  24
TORSDOF 4
ENDMDL
MODEL 5
REMARK VINA RESULT:      -7.4      2.858      6.718
REMARK  Name = 
REMARK  4 active torsions:
REMARK  status: ('A' for Active; 'I' for Inactive)
REMARK    1  A    between atoms: N_20  and  C_21
REMARK    2  A    between atoms: C_21  and  C_22
REMARK    3  A    between atoms: C_22  and  C_23
REMARK    4  A    between atoms: C_23  and  N_24
REMARK                            x       y       z     vdW  Elec       q    Type
REMARK                         _______ _______ _______ _____ _____    ______ ____
ROOT
ATOM      1  O   UNL     1      -0.334  10.353  23.487  0.00  0.00    +0.000 OA
ATOM      2  C   UNL     1      -0.463  10.609  22.314  0.00  0.00    +0.000 C 
ATOM      3  C   UNL     1       0.108   9.860  21.212  0.00  0.00    +0.000 A 
ATOM      4  C   UNL     1       1.002   8.809  21.324  0.00  0.00    +0.000 A 
ATOM      5  C   UNL     1       1.504   8.361  20.133  0.00  0.00    +0.000 A 
ATOM      6  C   UNL     1       1.075   8.879  18.922  0.00  0.00    +0.000 A 
ATOM      7  C   UNL     1       0.116   9.883  18.823  0.00  0.00    +0.000 A 
ATOM      8  C   UNL     1      -0.362  10.428  20.011  0.00  0.00    +0.000 A 
ATOM      9  C   UNL     1      -1.305  11.509  20.364  0.00  0.00    +0.000 A 
ATOM     10  C   UNL     1      -1.280  11.676  21.698  0.00  0.00    +0.000 A 
ATOM     11  C   UNL     1      -2.242  12.508  22.392  0.00  0.00    +0.000 A 
ATOM     12  C   UNL     1      -2.169  12.678  23.771  0.00  0.00    +0.000 A 
ATOM     13  C   UNL     1      -3.356  12.665  24.491  0.00  0.00    +0.000 A 
ATOM     14  C   UNL     1      -4.563  12.776  23.810  0.00  0.00    +0.000 A 
ATOM     15  F   UNL     1      -5.706  12.715  24.506  0.00  0.00    +0.000 F 
ATOM     16  C   UNL     1      -4.599  12.956  22.427  0.00  0.00    +0.000 A 
ATOM     17  C   UNL     1      -3.418  12.780  21.697  0.00  0.00    +0.000 A 
ATOM     18  C   UNL     1      -3.370  12.771  20.190  0.00  0.00    +0.000 A 
ATOM     19  O   UNL     1      -4.335  13.243  19.601  0.00  0.00    +0.000 OA
ATOM     20  N   UNL     1      -2.226  12.201  19.578  0.00  0.00    +0.000 N 
ATOM     21  O   UNL     1       1.742   8.322  17.873  0.00  0.00    +0.000 OA
ATOM     22  C   UNL     1       2.686   7.472  18.562  0.00  0.00    +0.000 C 
ATOM     23  O   UNL     1       2.466   7.414  19.986  0.00  0.00    +0.000 OA
ENDROOT
BRANCH  20  24
ATOM     24  C   UNL     1      -2.166  12.124  18.115  0.00  0.00    +0.000 C 
BRANCH  24  25
ATOM     25  C   UNL     1      -2.925  10.990  17.404  0.00  0.00    +0.000 C 
BRANCH  25  26
ATOM     26  C   UNL     1      -4.013  11.510  16.476  0.00  0.00    +0.000 C 
BRANCH  26  27
ATOM     27  N   UNL     1      -5.293  11.614  17.157  0.00  0.00    +0.000 N 
ATOM     28  C   UNL     1      -6.198  12.631  17.037  0.00  0.00    +0.000 A 
ATOM     29  C   UNL     1      -7.234  12.279  17.868  0.00  0.00    +0.000 A 
ATOM     30  N   UNL     1      -6.973  11.085  18.492  0.00  0.00    +0.000 NA
ATOM     31  C   UNL     1      -5.800  10.704  18.041  0.00  0.00    +0.000 A 
ENDBRANCH  26  27
ENDBRANCH  25  26
ENDBRANCH  24  25
ENDBRANCH  20  24
TORSDOF 4
ENDMDL
MODEL 6
REMARK VINA RESULT:      -7.3      2.154      2.843
REMARK  Name = 
REMARK  4 active torsions:
REMARK  status: ('A' for Active; 'I' for Inactive)
REMARK    1  A    between atoms: N_20  and  C_21
REMARK    2  A    between atoms: C_21  and  C_22
REMARK    3  A    between atoms: C_22  and  C_23
REMARK    4  A    between atoms: C_23  and  N_24
REMARK                            x       y       z     vdW  Elec       q    Type
REMARK                         _______ _______ _______ _____ _____    ______ ____
ROOT
ATOM      1  O   UNL     1      -1.530   9.878  16.830  0.00  0.00    +0.000 OA
ATOM      2  C   UNL     1      -1.797  10.543  17.803  0.00  0.00    +0.000 C 
ATOM      3  C   UNL     1      -3.072  11.175  18.077  0.00  0.00    +0.000 A 
ATOM      4  C   UNL     1      -4.150  11.234  17.210  0.00  0.00    +0.000 A 
ATOM      5  C   UNL     1      -5.188  12.010  17.647  0.00  0.00    +0.000 A 
ATOM      6  C   UNL     1      -5.172  12.612  18.893  0.00  0.00    +0.000 A 
ATOM      7  C   UNL     1      -4.113  12.479  19.788  0.00  0.00    +0.000 A 
ATOM      8  C   UNL     1      -2.999  11.767  19.354  0.00  0.00    +0.000 A 
ATOM      9  C   UNL     1      -1.677  11.437  19.926  0.00  0.00    +0.000 A 
ATOM     10  C   UNL     1      -0.949  10.816  18.983  0.00  0.00    +0.000 A 
ATOM     11  C   UNL     1       0.314  10.171  19.280  0.00  0.00    +0.000 A 
ATOM     12  C   UNL     1       1.054   9.560  18.272  0.00  0.00    +0.000 A 
ATOM     13  C   UNL     1       1.657   8.342  18.555  0.00  0.00    +0.000 A 
ATOM     14  C   UNL     1       1.749   7.923  19.878  0.00  0.00    +0.000 A 
ATOM     15  F   UNL     1       2.289   6.725  20.141  0.00  0.00    +0.000 F 
ATOM     16  C   UNL     1       1.301   8.729  20.924  0.00  0.00    +0.000 A 
ATOM     17  C   UNL     1       0.533   9.859  20.620  0.00  0.00    +0.000 A 
ATOM     18  C   UNL     1      -0.155  10.700  21.665  0.00  0.00    +0.000 A 
ATOM     19  O   UNL     1       0.231  10.572  22.821  0.00  0.00    +0.000 OA
ATOM     20  N   UNL     1      -1.201  11.552  21.232  0.00  0.00    +0.000 N 
ATOM     21  O   UNL     1      -6.282  13.375  19.098  0.00  0.00    +0.000 OA
ATOM     22  C   UNL     1      -6.943  13.253  17.818  0.00  0.00    +0.000 C 
ATOM     23  O   UNL     1      -6.308  12.306  16.938  0.00  0.00    +0.000 OA
ENDROOT
BRANCH  20  24
ATOM     24  C   UNL     1      -1.930  12.345  22.226  0.00  0.00    +0.000 C 
BRANCH  24  25
ATOM     25  C   UNL     1      -1.828  13.879  22.165  0.00  0.00    +0.000 C 
BRANCH  25  26
ATOM     26  C   UNL     1      -2.730  14.563  23.181  0.00  0.00    +0.000 C 
BRANCH  26  27
ATOM     27  N   UNL     1      -1.964  15.143  24.273  0.00  0.00    +0.000 N 
ATOM     28  C   UNL     1      -2.342  15.214  25.584  0.00  0.00    +0.000 A 
ATOM     29  C   UNL     1      -1.298  15.841  26.218  0.00  0.00    +0.000 A 
ATOM     30  N   UNL     1      -0.307  16.159  25.324  0.00  0.00    +0.000 NA
ATOM     31  C   UNL     1      -0.732  15.722  24.161  0.00  0.00    +0.000 A 
ENDBRANCH  26  27
ENDBRANCH  25  26
ENDBRANCH  24  25
ENDBRANCH  20  24
TORSDOF 4
ENDMDL
MODEL 7
REMARK VINA RESULT:      -7.3      1.677      1.902
REMARK  Name = 
REMARK  4 active torsions:
REMARK  status: ('A' for Active; 'I' for Inactive)
REMARK    1  A    between atoms: N_20  and  C_21
REMARK    2  A    between atoms: C_21  and  C_22
REMARK    3  A    between atoms: C_22  and  C_23
REMARK    4  A    between atoms: C_23  and  N_24
REMARK                            x       y       z     vdW  Elec       q    Type
REMARK                         _______ _______ _______ _____ _____    ______ ____
ROOT
ATOM      1  O   UNL     1      -1.367   9.957  16.917  0.00  0.00    +0.000 OA
ATOM      2  C   UNL     1      -1.641  10.581  17.914  0.00  0.00    +0.000 C 
ATOM      3  C   UNL     1      -2.915  11.210  18.201  0.00  0.00    +0.000 A 
ATOM      4  C   UNL     1      -3.983  11.314  17.326  0.00  0.00    +0.000 A 
ATOM      5  C   UNL     1      -5.020  12.079  17.784  0.00  0.00    +0.000 A 
ATOM      6  C   UNL     1      -5.014  12.626  19.055  0.00  0.00    +0.000 A 
ATOM      7  C   UNL     1      -3.967  12.447  19.955  0.00  0.00    +0.000 A 
ATOM      8  C   UNL     1      -2.852  11.746  19.503  0.00  0.00    +0.000 A 
ATOM      9  C   UNL     1      -1.539  11.383  20.075  0.00  0.00    +0.000 A 
ATOM     10  C   UNL     1      -0.804  10.797  19.114  0.00  0.00    +0.000 A 
ATOM     11  C   UNL     1       0.451  10.132  19.397  0.00  0.00    +0.000 A 
ATOM     12  C   UNL     1       1.199   9.559  18.372  0.00  0.00    +0.000 A 
ATOM     13  C   UNL     1       1.789   8.326  18.610  0.00  0.00    +0.000 A 
ATOM     14  C   UNL     1       1.864   7.850  19.914  0.00  0.00    +0.000 A 
ATOM     15  F   UNL     1       2.392   6.638  20.132  0.00  0.00    +0.000 F 
ATOM     16  C   UNL     1       1.409   8.614  20.989  0.00  0.00    +0.000 A 
ATOM     17  C   UNL     1       0.652   9.760  20.725  0.00  0.00    +0.000 A 
ATOM     18  C   UNL     1      -0.042  10.561  21.798  0.00  0.00    +0.000 A 
ATOM     19  O   UNL     1       0.329  10.381  22.951  0.00  0.00    +0.000 OA
ATOM     20  N   UNL     1      -1.077  11.438  21.390  0.00  0.00    +0.000 N 
ATOM     21  O   UNL     1      -6.122  13.387  19.281  0.00  0.00    +0.000 OA
ATOM     22  C   UNL     1      -6.769  13.326  17.989  0.00  0.00    +0.000 C 
ATOM     23  O   UNL     1      -6.130  12.412  17.076  0.00  0.00    +0.000 OA
ENDROOT
BRANCH  20  24
ATOM     24  C   UNL     1      -1.813  12.193  22.410  0.00  0.00    +0.000 C 
BRANCH  24  25
ATOM     25  C   UNL     1      -1.234  13.534  22.894  0.00  0.00    +0.000 C 
BRANCH  25  26
ATOM     26  C   UNL     1      -1.838  14.725  22.164  0.00  0.00    +0.000 C 
BRANCH  26  27
ATOM     27  N   UNL     1      -3.098  15.138  22.760  0.00  0.00    +0.000 N 
ATOM     28  C   UNL     1      -4.238  15.487  22.094  0.00  0.00    +0.000 A 
ATOM     29  C   UNL     1      -5.142  15.796  23.081  0.00  0.00    +0.000 A 
ATOM     30  N   UNL     1      -4.574  15.652  24.322  0.00  0.00    +0.000 NA
ATOM     31  C   UNL     1      -3.344  15.250  24.099  0.00  0.00    +0.000 A 
ENDBRANCH  26  27
ENDBRANCH  25  26
ENDBRANCH  24  25
ENDBRANCH  20  24
TORSDOF 4
ENDMDL
MODEL 8
REMARK VINA RESULT:      -7.3      3.123      5.511
REMARK  Name = 
REMARK  4 active torsions:
REMARK  status: ('A' for Active; 'I' for Inactive)
REMARK    1  A    between atoms: N_20  and  C_21
REMARK    2  A    between atoms: C_21  and  C_22
REMARK    3  A    between atoms: C_22  and  C_23
REMARK    4  A    between atoms: C_23  and  N_24
REMARK                            x       y       z     vdW  Elec       q    Type
REMARK                         _______ _______ _______ _____ _____    ______ ____
ROOT
ATOM      1  O   UNL     1      -0.208  11.090  18.713  0.00  0.00    +0.000 OA
ATOM      2  C   UNL     1      -1.222  11.576  19.155  0.00  0.00    +0.000 C 
ATOM      3  C   UNL     1      -1.298  12.618  20.159  0.00  0.00    +0.000 A 
ATOM      4  C   UNL     1      -0.231  13.134  20.875  0.00  0.00    +0.000 A 
ATOM      5  C   UNL     1      -0.581  14.008  21.867  0.00  0.00    +0.000 A 
ATOM      6  C   UNL     1      -1.896  14.393  22.067  0.00  0.00    +0.000 A 
ATOM      7  C   UNL     1      -2.951  13.926  21.287  0.00  0.00    +0.000 A 
ATOM      8  C   UNL     1      -2.654  12.971  20.319  0.00  0.00    +0.000 A 
ATOM      9  C   UNL     1      -3.439  12.187  19.343  0.00  0.00    +0.000 A 
ATOM     10  C   UNL     1      -2.617  11.308  18.744  0.00  0.00    +0.000 A 
ATOM     11  C   UNL     1      -3.021  10.536  17.586  0.00  0.00    +0.000 A 
ATOM     12  C   UNL     1      -2.151   9.616  17.007  0.00  0.00    +0.000 A 
ATOM     13  C   UNL     1      -2.098   9.554  15.622  0.00  0.00    +0.000 A 
ATOM     14  C   UNL     1      -3.092  10.179  14.878  0.00  0.00    +0.000 A 
ATOM     15  F   UNL     1      -3.010  10.157  13.541  0.00  0.00    +0.000 F 
ATOM     16  C   UNL     1      -4.168  10.816  15.498  0.00  0.00    +0.000 A 
ATOM     17  C   UNL     1      -4.113  11.034  16.879  0.00  0.00    +0.000 A 
ATOM     18  C   UNL     1      -5.124  11.864  17.628  0.00  0.00    +0.000 A 
ATOM     19  O   UNL     1      -6.187  12.088  17.061  0.00  0.00    +0.000 OA
ATOM     20  N   UNL     1      -4.757  12.335  18.913  0.00  0.00    +0.000 N 
ATOM     21  O   UNL     1      -2.019  15.228  23.136  0.00  0.00    +0.000 OA
ATOM     22  C   UNL     1      -0.660  15.251  23.629  0.00  0.00    +0.000 C 
ATOM     23  O   UNL     1       0.269  14.567  22.766  0.00  0.00    +0.000 OA
ENDROOT
BRANCH  20  24
ATOM     24  C   UNL     1      -5.692  13.191  19.650  0.00  0.00    +0.000 C 
BRANCH  24  25
ATOM     25  C   UNL     1      -6.321  12.652  20.946  0.00  0.00    +0.000 C 
BRANCH  25  26
ATOM     26  C   UNL     1      -7.687  12.023  20.712  0.00  0.00    +0.000 C 
BRANCH  26  27
ATOM     27  N   UNL     1      -7.598  10.577  20.594  0.00  0.00    +0.000 N 
ATOM     28  C   UNL     1      -7.916   9.660  21.557  0.00  0.00    +0.000 A 
ATOM     29  C   UNL     1      -7.667   8.440  20.978  0.00  0.00    +0.000 A 
ATOM     30  N   UNL     1      -7.197   8.597  19.698  0.00  0.00    +0.000 NA
ATOM     31  C   UNL     1      -7.170   9.893  19.491  0.00  0.00    +0.000 A 
ENDBRANCH  26  27
ENDBRANCH  25  26
ENDBRANCH  24  25
ENDBRANCH  20  24
TORSDOF 4
ENDMDL
MODEL 9
REMARK VINA RESULT:      -7.2      5.774     10.074
REMARK  Name = 
REMARK  4 active torsions:
REMARK  status: ('A' for Active; 'I' for Inactive)
REMARK    1  A    between atoms: N_20  and  C_21
REMARK    2  A    between atoms: C_21  and  C_22
REMARK    3  A    between atoms: C_22  and  C_23
REMARK    4  A    between atoms: C_23  and  N_24
REMARK                            x       y       z     vdW  Elec       q    Type
REMARK                         _______ _______ _______ _____ _____    ______ ____
ROOT
ATOM      1  O   UNL     1       2.700  10.047  17.102  0.00  0.00    +0.000 OA
ATOM      2  C   UNL     1       2.581   9.018  17.722  0.00  0.00    +0.000 C 
ATOM      3  C   UNL     1       3.443   7.857  17.618  0.00  0.00    +0.000 A 
ATOM      4  C   UNL     1       4.463   7.685  16.696  0.00  0.00    +0.000 A 
ATOM      5  C   UNL     1       5.036   6.443  16.709  0.00  0.00    +0.000 A 
ATOM      6  C   UNL     1       4.665   5.480  17.633  0.00  0.00    +0.000 A 
ATOM      7  C   UNL     1       3.693   5.695  18.605  0.00  0.00    +0.000 A 
ATOM      8  C   UNL     1       3.023   6.915  18.578  0.00  0.00    +0.000 A 
ATOM      9  C   UNL     1       1.922   7.524  19.352  0.00  0.00    +0.000 A 
ATOM     10  C   UNL     1       1.604   8.701  18.785  0.00  0.00    +0.000 A 
ATOM     11  C   UNL     1       0.711   9.650  19.420  0.00  0.00    +0.000 A 
ATOM     12  C   UNL     1       0.384  10.847  18.790  0.00  0.00    +0.000 A 
ATOM     13  C   UNL     1       0.331  11.996  19.567  0.00  0.00    +0.000 A 
ATOM     14  C   UNL     1       0.316  11.878  20.952  0.00  0.00    +0.000 A 
ATOM     15  F   UNL     1       0.313  12.991  21.697  0.00  0.00    +0.000 F 
ATOM     16  C   UNL     1       0.296  10.627  21.570  0.00  0.00    +0.000 A 
ATOM     17  C   UNL     1       0.537   9.490  20.792  0.00  0.00    +0.000 A 
ATOM     18  C   UNL     1       0.717   8.111  21.374  0.00  0.00    +0.000 A 
ATOM     19  O   UNL     1       0.329   7.939  22.523  0.00  0.00    +0.000 OA
ATOM     20  N   UNL     1       1.337   7.134  20.557  0.00  0.00    +0.000 N 
ATOM     21  O   UNL     1       5.329   4.308  17.430  0.00  0.00    +0.000 OA
ATOM     22  C   UNL     1       6.082   4.617  16.235  0.00  0.00    +0.000 C 
ATOM     23  O   UNL     1       5.980   5.999  15.840  0.00  0.00    +0.000 OA
ENDROOT
BRANCH  20  24
ATOM     24  C   UNL     1       1.579   5.796  21.106  0.00  0.00    +0.000 C 
BRANCH  24  25
ATOM     25  C   UNL     1       0.902   4.589  20.434  0.00  0.00    +0.000 C 
BRANCH  25  26
ATOM     26  C   UNL     1       1.373   3.262  21.010  0.00  0.00    +0.000 C 
BRANCH  26  27
ATOM     27  N   UNL     1       2.373   2.634  20.162  0.00  0.00    +0.000 N 
ATOM     28  C   UNL     1       2.168   2.097  18.922  0.00  0.00    +0.000 A 
ATOM     29  C   UNL     1       3.399   1.630  18.532  0.00  0.00    +0.000 A 
ATOM     30  N   UNL     1       4.338   1.862  19.507  0.00  0.00    +0.000 NA
ATOM     31  C   UNL     1       3.693   2.472  20.474  0.00  0.00    +0.000 A 
ENDBRANCH  26  27
ENDBRANCH  25  26
ENDBRANCH  24  25
ENDBRANCH  20  24
TORSDOF 4
ENDMDL
