MODEL 1
REMARK VINA RESULT:      -9.2      0.000      0.000
REMARK  Name = 
REMARK  11 active torsions:
REMARK  status: ('A' for Active; 'I' for Inactive)
REMARK    1  A    between atoms: C_1  and  C_2
REMARK    2  A    between atoms: C_2  and  C_16
REMARK    3  A    between atoms: C_3  and  C_4
REMARK    4  A    between atoms: C_4  and  O_5
REMARK    5  A    between atoms: O_5  and  C_6
REMARK    6  A    between atoms: C_16  and  C_17
REMARK    7  A    between atoms: C_17  and  C_18
REMARK    8  A    between atoms: C_19  and  C_20
REMARK    9  A    between atoms: C_19  and  C_21
REMARK   10  A    between atoms: C_25  and  C_26
REMARK   11  A    between atoms: C_25  and  C_27
REMARK                            x       y       z     vdW  Elec       q    Type
REMARK                         _______ _______ _______ _____ _____    ______ ____
ROOT
ATOM      1  C   UNL     1       7.849   6.254  19.108  0.00  0.00    +0.000 C 
ATOM      2  C   UNL     1       7.535   6.780  17.731  0.00  0.00    +0.000 C 
ATOM      3  C   UNL     1       7.178   5.966  16.713  0.00  0.00    +0.000 C 
ENDROOT
BRANCH   3   4
ATOM      4  C   UNL     1       7.056   4.478  16.804  0.00  0.00    +0.000 C 
BRANCH   4   5
ATOM      5  O   UNL     1       5.754   4.093  16.354  0.00  0.00    +0.000 OA
BRANCH   5   6
ATOM      6  C   UNL     1       4.775   4.335  17.280  0.00  0.00    +0.000 A 
ATOM      7  C   UNL     1       3.936   5.448  17.244  0.00  0.00    +0.000 A 
ATOM      8  C   UNL     1       2.965   5.628  18.223  0.00  0.00    +0.000 A 
ATOM      9  C   UNL     1       2.801   4.683  19.243  0.00  0.00    +0.000 A 
ATOM     10  C   UNL     1       1.813   4.844  20.225  0.00  0.00    +0.000 A 
ATOM     11  C   UNL     1       1.650   3.894  21.234  0.00  0.00    +0.000 A 
ATOM     12  C   UNL     1       2.475   2.774  21.273  0.00  0.00    +0.000 A 
ATOM     13  C   UNL     1       3.462   2.597  20.302  0.00  0.00    +0.000 A 
ATOM     14  C   UNL     1       3.637   3.542  19.277  0.00  0.00    +0.000 A 
ATOM     15  C   UNL     1       4.618   3.378  18.284  0.00  0.00    +0.000 A 
ENDBRANCH   5   6
ENDBRANCH   4   5
ENDBRANCH   3   4
BRANCH   2  16
ATOM     16  C   UNL     1       7.615   8.293  17.580  0.00  0.00    +0.000 C 
BRANCH  16  17
ATOM     17  C   UNL     1       8.538   8.952  18.617  0.00  0.00    +0.000 C 
BRANCH  17  18
ATOM     18  C   UNL     1       9.173  10.247  18.209  0.00  0.00    +0.000 C 
ATOM     19  C   UNL     1       9.610  11.160  19.102  0.00  0.00    +0.000 C 
ATOM     20  C   UNL     1       9.534  10.939  20.599  0.00  0.00    +0.000 C 
BRANCH  19  21
ATOM     21  C   UNL     1      10.185  12.428  18.674  0.00  0.00    +0.000 C 
ATOM     22  C   UNL     1      11.139  12.572  17.765  0.00  0.00    +0.000 C 
ATOM     23  C   UNL     1      11.316  14.011  17.701  0.00  0.00    +0.000 C 
ATOM     24  O   UNL     1      12.117  14.547  16.965  0.00  0.00    +0.000 OA
ATOM     25  C   UNL     1      10.366  14.690  18.660  0.00  0.00    +0.000 C 
ATOM     26  C   UNL     1       9.358  15.553  17.918  0.00  0.00    +0.000 C 
ATOM     27  C   UNL     1      11.129  15.472  19.719  0.00  0.00    +0.000 C 
ATOM     28  O   UNL     1       9.677  13.581  19.275  0.00  0.00    +0.000 OA
ENDBRANCH  19  21
ENDBRANCH  17  18
ENDBRANCH  16  17
ENDBRANCH   2  16
TORSDOF 7
ENDMDL
MODEL 2
REMARK VINA RESULT:      -9.2      5.092      8.329
REMARK  Name = 
REMARK  11 active torsions:
REMARK  status: ('A' for Active; 'I' for Inactive)
REMARK    1  A    between atoms: C_1  and  C_2
REMARK    2  A    between atoms: C_2  and  C_16
REMARK    3  A    between atoms: C_3  and  C_4
REMARK    4  A    between atoms: C_4  and  O_5
REMARK    5  A    between atoms: O_5  and  C_6
REMARK    6  A    between atoms: C_16  and  C_17
REMARK    7  A    between atoms: C_17  and  C_18
REMARK    8  A    between atoms: C_19  and  C_20
REMARK    9  A    between atoms: C_19  and  C_21
REMARK   10  A    between atoms: C_25  and  C_26
REMARK   11  A    between atoms: C_25  and  C_27
REMARK                            x       y       z     vdW  Elec       q    Type
REMARK                         _______ _______ _______ _____ _____    ______ ____
ROOT
ATOM      1  C   UNL     1       1.215   2.959  21.170  0.00  0.00    +0.000 C 
ATOM      2  C   UNL     1       1.185   3.563  19.789  0.00  0.00    +0.000 C 
ATOM      3  C   UNL     1       1.433   4.873  19.571  0.00  0.00    +0.000 C 
ENDROOT
BRANCH   3   4
ATOM      4  C   UNL     1       1.754   5.876  20.633  0.00  0.00    +0.000 C 
BRANCH   4   5
ATOM      5  O   UNL     1       2.349   7.023  20.020  0.00  0.00    +0.000 OA
BRANCH   5   6
ATOM      6  C   UNL     1       1.605   8.162  20.183  0.00  0.00    +0.000 A 
ATOM      7  C   UNL     1       1.412   9.108  19.177  0.00  0.00    +0.000 A 
ATOM      8  C   UNL     1       0.646  10.243  19.418  0.00  0.00    +0.000 A 
ATOM      9  C   UNL     1       0.037  10.438  20.664  0.00  0.00    +0.000 A 
ATOM     10  C   UNL     1      -0.753  11.569  20.913  0.00  0.00    +0.000 A 
ATOM     11  C   UNL     1      -1.362  11.753  22.154  0.00  0.00    +0.000 A 
ATOM     12  C   UNL     1      -1.186  10.809  23.162  0.00  0.00    +0.000 A 
ATOM     13  C   UNL     1      -0.403   9.676  22.930  0.00  0.00    +0.000 A 
ATOM     14  C   UNL     1       0.214   9.474  21.685  0.00  0.00    +0.000 A 
ATOM     15  C   UNL     1       0.998   8.336  21.427  0.00  0.00    +0.000 A 
ENDBRANCH   5   6
ENDBRANCH   4   5
ENDBRANCH   3   4
BRANCH   2  16
ATOM     16  C   UNL     1       0.890   2.585  18.659  0.00  0.00    +0.000 C 
BRANCH  16  17
ATOM     17  C   UNL     1       2.156   1.932  18.084  0.00  0.00    +0.000 C 
BRANCH  17  18
ATOM     18  C   UNL     1       3.174   2.865  17.502  0.00  0.00    +0.000 C 
ATOM     19  C   UNL     1       4.288   3.240  18.167  0.00  0.00    +0.000 C 
ATOM     20  C   UNL     1       4.627   2.719  19.549  0.00  0.00    +0.000 C 
BRANCH  19  21
ATOM     21  C   UNL     1       5.238   4.180  17.590  0.00  0.00    +0.000 C 
ATOM     22  C   UNL     1       5.871   4.023  16.436  0.00  0.00    +0.000 C 
ATOM     23  C   UNL     1       6.658   5.238  16.326  0.00  0.00    +0.000 C 
ATOM     24  O   UNL     1       7.386   5.472  15.384  0.00  0.00    +0.000 OA
ATOM     25  C   UNL     1       6.417   6.119  17.530  0.00  0.00    +0.000 C 
ATOM     26  C   UNL     1       5.755   7.428  17.130  0.00  0.00    +0.000 C 
ATOM     27  C   UNL     1       7.704   6.337  18.311  0.00  0.00    +0.000 C 
ATOM     28  O   UNL     1       5.492   5.342  18.320  0.00  0.00    +0.000 OA
ENDBRANCH  19  21
ENDBRANCH  17  18
ENDBRANCH  16  17
ENDBRANCH   2  16
TORSDOF 7
ENDMDL
MODEL 3
REMARK VINA RESULT:      -8.9      2.150     10.567
REMARK  Name = 
REMARK  11 active torsions:
REMARK  status: ('A' for Active; 'I' for Inactive)
REMARK    1  A    between atoms: C_1  and  C_2
REMARK    2  A    between atoms: C_2  and  C_16
REMARK    3  A    between atoms: C_3  and  C_4
REMARK    4  A    between atoms: C_4  and  O_5
REMARK    5  A    between atoms: O_5  and  C_6
REMARK    6  A    between atoms: C_16  and  C_17
REMARK    7  A    between atoms: C_17  and  C_18
REMARK    8  A    between atoms: C_19  and  C_20
REMARK    9  A    between atoms: C_19  and  C_21
REMARK   10  A    between atoms: C_25  and  C_26
REMARK   11  A    between atoms: C_25  and  C_27
REMARK                            x       y       z     vdW  Elec       q    Type
REMARK                         _______ _______ _______ _____ _____    ______ ____
ROOT
ATOM      1  C   UNL     1       7.758   4.986  18.254  0.00  0.00    +0.000 C 
ATOM      2  C   UNL     1       7.469   5.793  17.013  0.00  0.00    +0.000 C 
ATOM      3  C   UNL     1       7.569   7.140  16.992  0.00  0.00    +0.000 C 
ENDROOT
BRANCH   3   4
ATOM      4  C   UNL     1       7.959   7.993  18.156  0.00  0.00    +0.000 C 
BRANCH   4   5
ATOM      5  O   UNL     1       7.848   9.368  17.780  0.00  0.00    +0.000 OA
BRANCH   5   6
ATOM      6  C   UNL     1       8.780  10.166  18.389  0.00  0.00    +0.000 A 
ATOM      7  C   UNL     1       9.138  10.049  19.732  0.00  0.00    +0.000 A 
ATOM      8  C   UNL     1      10.093  10.898  20.280  0.00  0.00    +0.000 A 
ATOM      9  C   UNL     1      10.725  11.864  19.488  0.00  0.00    +0.000 A 
ATOM     10  C   UNL     1      11.702  12.713  20.026  0.00  0.00    +0.000 A 
ATOM     11  C   UNL     1      12.333  13.668  19.228  0.00  0.00    +0.000 A 
ATOM     12  C   UNL     1      11.991  13.786  17.884  0.00  0.00    +0.000 A 
ATOM     13  C   UNL     1      11.021  12.947  17.332  0.00  0.00    +0.000 A 
ATOM     14  C   UNL     1      10.379  11.978  18.120  0.00  0.00    +0.000 A 
ATOM     15  C   UNL     1       9.408  11.117  17.582  0.00  0.00    +0.000 A 
ENDBRANCH   5   6
ENDBRANCH   4   5
ENDBRANCH   3   4
BRANCH   2  16
ATOM     16  C   UNL     1       7.092   4.979  15.783  0.00  0.00    +0.000 C 
BRANCH  16  17
ATOM     17  C   UNL     1       5.621   5.155  15.374  0.00  0.00    +0.000 C 
BRANCH  17  18
ATOM     18  C   UNL     1       4.610   4.442  16.219  0.00  0.00    +0.000 C 
ATOM     19  C   UNL     1       3.861   5.072  17.150  0.00  0.00    +0.000 C 
ATOM     20  C   UNL     1       3.950   6.563  17.396  0.00  0.00    +0.000 C 
BRANCH  19  21
ATOM     21  C   UNL     1       2.915   4.343  17.984  0.00  0.00    +0.000 C 
ATOM     22  C   UNL     1       1.972   3.524  17.543  0.00  0.00    +0.000 C 
ATOM     23  C   UNL     1       1.347   3.055  18.766  0.00  0.00    +0.000 C 
ATOM     24  O   UNL     1       0.422   2.270  18.776  0.00  0.00    +0.000 OA
ATOM     25  C   UNL     1       2.024   3.679  19.963  0.00  0.00    +0.000 C 
ATOM     26  C   UNL     1       2.710   2.626  20.819  0.00  0.00    +0.000 C 
ATOM     27  C   UNL     1       1.043   4.525  20.762  0.00  0.00    +0.000 C 
ATOM     28  O   UNL     1       3.025   4.527  19.364  0.00  0.00    +0.000 OA
ENDBRANCH  19  21
ENDBRANCH  17  18
ENDBRANCH  16  17
ENDBRANCH   2  16
TORSDOF 7
ENDMDL
MODEL 4
REMARK VINA RESULT:      -8.8      6.028      8.927
REMARK  Name = 
REMARK  11 active torsions:
REMARK  status: ('A' for Active; 'I' for Inactive)
REMARK    1  A    between atoms: C_1  and  C_2
REMARK    2  A    between atoms: C_2  and  C_16
REMARK    3  A    between atoms: C_3  and  C_4
REMARK    4  A    between atoms: C_4  and  O_5
REMARK    5  A    between atoms: O_5  and  C_6
REMARK    6  A    between atoms: C_16  and  C_17
REMARK    7  A    between atoms: C_17  and  C_18
REMARK    8  A    between atoms: C_19  and  C_20
REMARK    9  A    between atoms: C_19  and  C_21
REMARK   10  A    between atoms: C_25  and  C_26
REMARK   11  A    between atoms: C_25  and  C_27
REMARK                            x       y       z     vdW  Elec       q    Type
REMARK                         _______ _______ _______ _____ _____    ______ ____
ROOT
ATOM      1  C   UNL     1       1.871   3.186  21.712  0.00  0.00    +0.000 C 
ATOM      2  C   UNL     1       1.220   3.720  20.462  0.00  0.00    +0.000 C 
ATOM      3  C   UNL     1       1.382   4.999  20.057  0.00  0.00    +0.000 C 
ENDROOT
BRANCH   3   4
ATOM      4  C   UNL     1       2.194   6.032  20.770  0.00  0.00    +0.000 C 
BRANCH   4   5
ATOM      5  O   UNL     1       2.463   7.110  19.871  0.00  0.00    +0.000 OA
BRANCH   5   6
ATOM      6  C   UNL     1       1.649   8.192  20.076  0.00  0.00    +0.000 A 
ATOM      7  C   UNL     1       1.304   9.100  19.075  0.00  0.00    +0.000 A 
ATOM      8  C   UNL     1       0.473  10.178  19.360  0.00  0.00    +0.000 A 
ATOM      9  C   UNL     1      -0.048  10.353  20.648  0.00  0.00    +0.000 A 
ATOM     10  C   UNL     1      -0.900  11.426  20.943  0.00  0.00    +0.000 A 
ATOM     11  C   UNL     1      -1.422  11.589  22.226  0.00  0.00    +0.000 A 
ATOM     12  C   UNL     1      -1.093  10.683  23.231  0.00  0.00    +0.000 A 
ATOM     13  C   UNL     1      -0.246   9.608  22.954  0.00  0.00    +0.000 A 
ATOM     14  C   UNL     1       0.284   9.427  21.665  0.00  0.00    +0.000 A 
ATOM     15  C   UNL     1       1.131   8.346  21.363  0.00  0.00    +0.000 A 
ENDBRANCH   5   6
ENDBRANCH   4   5
ENDBRANCH   3   4
BRANCH   2  16
ATOM     16  C   UNL     1       0.399   2.708  19.674  0.00  0.00    +0.000 C 
BRANCH  16  17
ATOM     17  C   UNL     1       1.136   2.168  18.439  0.00  0.00    +0.000 C 
BRANCH  17  18
ATOM     18  C   UNL     1       2.075   3.120  17.762  0.00  0.00    +0.000 C 
ATOM     19  C   UNL     1       3.403   2.896  17.672  0.00  0.00    +0.000 C 
ATOM     20  C   UNL     1       4.058   1.643  18.215  0.00  0.00    +0.000 C 
BRANCH  19  21
ATOM     21  C   UNL     1       4.296   3.860  17.043  0.00  0.00    +0.000 C 
ATOM     22  C   UNL     1       4.106   5.170  17.000  0.00  0.00    +0.000 C 
ATOM     23  C   UNL     1       5.281   5.649  16.296  0.00  0.00    +0.000 C 
ATOM     24  O   UNL     1       5.477   6.822  16.058  0.00  0.00    +0.000 OA
ATOM     25  C   UNL     1       6.176   4.486  15.937  0.00  0.00    +0.000 C 
ATOM     26  C   UNL     1       7.514   4.579  16.653  0.00  0.00    +0.000 C 
ATOM     27  C   UNL     1       6.335   4.368  14.428  0.00  0.00    +0.000 C 
ATOM     28  O   UNL     1       5.447   3.348  16.441  0.00  0.00    +0.000 OA
ENDBRANCH  19  21
ENDBRANCH  17  18
ENDBRANCH  16  17
ENDBRANCH   2  16
TORSDOF 7
ENDMDL
MODEL 5
REMARK VINA RESULT:      -8.6      1.914     11.156
REMARK  Name = 
REMARK  11 active torsions:
REMARK  status: ('A' for Active; 'I' for Inactive)
REMARK    1  A    between atoms: C_1  and  C_2
REMARK    2  A    between atoms: C_2  and  C_16
REMARK    3  A    between atoms: C_3  and  C_4
REMARK    4  A    between atoms: C_4  and  O_5
REMARK    5  A    between atoms: O_5  and  C_6
REMARK    6  A    between atoms: C_16  and  C_17
REMARK    7  A    between atoms: C_17  and  C_18
REMARK    8  A    between atoms: C_19  and  C_20
REMARK    9  A    between atoms: C_19  and  C_21
REMARK   10  A    between atoms: C_25  and  C_26
REMARK   11  A    between atoms: C_25  and  C_27
REMARK                            x       y       z     vdW  Elec       q    Type
REMARK                         _______ _______ _______ _____ _____    ______ ____
ROOT
ATOM      1  C   UNL     1       7.896   6.376  19.072  0.00  0.00    +0.000 C 
ATOM      2  C   UNL     1       7.620   7.070  17.763  0.00  0.00    +0.000 C 
ATOM      3  C   UNL     1       7.957   8.361  17.548  0.00  0.00    +0.000 C 
ENDROOT
BRANCH   3   4
ATOM      4  C   UNL     1       8.621   9.255  18.546  0.00  0.00    +0.000 C 
BRANCH   4   5
ATOM      5  O   UNL     1       8.211  10.603  18.303  0.00  0.00    +0.000 OA
BRANCH   5   6
ATOM      6  C   UNL     1       9.265  11.453  18.096  0.00  0.00    +0.000 A 
ATOM      7  C   UNL     1      10.587  11.026  17.965  0.00  0.00    +0.000 A 
ATOM      8  C   UNL     1      11.606  11.950  17.759  0.00  0.00    +0.000 A 
ATOM      9  C   UNL     1      11.316  13.316  17.655  0.00  0.00    +0.000 A 
ATOM     10  C   UNL     1      12.333  14.254  17.429  0.00  0.00    +0.000 A 
ATOM     11  C   UNL     1      12.037  15.613  17.319  0.00  0.00    +0.000 A 
ATOM     12  C   UNL     1      10.720  16.049  17.437  0.00  0.00    +0.000 A 
ATOM     13  C   UNL     1       9.695  15.127  17.661  0.00  0.00    +0.000 A 
ATOM     14  C   UNL     1       9.976  13.755  17.770  0.00  0.00    +0.000 A 
ATOM     15  C   UNL     1       8.958  12.810  17.985  0.00  0.00    +0.000 A 
ENDBRANCH   5   6
ENDBRANCH   4   5
ENDBRANCH   3   4
BRANCH   2  16
ATOM     16  C   UNL     1       6.969   6.204  16.693  0.00  0.00    +0.000 C 
BRANCH  16  17
ATOM     17  C   UNL     1       5.513   6.600  16.404  0.00  0.00    +0.000 C 
BRANCH  17  18
ATOM     18  C   UNL     1       4.469   5.956  17.265  0.00  0.00    +0.000 C 
ATOM     19  C   UNL     1       4.152   4.646  17.172  0.00  0.00    +0.000 C 
ATOM     20  C   UNL     1       4.851   3.703  16.216  0.00  0.00    +0.000 C 
BRANCH  19  21
ATOM     21  C   UNL     1       3.104   4.058  17.995  0.00  0.00    +0.000 C 
ATOM     22  C   UNL     1       2.139   3.261  17.559  0.00  0.00    +0.000 C 
ATOM     23  C   UNL     1       1.401   2.947  18.769  0.00  0.00    +0.000 C 
ATOM     24  O   UNL     1       0.427   2.226  18.780  0.00  0.00    +0.000 OA
ATOM     25  C   UNL     1       2.035   3.638  19.953  0.00  0.00    +0.000 C 
ATOM     26  C   UNL     1       2.587   2.630  20.948  0.00  0.00    +0.000 C 
ATOM     27  C   UNL     1       1.062   4.614  20.598  0.00  0.00    +0.000 C 
ATOM     28  O   UNL     1       3.131   4.364  19.357  0.00  0.00    +0.000 OA
ENDBRANCH  19  21
ENDBRANCH  17  18
ENDBRANCH  16  17
ENDBRANCH   2  16
TORSDOF 7
ENDMDL
MODEL 6
REMARK VINA RESULT:      -8.6      1.150      1.460
REMARK  Name = 
REMARK  11 active torsions:
REMARK  status: ('A' for Active; 'I' for Inactive)
REMARK    1  A    between atoms: C_1  and  C_2
REMARK    2  A    between atoms: C_2  and  C_16
REMARK    3  A    between atoms: C_3  and  C_4
REMARK    4  A    between atoms: C_4  and  O_5
REMARK    5  A    between atoms: O_5  and  C_6
REMARK    6  A    between atoms: C_16  and  C_17
REMARK    7  A    between atoms: C_17  and  C_18
REMARK    8  A    between atoms: C_19  and  C_20
REMARK    9  A    between atoms: C_19  and  C_21
REMARK   10  A    between atoms: C_25  and  C_26
REMARK   11  A    between atoms: C_25  and  C_27
REMARK                            x       y       z     vdW  Elec       q    Type
REMARK                         _______ _______ _______ _____ _____    ______ ____
ROOT
ATOM      1  C   UNL     1       5.910   7.263  17.388  0.00  0.00    +0.000 C 
ATOM      2  C   UNL     1       7.312   7.317  17.939  0.00  0.00    +0.000 C 
ATOM      3  C   UNL     1       7.785   6.387  18.797  0.00  0.00    +0.000 C 
ENDROOT
BRANCH   3   4
ATOM      4  C   UNL     1       7.009   5.217  19.311  0.00  0.00    +0.000 C 
BRANCH   4   5
ATOM      5  O   UNL     1       6.654   4.377  18.209  0.00  0.00    +0.000 OA
BRANCH   5   6
ATOM      6  C   UNL     1       5.325   4.048  18.195  0.00  0.00    +0.000 A 
ATOM      7  C   UNL     1       4.601   3.810  17.026  0.00  0.00    +0.000 A 
ATOM      8  C   UNL     1       3.251   3.483  17.091  0.00  0.00    +0.000 A 
ATOM      9  C   UNL     1       2.607   3.363  18.329  0.00  0.00    +0.000 A 
ATOM     10  C   UNL     1       1.251   3.016  18.407  0.00  0.00    +0.000 A 
ATOM     11  C   UNL     1       0.618   2.890  19.644  0.00  0.00    +0.000 A 
ATOM     12  C   UNL     1       1.334   3.114  20.817  0.00  0.00    +0.000 A 
ATOM     13  C   UNL     1       2.686   3.460  20.757  0.00  0.00    +0.000 A 
ATOM     14  C   UNL     1       3.339   3.586  19.519  0.00  0.00    +0.000 A 
ATOM     15  C   UNL     1       4.701   3.923  19.437  0.00  0.00    +0.000 A 
ENDBRANCH   5   6
ENDBRANCH   4   5
ENDBRANCH   3   4
BRANCH   2  16
ATOM     16  C   UNL     1       8.164   8.473  17.431  0.00  0.00    +0.000 C 
BRANCH  16  17
ATOM     17  C   UNL     1       8.669   9.387  18.558  0.00  0.00    +0.000 C 
BRANCH  17  18
ATOM     18  C   UNL     1       9.109  10.760  18.148  0.00  0.00    +0.000 C 
ATOM     19  C   UNL     1       9.639  11.647  19.017  0.00  0.00    +0.000 C 
ATOM     20  C   UNL     1       9.870  11.321  20.478  0.00  0.00    +0.000 C 
BRANCH  19  21
ATOM     21  C   UNL     1      10.020  12.989  18.596  0.00  0.00    +0.000 C 
ATOM     22  C   UNL     1      10.853  13.276  17.607  0.00  0.00    +0.000 C 
ATOM     23  C   UNL     1      10.858  14.728  17.594  0.00  0.00    +0.000 C 
ATOM     24  O   UNL     1      11.514  15.380  16.811  0.00  0.00    +0.000 OA
ATOM     25  C   UNL     1       9.940  15.256  18.672  0.00  0.00    +0.000 C 
ATOM     26  C   UNL     1       8.771  16.021  18.074  0.00  0.00    +0.000 C 
ATOM     27  C   UNL     1      10.714  16.083  19.688  0.00  0.00    +0.000 C 
ATOM     28  O   UNL     1       9.448  14.051  19.297  0.00  0.00    +0.000 OA
ENDBRANCH  19  21
ENDBRANCH  17  18
ENDBRANCH  16  17
ENDBRANCH   2  16
TORSDOF 7
ENDMDL
MODEL 7
REMARK VINA RESULT:      -8.6      6.002      8.987
REMARK  Name = 
REMARK  11 active torsions:
REMARK  status: ('A' for Active; 'I' for Inactive)
REMARK    1  A    between atoms: C_1  and  C_2
REMARK    2  A    between atoms: C_2  and  C_16
REMARK    3  A    between atoms: C_3  and  C_4
REMARK    4  A    between atoms: C_4  and  O_5
REMARK    5  A    between atoms: O_5  and  C_6
REMARK    6  A    between atoms: C_16  and  C_17
REMARK    7  A    between atoms: C_17  and  C_18
REMARK    8  A    between atoms: C_19  and  C_20
REMARK    9  A    between atoms: C_19  and  C_21
REMARK   10  A    between atoms: C_25  and  C_26
REMARK   11  A    between atoms: C_25  and  C_27
REMARK                            x       y       z     vdW  Elec       q    Type
REMARK                         _______ _______ _______ _____ _____    ______ ____
ROOT
ATOM      1  C   UNL     1       2.646   3.451  21.432  0.00  0.00    +0.000 C 
ATOM      2  C   UNL     1       1.486   3.858  20.558  0.00  0.00    +0.000 C 
ATOM      3  C   UNL     1       1.162   5.153  20.350  0.00  0.00    +0.000 C 
ENDROOT
BRANCH   3   4
ATOM      4  C   UNL     1       1.876   6.325  20.943  0.00  0.00    +0.000 C 
BRANCH   4   5
ATOM      5  O   UNL     1       2.105   7.295  19.917  0.00  0.00    +0.000 OA
BRANCH   5   6
ATOM      6  C   UNL     1       1.367   8.436  20.087  0.00  0.00    +0.000 A 
ATOM      7  C   UNL     1       1.125   9.358  19.068  0.00  0.00    +0.000 A 
ATOM      8  C   UNL     1       0.368  10.498  19.318  0.00  0.00    +0.000 A 
ATOM      9  C   UNL     1      -0.182  10.722  20.586  0.00  0.00    +0.000 A 
ATOM     10  C   UNL     1      -0.962  11.858  20.844  0.00  0.00    +0.000 A 
ATOM     11  C   UNL     1      -1.513  12.071  22.107  0.00  0.00    +0.000 A 
ATOM     12  C   UNL     1      -1.288  11.152  23.129  0.00  0.00    +0.000 A 
ATOM     13  C   UNL     1      -0.514  10.014  22.888  0.00  0.00    +0.000 A 
ATOM     14  C   UNL     1       0.045   9.783  21.620  0.00  0.00    +0.000 A 
ATOM     15  C   UNL     1       0.818   8.640  21.354  0.00  0.00    +0.000 A 
ENDBRANCH   5   6
ENDBRANCH   4   5
ENDBRANCH   3   4
BRANCH   2  16
ATOM     16  C   UNL     1       0.734   2.708  19.902  0.00  0.00    +0.000 C 
BRANCH  16  17
ATOM     17  C   UNL     1       0.979   2.616  18.388  0.00  0.00    +0.000 C 
BRANCH  17  18
ATOM     18  C   UNL     1       2.147   3.393  17.859  0.00  0.00    +0.000 C 
ATOM     19  C   UNL     1       3.401   2.894  17.825  0.00  0.00    +0.000 C 
ATOM     20  C   UNL     1       3.734   1.489  18.283  0.00  0.00    +0.000 C 
BRANCH  19  21
ATOM     21  C   UNL     1       4.522   3.689  17.343  0.00  0.00    +0.000 C 
ATOM     22  C   UNL     1       5.620   3.967  18.030  0.00  0.00    +0.000 C 
ATOM     23  C   UNL     1       6.405   4.749  17.093  0.00  0.00    +0.000 C 
ATOM     24  O   UNL     1       7.501   5.195  17.358  0.00  0.00    +0.000 OA
ATOM     25  C   UNL     1       5.655   4.895  15.789  0.00  0.00    +0.000 C 
ATOM     26  C   UNL     1       6.393   4.211  14.649  0.00  0.00    +0.000 C 
ATOM     27  C   UNL     1       5.362   6.358  15.492  0.00  0.00    +0.000 C 
ATOM     28  O   UNL     1       4.422   4.191  16.044  0.00  0.00    +0.000 OA
ENDBRANCH  19  21
ENDBRANCH  17  18
ENDBRANCH  16  17
ENDBRANCH   2  16
TORSDOF 7
ENDMDL
MODEL 8
REMARK VINA RESULT:      -8.4      2.037     10.857
REMARK  Name = 
REMARK  11 active torsions:
REMARK  status: ('A' for Active; 'I' for Inactive)
REMARK    1  A    between atoms: C_1  and  C_2
REMARK    2  A    between atoms: C_2  and  C_16
REMARK    3  A    between atoms: C_3  and  C_4
REMARK    4  A    between atoms: C_4  and  O_5
REMARK    5  A    between atoms: O_5  and  C_6
REMARK    6  A    between atoms: C_16  and  C_17
REMARK    7  A    between atoms: C_17  and  C_18
REMARK    8  A    between atoms: C_19  and  C_20
REMARK    9  A    between atoms: C_19  and  C_21
REMARK   10  A    between atoms: C_25  and  C_26
REMARK   11  A    between atoms: C_25  and  C_27
REMARK                            x       y       z     vdW  Elec       q    Type
REMARK                         _______ _______ _______ _____ _____    ______ ____
ROOT
ATOM      1  C   UNL     1       8.056   6.362  18.988  0.00  0.00    +0.000 C 
ATOM      2  C   UNL     1       7.635   7.096  17.739  0.00  0.00    +0.000 C 
ATOM      3  C   UNL     1       7.865   8.416  17.569  0.00  0.00    +0.000 C 
ENDROOT
BRANCH   3   4
ATOM      4  C   UNL     1       8.538   9.308  18.562  0.00  0.00    +0.000 C 
BRANCH   4   5
ATOM      5  O   UNL     1       9.375  10.232  17.862  0.00  0.00    +0.000 OA
BRANCH   5   6
ATOM      6  C   UNL     1       9.759  11.297  18.634  0.00  0.00    +0.000 A 
ATOM      7  C   UNL     1      10.947  11.334  19.362  0.00  0.00    +0.000 A 
ATOM      8  C   UNL     1      11.267  12.451  20.127  0.00  0.00    +0.000 A 
ATOM      9  C   UNL     1      10.414  13.561  20.155  0.00  0.00    +0.000 A 
ATOM     10  C   UNL     1      10.736  14.700  20.908  0.00  0.00    +0.000 A 
ATOM     11  C   UNL     1       9.885  15.805  20.925  0.00  0.00    +0.000 A 
ATOM     12  C   UNL     1       8.701  15.783  20.193  0.00  0.00    +0.000 A 
ATOM     13  C   UNL     1       8.367  14.657  19.437  0.00  0.00    +0.000 A 
ATOM     14  C   UNL     1       9.215  13.538  19.405  0.00  0.00    +0.000 A 
ATOM     15  C   UNL     1       8.902  12.399  18.643  0.00  0.00    +0.000 A 
ENDBRANCH   5   6
ENDBRANCH   4   5
ENDBRANCH   3   4
BRANCH   2  16
ATOM     16  C   UNL     1       6.967   6.236  16.675  0.00  0.00    +0.000 C 
BRANCH  16  17
ATOM     17  C   UNL     1       5.513   6.646  16.397  0.00  0.00    +0.000 C 
BRANCH  17  18
ATOM     18  C   UNL     1       4.468   5.996  17.251  0.00  0.00    +0.000 C 
ATOM     19  C   UNL     1       4.162   4.684  17.160  0.00  0.00    +0.000 C 
ATOM     20  C   UNL     1       4.876   3.743  16.213  0.00  0.00    +0.000 C 
BRANCH  19  21
ATOM     21  C   UNL     1       3.112   4.090  17.977  0.00  0.00    +0.000 C 
ATOM     22  C   UNL     1       2.158   3.283  17.535  0.00  0.00    +0.000 C 
ATOM     23  C   UNL     1       1.412   2.968  18.740  0.00  0.00    +0.000 C 
ATOM     24  O   UNL     1       0.444   2.238  18.746  0.00  0.00    +0.000 OA
ATOM     25  C   UNL     1       2.030   3.668  19.927  0.00  0.00    +0.000 C 
ATOM     26  C   UNL     1       2.583   2.669  20.931  0.00  0.00    +0.000 C 
ATOM     27  C   UNL     1       1.043   4.638  20.560  0.00  0.00    +0.000 C 
ATOM     28  O   UNL     1       3.125   4.401  19.337  0.00  0.00    +0.000 OA
ENDBRANCH  19  21
ENDBRANCH  17  18
ENDBRANCH  16  17
ENDBRANCH   2  16
TORSDOF 7
ENDMDL
MODEL 9
REMARK VINA RESULT:      -8.3      1.611      2.076
REMARK  Name = 
REMARK  11 active torsions:
REMARK  status: ('A' for Active; 'I' for Inactive)
REMARK    1  A    between atoms: C_1  and  C_2
REMARK    2  A    between atoms: C_2  and  C_16
REMARK    3  A    between atoms: C_3  and  C_4
REMARK    4  A    between atoms: C_4  and  O_5
REMARK    5  A    between atoms: O_5  and  C_6
REMARK    6  A    between atoms: C_16  and  C_17
REMARK    7  A    between atoms: C_17  and  C_18
REMARK    8  A    between atoms: C_19  and  C_20
REMARK    9  A    between atoms: C_19  and  C_21
REMARK   10  A    between atoms: C_25  and  C_26
REMARK   11  A    between atoms: C_25  and  C_27
REMARK                            x       y       z     vdW  Elec       q    Type
REMARK                         _______ _______ _______ _____ _____    ______ ____
ROOT
ATOM      1  C   UNL     1       7.709   5.638  19.110  0.00  0.00    +0.000 C 
ATOM      2  C   UNL     1       7.717   6.850  18.214  0.00  0.00    +0.000 C 
ATOM      3  C   UNL     1       7.064   6.875  17.031  0.00  0.00    +0.000 C 
ENDROOT
BRANCH   3   4
ATOM      4  C   UNL     1       6.275   5.741  16.460  0.00  0.00    +0.000 C 
BRANCH   4   5
ATOM      5  O   UNL     1       4.938   6.184  16.215  0.00  0.00    +0.000 OA
BRANCH   5   6
ATOM      6  C   UNL     1       4.061   5.801  17.195  0.00  0.00    +0.000 A 
ATOM      7  C   UNL     1       3.499   6.684  18.117  0.00  0.00    +0.000 A 
ATOM      8  C   UNL     1       2.617   6.220  19.086  0.00  0.00    +0.000 A 
ATOM      9  C   UNL     1       2.262   4.866  19.134  0.00  0.00    +0.000 A 
ATOM     10  C   UNL     1       1.359   4.390  20.096  0.00  0.00    +0.000 A 
ATOM     11  C   UNL     1       1.004   3.041  20.133  0.00  0.00    +0.000 A 
ATOM     12  C   UNL     1       1.551   2.153  19.211  0.00  0.00    +0.000 A 
ATOM     13  C   UNL     1       2.450   2.611  18.246  0.00  0.00    +0.000 A 
ATOM     14  C   UNL     1       2.814   3.967  18.192  0.00  0.00    +0.000 A 
ATOM     15  C   UNL     1       3.710   4.450  17.223  0.00  0.00    +0.000 A 
ENDBRANCH   5   6
ENDBRANCH   4   5
ENDBRANCH   3   4
BRANCH   2  16
ATOM     16  C   UNL     1       8.482   8.051  18.754  0.00  0.00    +0.000 C 
BRANCH  16  17
ATOM     17  C   UNL     1       8.469   9.252  17.795  0.00  0.00    +0.000 C 
BRANCH  17  18
ATOM     18  C   UNL     1       8.394  10.606  18.433  0.00  0.00    +0.000 C 
ATOM     19  C   UNL     1       9.424  11.480  18.416  0.00  0.00    +0.000 C 
ATOM     20  C   UNL     1      10.734  11.183  17.717  0.00  0.00    +0.000 C 
BRANCH  19  21
ATOM     21  C   UNL     1       9.334  12.773  19.080  0.00  0.00    +0.000 C 
ATOM     22  C   UNL     1       8.464  13.728  18.789  0.00  0.00    +0.000 C 
ATOM     23  C   UNL     1       8.785  14.769  19.749  0.00  0.00    +0.000 C 
ATOM     24  O   UNL     1       8.193  15.825  19.802  0.00  0.00    +0.000 OA
ATOM     25  C   UNL     1       9.927  14.321  20.630  0.00  0.00    +0.000 C 
ATOM     26  C   UNL     1       9.486  14.189  22.080  0.00  0.00    +0.000 C 
ATOM     27  C   UNL     1      11.129  15.241  20.473  0.00  0.00    +0.000 C 
ATOM     28  O   UNL     1      10.243  13.012  20.112  0.00  0.00    +0.000 OA
ENDBRANCH  19  21
ENDBRANCH  17  18
ENDBRANCH  16  17
ENDBRANCH   2  16
TORSDOF 7
ENDMDL
