MODEL 1
REMARK VINA RESULT:      -9.0      0.000      0.000
REMARK  Name = 
REMARK  6 active torsions:
REMARK  status: ('A' for Active; 'I' for Inactive)
REMARK    1  A    between atoms: C_1  and  C_2
REMARK    2  A    between atoms: C_5  and  C_6
REMARK    3  A    between atoms: N_8  and  C_9
REMARK    4  A    between atoms: N_12  and  C_13
REMARK    5  A    between atoms: C_24  and  C_25
REMARK    6  A    between atoms: C_29  and  N_30
REMARK                            x       y       z     vdW  Elec       q    Type
REMARK                         _______ _______ _______ _____ _____    ______ ____
ROOT
ATOM      1  C   UNL     1      -0.275  10.115  20.739  0.00  0.00    +0.000 A 
ATOM      2  S   UNL     1       0.016   8.720  21.687  0.00  0.00    +0.000 S 
ATOM      3  C   UNL     1       1.231   8.215  20.581  0.00  0.00    +0.000 A 
ATOM      4  N   UNL     1       1.871   7.032  20.737  0.00  0.00    +0.000 N 
ATOM      5  N   UNL     1       1.461   9.062  19.603  0.00  0.00    +0.000 NA
ATOM      6  C   UNL     1       0.586  10.141  19.660  0.00  0.00    +0.000 A 
ATOM      7  H   UNL     1       1.715   6.502  21.587  0.00  0.00    +0.000 HD
ENDROOT
BRANCH   4   8
ATOM      8  C   UNL     1       2.412   6.279  19.673  0.00  0.00    +0.000 A 
ATOM      9  C   UNL     1       2.129   4.915  19.576  0.00  0.00    +0.000 A 
ATOM     10  C   UNL     1       2.730   4.130  18.584  0.00  0.00    +0.000 A 
ATOM     11  C   UNL     1       3.628   4.695  17.662  0.00  0.00    +0.000 A 
ATOM     12  C   UNL     1       4.261   3.927  16.671  0.00  0.00    +0.000 A 
ATOM     13  C   UNL     1       5.156   4.517  15.774  0.00  0.00    +0.000 A 
ATOM     14  C   UNL     1       5.426   5.879  15.851  0.00  0.00    +0.000 A 
ATOM     15  C   UNL     1       4.807   6.655  16.829  0.00  0.00    +0.000 A 
ATOM     16  C   UNL     1       3.912   6.071  17.739  0.00  0.00    +0.000 A 
ATOM     17  C   UNL     1       3.302   6.840  18.742  0.00  0.00    +0.000 A 
ENDBRANCH   4   8
BRANCH   6  18
ATOM     18  C   UNL     1       0.683  11.208  18.673  0.00  0.00    +0.000 C 
ATOM     19  N   UNL     1       1.838  11.174  17.942  0.00  0.00    +0.000 N 
ATOM     20  O   UNL     1      -0.180  12.069  18.514  0.00  0.00    +0.000 OA
ATOM     21  H   UNL     1       2.543  10.481  18.176  0.00  0.00    +0.000 HD
ATOM     22  H   UNL     1       2.057  11.923  17.306  0.00  0.00    +0.000 HD
ENDBRANCH   6  18
BRANCH   1  25
ATOM     23  C   UNL     1      -1.143  11.853  22.142  0.00  0.00    +0.000 C 
ATOM     24  O   UNL     1      -0.072  12.017  22.728  0.00  0.00    +0.000 OA
ATOM     25  N   UNL     1      -1.316  10.971  21.086  0.00  0.00    +0.000 N 
ATOM     26  H   UNL     1      -1.904  11.289  20.320  0.00  0.00    +0.000 HD
BRANCH  23  31
ATOM     27  C   UNL     1      -5.890  14.761  23.837  0.00  0.00    +0.000 C 
ATOM     28  C   UNL     1      -4.640  14.031  23.424  0.00  0.00    +0.000 A 
ATOM     29  C   UNL     1      -3.819  14.573  22.416  0.00  0.00    +0.000 A 
ATOM     30  C   UNL     1      -2.662  13.909  21.985  0.00  0.00    +0.000 A 
ATOM     31  C   UNL     1      -2.311  12.687  22.562  0.00  0.00    +0.000 A 
ATOM     32  C   UNL     1      -3.139  12.151  23.564  0.00  0.00    +0.000 A 
ATOM     33  C   UNL     1      -4.277  12.819  24.029  0.00  0.00    +0.000 A 
BRANCH  33  34
ATOM     34  N   UNL     1      -5.140  12.141  24.902  0.00  0.00    +0.000 N 
ATOM     35  H   UNL     1      -5.768  11.492  24.438  0.00  0.00    +0.000 HD
ATOM     36  H   UNL     1      -4.690  11.727  25.711  0.00  0.00    +0.000 HD
ENDBRANCH  33  34
ENDBRANCH  23  31
ENDBRANCH   1  25
TORSDOF 5
ENDMDL
MODEL 2
REMARK VINA RESULT:      -8.9      1.486      2.290
REMARK  Name = 
REMARK  6 active torsions:
REMARK  status: ('A' for Active; 'I' for Inactive)
REMARK    1  A    between atoms: C_1  and  C_2
REMARK    2  A    between atoms: C_5  and  C_6
REMARK    3  A    between atoms: N_8  and  C_9
REMARK    4  A    between atoms: N_12  and  C_13
REMARK    5  A    between atoms: C_24  and  C_25
REMARK    6  A    between atoms: C_29  and  N_30
REMARK                            x       y       z     vdW  Elec       q    Type
REMARK                         _______ _______ _______ _____ _____    ______ ____
ROOT
ATOM      1  C   UNL     1      -0.563  10.699  21.119  0.00  0.00    +0.000 A 
ATOM      2  S   UNL     1       0.214   9.698  22.270  0.00  0.00    +0.000 S 
ATOM      3  C   UNL     1       1.024   8.864  21.003  0.00  0.00    +0.000 A 
ATOM      4  N   UNL     1       1.824   7.803  21.265  0.00  0.00    +0.000 N 
ATOM      5  N   UNL     1       0.790   9.341  19.802  0.00  0.00    +0.000 NA
ATOM      6  C   UNL     1      -0.141  10.373  19.846  0.00  0.00    +0.000 A 
ATOM      7  H   UNL     1       2.042   7.582  22.229  0.00  0.00    +0.000 HD
ENDROOT
BRANCH   4   8
ATOM      8  C   UNL     1       2.054   6.744  20.360  0.00  0.00    +0.000 A 
ATOM      9  C   UNL     1       2.639   7.007  19.120  0.00  0.00    +0.000 A 
ATOM     10  C   UNL     1       2.790   5.987  18.171  0.00  0.00    +0.000 A 
ATOM     11  C   UNL     1       2.359   4.677  18.445  0.00  0.00    +0.000 A 
ATOM     12  C   UNL     1       2.479   3.641  17.504  0.00  0.00    +0.000 A 
ATOM     13  C   UNL     1       2.035   2.350  17.804  0.00  0.00    +0.000 A 
ATOM     14  C   UNL     1       1.471   2.076  19.046  0.00  0.00    +0.000 A 
ATOM     15  C   UNL     1       1.345   3.093  19.990  0.00  0.00    +0.000 A 
ATOM     16  C   UNL     1       1.781   4.395  19.696  0.00  0.00    +0.000 A 
ATOM     17  C   UNL     1       1.636   5.430  20.632  0.00  0.00    +0.000 A 
ENDBRANCH   4   8
BRANCH   6  18
ATOM     18  C   UNL     1      -0.529  11.055  18.619  0.00  0.00    +0.000 C 
ATOM     19  N   UNL     1      -0.665  10.217  17.547  0.00  0.00    +0.000 N 
ATOM     20  O   UNL     1      -0.708  12.268  18.541  0.00  0.00    +0.000 OA
ATOM     21  H   UNL     1      -0.429   9.236  17.662  0.00  0.00    +0.000 HD
ATOM     22  H   UNL     1      -0.826  10.593  16.628  0.00  0.00    +0.000 HD
ENDBRANCH   6  18
BRANCH   1  25
ATOM     23  C   UNL     1      -1.106  12.792  22.154  0.00  0.00    +0.000 C 
ATOM     24  O   UNL     1       0.072  13.144  22.232  0.00  0.00    +0.000 OA
ATOM     25  N   UNL     1      -1.520  11.614  21.548  0.00  0.00    +0.000 N 
ATOM     26  H   UNL     1      -2.368  11.664  20.991  0.00  0.00    +0.000 HD
BRANCH  23  31
ATOM     27  C   UNL     1      -5.445  16.070  24.223  0.00  0.00    +0.000 C 
ATOM     28  C   UNL     1      -4.301  15.232  23.720  0.00  0.00    +0.000 A 
ATOM     29  C   UNL     1      -3.273  15.837  22.969  0.00  0.00    +0.000 A 
ATOM     30  C   UNL     1      -2.206  15.084  22.460  0.00  0.00    +0.000 A 
ATOM     31  C   UNL     1      -2.153  13.710  22.699  0.00  0.00    +0.000 A 
ATOM     32  C   UNL     1      -3.185  13.114  23.445  0.00  0.00    +0.000 A 
ATOM     33  C   UNL     1      -4.238  13.857  23.988  0.00  0.00    +0.000 A 
BRANCH  33  34
ATOM     34  N   UNL     1      -5.312  13.168  24.570  0.00  0.00    +0.000 N 
ATOM     35  H   UNL     1      -5.973  12.792  23.895  0.00  0.00    +0.000 HD
ATOM     36  H   UNL     1      -5.052  12.486  25.273  0.00  0.00    +0.000 HD
ENDBRANCH  33  34
ENDBRANCH  23  31
ENDBRANCH   1  25
TORSDOF 5
ENDMDL
MODEL 3
REMARK VINA RESULT:      -8.8      1.928      2.682
REMARK  Name = 
REMARK  6 active torsions:
REMARK  status: ('A' for Active; 'I' for Inactive)
REMARK    1  A    between atoms: C_1  and  C_2
REMARK    2  A    between atoms: C_5  and  C_6
REMARK    3  A    between atoms: N_8  and  C_9
REMARK    4  A    between atoms: N_12  and  C_13
REMARK    5  A    between atoms: C_24  and  C_25
REMARK    6  A    between atoms: C_29  and  N_30
REMARK                            x       y       z     vdW  Elec       q    Type
REMARK                         _______ _______ _______ _____ _____    ______ ____
ROOT
ATOM      1  C   UNL     1      -0.428  10.793  21.193  0.00  0.00    +0.000 A 
ATOM      2  S   UNL     1       0.452   9.828  22.300  0.00  0.00    +0.000 S 
ATOM      3  C   UNL     1       1.123   8.934  20.995  0.00  0.00    +0.000 A 
ATOM      4  N   UNL     1       1.935   7.874  21.219  0.00  0.00    +0.000 N 
ATOM      5  N   UNL     1       0.774   9.365  19.804  0.00  0.00    +0.000 NA
ATOM      6  C   UNL     1      -0.138  10.410  19.899  0.00  0.00    +0.000 A 
ATOM      7  H   UNL     1       2.247   7.688  22.165  0.00  0.00    +0.000 HD
ENDROOT
BRANCH   4   8
ATOM      8  C   UNL     1       2.064   6.776  20.340  0.00  0.00    +0.000 A 
ATOM      9  C   UNL     1       2.561   6.975  19.051  0.00  0.00    +0.000 A 
ATOM     10  C   UNL     1       2.608   5.918  18.133  0.00  0.00    +0.000 A 
ATOM     11  C   UNL     1       2.160   4.634  18.487  0.00  0.00    +0.000 A 
ATOM     12  C   UNL     1       2.177   3.561  17.580  0.00  0.00    +0.000 A 
ATOM     13  C   UNL     1       1.717   2.297  17.961  0.00  0.00    +0.000 A 
ATOM     14  C   UNL     1       1.241   2.087  19.251  0.00  0.00    +0.000 A 
ATOM     15  C   UNL     1       1.218   3.140  20.162  0.00  0.00    +0.000 A 
ATOM     16  C   UNL     1       1.670   4.415  19.788  0.00  0.00    +0.000 A 
ATOM     17  C   UNL     1       1.628   5.488  20.692  0.00  0.00    +0.000 A 
ENDBRANCH   4   8
BRANCH   6  18
ATOM     18  C   UNL     1      -0.642  11.047  18.690  0.00  0.00    +0.000 C 
ATOM     19  N   UNL     1      -0.673  10.215  17.605  0.00  0.00    +0.000 N 
ATOM     20  O   UNL     1      -0.996  12.223  18.636  0.00  0.00    +0.000 OA
ATOM     21  H   UNL     1      -0.295   9.277  17.699  0.00  0.00    +0.000 HD
ATOM     22  H   UNL     1      -0.902  10.578  16.695  0.00  0.00    +0.000 HD
ENDBRANCH   6  18
BRANCH   1  25
ATOM     23  C   UNL     1      -0.850  12.958  22.130  0.00  0.00    +0.000 C 
ATOM     24  O   UNL     1       0.324  13.316  22.020  0.00  0.00    +0.000 OA
ATOM     25  N   UNL     1      -1.328  11.737  21.677  0.00  0.00    +0.000 N 
ATOM     26  H   UNL     1      -2.245  11.743  21.238  0.00  0.00    +0.000 HD
BRANCH  23  31
ATOM     27  C   UNL     1      -4.520  16.549  24.868  0.00  0.00    +0.000 C 
ATOM     28  C   UNL     1      -3.558  15.651  24.137  0.00  0.00    +0.000 A 
ATOM     29  C   UNL     1      -3.939  15.075  22.910  0.00  0.00    +0.000 A 
ATOM     30  C   UNL     1      -3.082  14.211  22.214  0.00  0.00    +0.000 A 
ATOM     31  C   UNL     1      -1.824  13.914  22.741  0.00  0.00    +0.000 A 
ATOM     32  C   UNL     1      -1.453  14.491  23.968  0.00  0.00    +0.000 A 
ATOM     33  C   UNL     1      -2.284  15.380  24.657  0.00  0.00    +0.000 A 
BRANCH  33  34
ATOM     34  N   UNL     1      -1.915  15.774  25.951  0.00  0.00    +0.000 N 
ATOM     35  H   UNL     1      -0.920  15.687  26.140  0.00  0.00    +0.000 HD
ATOM     36  H   UNL     1      -2.284  16.672  26.246  0.00  0.00    +0.000 HD
ENDBRANCH  33  34
ENDBRANCH  23  31
ENDBRANCH   1  25
TORSDOF 5
ENDMDL
MODEL 4
REMARK VINA RESULT:      -8.5      1.484      1.782
REMARK  Name = 
REMARK  6 active torsions:
REMARK  status: ('A' for Active; 'I' for Inactive)
REMARK    1  A    between atoms: C_1  and  C_2
REMARK    2  A    between atoms: C_5  and  C_6
REMARK    3  A    between atoms: N_8  and  C_9
REMARK    4  A    between atoms: N_12  and  C_13
REMARK    5  A    between atoms: C_24  and  C_25
REMARK    6  A    between atoms: C_29  and  N_30
REMARK                            x       y       z     vdW  Elec       q    Type
REMARK                         _______ _______ _______ _____ _____    ______ ____
ROOT
ATOM      1  C   UNL     1      -0.400  10.430  21.517  0.00  0.00    +0.000 A 
ATOM      2  S   UNL     1       0.563   9.447  22.535  0.00  0.00    +0.000 S 
ATOM      3  C   UNL     1       1.122   8.570  21.166  0.00  0.00    +0.000 A 
ATOM      4  N   UNL     1       1.946   7.505  21.308  0.00  0.00    +0.000 N 
ATOM      5  N   UNL     1       0.680   9.021  20.014  0.00  0.00    +0.000 NA
ATOM      6  C   UNL     1      -0.218  10.067  20.198  0.00  0.00    +0.000 A 
ATOM      7  H   UNL     1       2.332   7.305  22.223  0.00  0.00    +0.000 HD
ENDROOT
BRANCH   4   8
ATOM      8  C   UNL     1       1.998   6.420  20.406  0.00  0.00    +0.000 A 
ATOM      9  C   UNL     1       1.169   5.314  20.603  0.00  0.00    +0.000 A 
ATOM     10  C   UNL     1       1.272   4.188  19.776  0.00  0.00    +0.000 A 
ATOM     11  C   UNL     1       2.208   4.145  18.728  0.00  0.00    +0.000 A 
ATOM     12  C   UNL     1       2.346   3.021  17.897  0.00  0.00    +0.000 A 
ATOM     13  C   UNL     1       3.292   3.007  16.868  0.00  0.00    +0.000 A 
ATOM     14  C   UNL     1       4.106   4.114  16.652  0.00  0.00    +0.000 A 
ATOM     15  C   UNL     1       3.981   5.236  17.467  0.00  0.00    +0.000 A 
ATOM     16  C   UNL     1       3.040   5.259  18.508  0.00  0.00    +0.000 A 
ATOM     17  C   UNL     1       2.924   6.376  19.350  0.00  0.00    +0.000 A 
ENDBRANCH   4   8
BRANCH   6  18
ATOM     18  C   UNL     1      -0.815  10.723  19.043  0.00  0.00    +0.000 C 
ATOM     19  N   UNL     1      -0.314  10.290  17.847  0.00  0.00    +0.000 N 
ATOM     20  O   UNL     1      -1.679  11.593  19.125  0.00  0.00    +0.000 OA
ATOM     21  H   UNL     1       0.453   9.623  17.852  0.00  0.00    +0.000 HD
ATOM     22  H   UNL     1      -0.577  10.749  16.991  0.00  0.00    +0.000 HD
ENDBRANCH   6  18
BRANCH   1  25
ATOM     23  C   UNL     1      -0.775  12.642  22.359  0.00  0.00    +0.000 C 
ATOM     24  O   UNL     1       0.339  13.042  22.017  0.00  0.00    +0.000 OA
ATOM     25  N   UNL     1      -1.254  11.370  22.086  0.00  0.00    +0.000 N 
ATOM     26  H   UNL     1      -2.233  11.301  21.818  0.00  0.00    +0.000 HD
BRANCH  23  31
ATOM     27  C   UNL     1      -4.507  16.402  24.766  0.00  0.00    +0.000 C 
ATOM     28  C   UNL     1      -3.547  15.406  24.175  0.00  0.00    +0.000 A 
ATOM     29  C   UNL     1      -2.192  15.435  24.557  0.00  0.00    +0.000 A 
ATOM     30  C   UNL     1      -1.261  14.541  24.007  0.00  0.00    +0.000 A 
ATOM     31  C   UNL     1      -1.681  13.601  23.065  0.00  0.00    +0.000 A 
ATOM     32  C   UNL     1      -3.035  13.581  22.687  0.00  0.00    +0.000 A 
ATOM     33  C   UNL     1      -3.980  14.443  23.252  0.00  0.00    +0.000 A 
BRANCH  33  34
ATOM     34  N   UNL     1      -5.269  14.477  22.699  0.00  0.00    +0.000 N 
ATOM     35  H   UNL     1      -5.371  15.138  21.933  0.00  0.00    +0.000 HD
ATOM     36  H   UNL     1      -5.662  13.570  22.476  0.00  0.00    +0.000 HD
ENDBRANCH  33  34
ENDBRANCH  23  31
ENDBRANCH   1  25
TORSDOF 5
ENDMDL
MODEL 5
REMARK VINA RESULT:      -8.4      0.995      1.312
REMARK  Name = 
REMARK  6 active torsions:
REMARK  status: ('A' for Active; 'I' for Inactive)
REMARK    1  A    between atoms: C_1  and  C_2
REMARK    2  A    between atoms: C_5  and  C_6
REMARK    3  A    between atoms: N_8  and  C_9
REMARK    4  A    between atoms: N_12  and  C_13
REMARK    5  A    between atoms: C_24  and  C_25
REMARK    6  A    between atoms: C_29  and  N_30
REMARK                            x       y       z     vdW  Elec       q    Type
REMARK                         _______ _______ _______ _____ _____    ______ ____
ROOT
ATOM      1  C   UNL     1      -0.182  10.084  20.686  0.00  0.00    +0.000 A 
ATOM      2  S   UNL     1      -0.005   8.647  21.599  0.00  0.00    +0.000 S 
ATOM      3  C   UNL     1       1.258   8.132  20.553  0.00  0.00    +0.000 A 
ATOM      4  N   UNL     1       1.841   6.920  20.706  0.00  0.00    +0.000 N 
ATOM      5  N   UNL     1       1.581   9.002  19.623  0.00  0.00    +0.000 NA
ATOM      6  C   UNL     1       0.746  10.113  19.665  0.00  0.00    +0.000 A 
ATOM      7  H   UNL     1       1.611   6.367  21.524  0.00  0.00    +0.000 HD
ENDROOT
BRANCH   4   8
ATOM      8  C   UNL     1       2.419   6.182  19.651  0.00  0.00    +0.000 A 
ATOM      9  C   UNL     1       2.195   4.807  19.563  0.00  0.00    +0.000 A 
ATOM     10  C   UNL     1       2.835   4.041  18.580  0.00  0.00    +0.000 A 
ATOM     11  C   UNL     1       3.714   4.636  17.659  0.00  0.00    +0.000 A 
ATOM     12  C   UNL     1       4.385   3.888  16.677  0.00  0.00    +0.000 A 
ATOM     13  C   UNL     1       5.259   4.509  15.780  0.00  0.00    +0.000 A 
ATOM     14  C   UNL     1       5.470   5.882  15.848  0.00  0.00    +0.000 A 
ATOM     15  C   UNL     1       4.813   6.638  16.816  0.00  0.00    +0.000 A 
ATOM     16  C   UNL     1       3.938   6.023  17.727  0.00  0.00    +0.000 A 
ATOM     17  C   UNL     1       3.290   6.773  18.720  0.00  0.00    +0.000 A 
ENDBRANCH   4   8
BRANCH   6  18
ATOM     18  C   UNL     1       0.946  11.207  18.725  0.00  0.00    +0.000 C 
ATOM     19  N   UNL     1       1.985  11.005  17.860  0.00  0.00    +0.000 N 
ATOM     20  O   UNL     1       0.259  12.227  18.712  0.00  0.00    +0.000 OA
ATOM     21  H   UNL     1       2.559  10.174  17.975  0.00  0.00    +0.000 HD
ATOM     22  H   UNL     1       2.279  11.740  17.240  0.00  0.00    +0.000 HD
ENDBRANCH   6  18
BRANCH   1  25
ATOM     23  C   UNL     1      -1.287  11.492  22.281  0.00  0.00    +0.000 C 
ATOM     24  O   UNL     1      -0.424  11.318  23.143  0.00  0.00    +0.000 OA
ATOM     25  N   UNL     1      -1.210  10.969  20.998  0.00  0.00    +0.000 N 
ATOM     26  H   UNL     1      -1.522  11.572  20.242  0.00  0.00    +0.000 HD
BRANCH  23  31
ATOM     27  C   UNL     1      -5.654  15.162  23.426  0.00  0.00    +0.000 C 
ATOM     28  C   UNL     1      -4.551  14.186  23.116  0.00  0.00    +0.000 A 
ATOM     29  C   UNL     1      -4.232  13.177  24.046  0.00  0.00    +0.000 A 
ATOM     30  C   UNL     1      -3.193  12.268  23.804  0.00  0.00    +0.000 A 
ATOM     31  C   UNL     1      -2.458  12.357  22.621  0.00  0.00    +0.000 A 
ATOM     32  C   UNL     1      -2.780  13.369  21.700  0.00  0.00    +0.000 A 
ATOM     33  C   UNL     1      -3.836  14.262  21.912  0.00  0.00    +0.000 A 
BRANCH  33  34
ATOM     34  N   UNL     1      -3.982  15.345  21.033  0.00  0.00    +0.000 N 
ATOM     35  H   UNL     1      -3.258  16.051  21.126  0.00  0.00    +0.000 HD
ATOM     36  H   UNL     1      -4.147  15.090  20.065  0.00  0.00    +0.000 HD
ENDBRANCH  33  34
ENDBRANCH  23  31
ENDBRANCH   1  25
TORSDOF 5
ENDMDL
MODEL 6
REMARK VINA RESULT:      -8.4      0.981      1.132
REMARK  Name = 
REMARK  6 active torsions:
REMARK  status: ('A' for Active; 'I' for Inactive)
REMARK    1  A    between atoms: C_1  and  C_2
REMARK    2  A    between atoms: C_5  and  C_6
REMARK    3  A    between atoms: N_8  and  C_9
REMARK    4  A    between atoms: N_12  and  C_13
REMARK    5  A    between atoms: C_24  and  C_25
REMARK    6  A    between atoms: C_29  and  N_30
REMARK                            x       y       z     vdW  Elec       q    Type
REMARK                         _______ _______ _______ _____ _____    ______ ____
ROOT
ATOM      1  C   UNL     1      -0.476  10.392  21.085  0.00  0.00    +0.000 A 
ATOM      2  S   UNL     1       0.232   9.330  22.226  0.00  0.00    +0.000 S 
ATOM      3  C   UNL     1       1.073   8.525  20.962  0.00  0.00    +0.000 A 
ATOM      4  N   UNL     1       1.837   7.436  21.213  0.00  0.00    +0.000 N 
ATOM      5  N   UNL     1       0.899   9.053  19.771  0.00  0.00    +0.000 NA
ATOM      6  C   UNL     1      -0.009  10.105  19.818  0.00  0.00    +0.000 A 
ATOM      7  H   UNL     1       2.010   7.173  22.177  0.00  0.00    +0.000 HD
ENDROOT
BRANCH   4   8
ATOM      8  C   UNL     1       2.079   6.406  20.278  0.00  0.00    +0.000 A 
ATOM      9  C   UNL     1       1.409   5.187  20.401  0.00  0.00    +0.000 A 
ATOM     10  C   UNL     1       1.704   4.121  19.541  0.00  0.00    +0.000 A 
ATOM     11  C   UNL     1       2.677   4.252  18.536  0.00  0.00    +0.000 A 
ATOM     12  C   UNL     1       3.007   3.193  17.674  0.00  0.00    +0.000 A 
ATOM     13  C   UNL     1       3.985   3.353  16.688  0.00  0.00    +0.000 A 
ATOM     14  C   UNL     1       4.641   4.571  16.547  0.00  0.00    +0.000 A 
ATOM     15  C   UNL     1       4.325   5.632  17.393  0.00  0.00    +0.000 A 
ATOM     16  C   UNL     1       3.350   5.480  18.391  0.00  0.00    +0.000 A 
ATOM     17  C   UNL     1       3.042   6.535  19.264  0.00  0.00    +0.000 A 
ENDBRANCH   4   8
BRANCH   6  18
ATOM     18  C   UNL     1      -0.332  10.841  18.604  0.00  0.00    +0.000 C 
ATOM     19  N   UNL     1       0.455  11.941  18.405  0.00  0.00    +0.000 N 
ATOM     20  O   UNL     1      -1.233  10.520  17.832  0.00  0.00    +0.000 OA
ATOM     21  H   UNL     1       1.131  12.192  19.120  0.00  0.00    +0.000 HD
ATOM     22  H   UNL     1       0.251  12.581  17.655  0.00  0.00    +0.000 HD
ENDBRANCH   6  18
BRANCH   1  25
ATOM     23  C   UNL     1      -1.008  12.520  22.052  0.00  0.00    +0.000 C 
ATOM     24  O   UNL     1       0.168  12.888  22.073  0.00  0.00    +0.000 OA
ATOM     25  N   UNL     1      -1.427  11.314  21.510  0.00  0.00    +0.000 N 
ATOM     26  H   UNL     1      -2.296  11.331  20.983  0.00  0.00    +0.000 HD
BRANCH  23  31
ATOM     27  C   UNL     1      -5.307  15.828  24.158  0.00  0.00    +0.000 C 
ATOM     28  C   UNL     1      -4.171  14.985  23.643  0.00  0.00    +0.000 A 
ATOM     29  C   UNL     1      -3.210  15.560  22.788  0.00  0.00    +0.000 A 
ATOM     30  C   UNL     1      -2.154  14.800  22.266  0.00  0.00    +0.000 A 
ATOM     31  C   UNL     1      -2.046  13.448  22.597  0.00  0.00    +0.000 A 
ATOM     32  C   UNL     1      -3.011  12.882  23.448  0.00  0.00    +0.000 A 
ATOM     33  C   UNL     1      -4.050  13.635  24.003  0.00  0.00    +0.000 A 
BRANCH  33  34
ATOM     34  N   UNL     1      -5.065  12.963  24.699  0.00  0.00    +0.000 N 
ATOM     35  H   UNL     1      -4.723  12.260  25.349  0.00  0.00    +0.000 HD
ATOM     36  H   UNL     1      -5.766  13.564  25.119  0.00  0.00    +0.000 HD
ENDBRANCH  33  34
ENDBRANCH  23  31
ENDBRANCH   1  25
TORSDOF 5
ENDMDL
MODEL 7
REMARK VINA RESULT:      -8.3      1.578      1.891
REMARK  Name = 
REMARK  6 active torsions:
REMARK  status: ('A' for Active; 'I' for Inactive)
REMARK    1  A    between atoms: C_1  and  C_2
REMARK    2  A    between atoms: C_5  and  C_6
REMARK    3  A    between atoms: N_8  and  C_9
REMARK    4  A    between atoms: N_12  and  C_13
REMARK    5  A    between atoms: C_24  and  C_25
REMARK    6  A    between atoms: C_29  and  N_30
REMARK                            x       y       z     vdW  Elec       q    Type
REMARK                         _______ _______ _______ _____ _____    ______ ____
ROOT
ATOM      1  C   UNL     1      -0.452  10.457  21.257  0.00  0.00    +0.000 A 
ATOM      2  S   UNL     1       0.281   9.366  22.354  0.00  0.00    +0.000 S 
ATOM      3  C   UNL     1       1.089   8.591  21.050  0.00  0.00    +0.000 A 
ATOM      4  N   UNL     1       1.856   7.495  21.255  0.00  0.00    +0.000 N 
ATOM      5  N   UNL     1       0.887   9.148  19.877  0.00  0.00    +0.000 NA
ATOM      6  C   UNL     1      -0.018  10.200  19.973  0.00  0.00    +0.000 A 
ATOM      7  H   UNL     1       2.053   7.208  22.207  0.00  0.00    +0.000 HD
ENDROOT
BRANCH   4   8
ATOM      8  C   UNL     1       2.073   6.488  20.290  0.00  0.00    +0.000 A 
ATOM      9  C   UNL     1       1.345   5.298  20.354  0.00  0.00    +0.000 A 
ATOM     10  C   UNL     1       1.611   4.250  19.463  0.00  0.00    +0.000 A 
ATOM     11  C   UNL     1       2.613   4.371  18.484  0.00  0.00    +0.000 A 
ATOM     12  C   UNL     1       2.914   3.328  17.593  0.00  0.00    +0.000 A 
ATOM     13  C   UNL     1       3.921   3.476  16.635  0.00  0.00    +0.000 A 
ATOM     14  C   UNL     1       4.635   4.666  16.551  0.00  0.00    +0.000 A 
ATOM     15  C   UNL     1       4.349   5.710  17.428  0.00  0.00    +0.000 A 
ATOM     16  C   UNL     1       3.344   5.569  18.399  0.00  0.00    +0.000 A 
ATOM     17  C   UNL     1       3.065   6.607  19.302  0.00  0.00    +0.000 A 
ENDBRANCH   4   8
BRANCH   6  18
ATOM     18  C   UNL     1      -0.369  10.967  18.785  0.00  0.00    +0.000 C 
ATOM     19  N   UNL     1      -0.516  10.201  17.663  0.00  0.00    +0.000 N 
ATOM     20  O   UNL     1      -0.509  12.188  18.780  0.00  0.00    +0.000 OA
ATOM     21  H   UNL     1      -0.312   9.207  17.720  0.00  0.00    +0.000 HD
ATOM     22  H   UNL     1      -0.654  10.637  16.766  0.00  0.00    +0.000 HD
ENDBRANCH   6  18
BRANCH   1  25
ATOM     23  C   UNL     1      -0.959  12.591  22.225  0.00  0.00    +0.000 C 
ATOM     24  O   UNL     1       0.210  12.978  22.165  0.00  0.00    +0.000 OA
ATOM     25  N   UNL     1      -1.391  11.369  21.729  0.00  0.00    +0.000 N 
ATOM     26  H   UNL     1      -2.291  11.364  21.258  0.00  0.00    +0.000 HD
BRANCH  23  31
ATOM     27  C   UNL     1      -4.624  16.438  24.595  0.00  0.00    +0.000 C 
ATOM     28  C   UNL     1      -3.702  15.438  23.952  0.00  0.00    +0.000 A 
ATOM     29  C   UNL     1      -3.891  14.063  24.191  0.00  0.00    +0.000 A 
ATOM     30  C   UNL     1      -3.036  13.102  23.632  0.00  0.00    +0.000 A 
ATOM     31  C   UNL     1      -1.976  13.510  22.821  0.00  0.00    +0.000 A 
ATOM     32  C   UNL     1      -1.792  14.885  22.591  0.00  0.00    +0.000 A 
ATOM     33  C   UNL     1      -2.657  15.852  23.114  0.00  0.00    +0.000 A 
BRANCH  33  34
ATOM     34  N   UNL     1      -2.307  17.204  22.982  0.00  0.00    +0.000 N 
ATOM     35  H   UNL     1      -1.470  17.360  22.427  0.00  0.00    +0.000 HD
ATOM     36  H   UNL     1      -3.067  17.818  22.710  0.00  0.00    +0.000 HD
ENDBRANCH  33  34
ENDBRANCH  23  31
ENDBRANCH   1  25
TORSDOF 5
ENDMDL
MODEL 8
REMARK VINA RESULT:      -8.3      1.848      2.646
REMARK  Name = 
REMARK  6 active torsions:
REMARK  status: ('A' for Active; 'I' for Inactive)
REMARK    1  A    between atoms: C_1  and  C_2
REMARK    2  A    between atoms: C_5  and  C_6
REMARK    3  A    between atoms: N_8  and  C_9
REMARK    4  A    between atoms: N_12  and  C_13
REMARK    5  A    between atoms: C_24  and  C_25
REMARK    6  A    between atoms: C_29  and  N_30
REMARK                            x       y       z     vdW  Elec       q    Type
REMARK                         _______ _______ _______ _____ _____    ______ ____
ROOT
ATOM      1  C   UNL     1      -0.709  11.134  20.722  0.00  0.00    +0.000 A 
ATOM      2  S   UNL     1       0.224  10.338  21.916  0.00  0.00    +0.000 S 
ATOM      3  C   UNL     1       0.913   9.327  20.709  0.00  0.00    +0.000 A 
ATOM      4  N   UNL     1       1.771   8.332  21.036  0.00  0.00    +0.000 N 
ATOM      5  N   UNL     1       0.531   9.605  19.483  0.00  0.00    +0.000 NA
ATOM      6  C   UNL     1      -0.422  10.618  19.475  0.00  0.00    +0.000 A 
ATOM      7  H   UNL     1       2.103   8.268  21.992  0.00  0.00    +0.000 HD
ENDROOT
BRANCH   4   8
ATOM      8  C   UNL     1       1.932   7.147  20.286  0.00  0.00    +0.000 A 
ATOM      9  C   UNL     1       2.447   7.212  18.990  0.00  0.00    +0.000 A 
ATOM     10  C   UNL     1       2.526   6.061  18.195  0.00  0.00    +0.000 A 
ATOM     11  C   UNL     1       2.094   4.816  18.683  0.00  0.00    +0.000 A 
ATOM     12  C   UNL     1       2.143   3.650  17.900  0.00  0.00    +0.000 A 
ATOM     13  C   UNL     1       1.699   2.427  18.411  0.00  0.00    +0.000 A 
ATOM     14  C   UNL     1       1.205   2.352  19.709  0.00  0.00    +0.000 A 
ATOM     15  C   UNL     1       1.149   3.498  20.498  0.00  0.00    +0.000 A 
ATOM     16  C   UNL     1       1.587   4.732  19.993  0.00  0.00    +0.000 A 
ATOM     17  C   UNL     1       1.512   5.897  20.772  0.00  0.00    +0.000 A 
ENDBRANCH   4   8
BRANCH   6  18
ATOM     18  C   UNL     1      -0.968  11.092  18.211  0.00  0.00    +0.000 C 
ATOM     19  N   UNL     1      -1.183  10.096  17.299  0.00  0.00    +0.000 N 
ATOM     20  O   UNL     1      -1.204  12.275  17.971  0.00  0.00    +0.000 OA
ATOM     21  H   UNL     1      -0.895   9.150  17.533  0.00  0.00    +0.000 HD
ATOM     22  H   UNL     1      -1.457  10.322  16.357  0.00  0.00    +0.000 HD
ENDBRANCH   6  18
BRANCH   1  25
ATOM     23  C   UNL     1      -2.240  11.985  22.358  0.00  0.00    +0.000 C 
ATOM     24  O   UNL     1      -1.912  11.154  23.207  0.00  0.00    +0.000 OA
ATOM     25  N   UNL     1      -1.640  12.092  21.112  0.00  0.00    +0.000 N 
ATOM     26  H   UNL     1      -1.482  13.034  20.764  0.00  0.00    +0.000 HD
BRANCH  23  31
ATOM     27  C   UNL     1      -6.290  15.776  24.115  0.00  0.00    +0.000 C 
ATOM     28  C   UNL     1      -5.233  14.821  23.631  0.00  0.00    +0.000 A 
ATOM     29  C   UNL     1      -5.528  13.928  22.582  0.00  0.00    +0.000 A 
ATOM     30  C   UNL     1      -4.578  13.005  22.124  0.00  0.00    +0.000 A 
ATOM     31  C   UNL     1      -3.313  12.966  22.711  0.00  0.00    +0.000 A 
ATOM     32  C   UNL     1      -3.027  13.858  23.760  0.00  0.00    +0.000 A 
ATOM     33  C   UNL     1      -3.953  14.807  24.206  0.00  0.00    +0.000 A 
BRANCH  33  34
ATOM     34  N   UNL     1      -3.656  15.539  25.364  0.00  0.00    +0.000 N 
ATOM     35  H   UNL     1      -4.392  15.519  26.064  0.00  0.00    +0.000 HD
ATOM     36  H   UNL     1      -2.742  15.354  25.764  0.00  0.00    +0.000 HD
ENDBRANCH  33  34
ENDBRANCH  23  31
ENDBRANCH   1  25
TORSDOF 5
ENDMDL
MODEL 9
REMARK VINA RESULT:      -8.1      1.522      1.924
REMARK  Name = 
REMARK  6 active torsions:
REMARK  status: ('A' for Active; 'I' for Inactive)
REMARK    1  A    between atoms: C_1  and  C_2
REMARK    2  A    between atoms: C_5  and  C_6
REMARK    3  A    between atoms: N_8  and  C_9
REMARK    4  A    between atoms: N_12  and  C_13
REMARK    5  A    between atoms: C_24  and  C_25
REMARK    6  A    between atoms: C_29  and  N_30
REMARK                            x       y       z     vdW  Elec       q    Type
REMARK                         _______ _______ _______ _____ _____    ______ ____
ROOT
ATOM      1  C   UNL     1       0.513   9.181  20.324  0.00  0.00    +0.000 A 
ATOM      2  S   UNL     1       0.982   7.762  21.159  0.00  0.00    +0.000 S 
ATOM      3  C   UNL     1       2.154   7.430  19.946  0.00  0.00    +0.000 A 
ATOM      4  N   UNL     1       2.897   6.299  19.983  0.00  0.00    +0.000 N 
ATOM      5  N   UNL     1       2.245   8.350  19.012  0.00  0.00    +0.000 NA
ATOM      6  C   UNL     1       1.291   9.345  19.196  0.00  0.00    +0.000 A 
ATOM      7  H   UNL     1       2.845   5.708  20.804  0.00  0.00    +0.000 HD
ENDROOT
BRANCH   4   8
ATOM      8  C   UNL     1       3.422   5.659  18.840  0.00  0.00    +0.000 A 
ATOM      9  C   UNL     1       2.792   4.522  18.332  0.00  0.00    +0.000 A 
ATOM     10  C   UNL     1       3.348   3.818  17.256  0.00  0.00    +0.000 A 
ATOM     11  C   UNL     1       4.550   4.239  16.662  0.00  0.00    +0.000 A 
ATOM     12  C   UNL     1       5.140   3.540  15.596  0.00  0.00    +0.000 A 
ATOM     13  C   UNL     1       6.340   3.981  15.030  0.00  0.00    +0.000 A 
ATOM     14  C   UNL     1       6.962   5.126  15.517  0.00  0.00    +0.000 A 
ATOM     15  C   UNL     1       6.389   5.831  16.574  0.00  0.00    +0.000 A 
ATOM     16  C   UNL     1       5.188   5.393  17.153  0.00  0.00    +0.000 A 
ATOM     17  C   UNL     1       4.616   6.083  18.233  0.00  0.00    +0.000 A 
ENDBRANCH   4   8
BRANCH   6  18
ATOM     18  C   UNL     1       1.231  10.473  18.276  0.00  0.00    +0.000 C 
ATOM     19  N   UNL     1      -0.024  10.720  17.794  0.00  0.00    +0.000 N 
ATOM     20  O   UNL     1       2.212  11.137  17.949  0.00  0.00    +0.000 OA
ATOM     21  H   UNL     1      -0.777  10.087  18.046  0.00  0.00    +0.000 HD
ATOM     22  H   UNL     1      -0.163  11.407  17.072  0.00  0.00    +0.000 HD
ENDBRANCH   6  18
BRANCH   1  25
ATOM     23  C   UNL     1      -0.331  11.103  21.480  0.00  0.00    +0.000 C 
ATOM     24  O   UNL     1       0.785  11.612  21.603  0.00  0.00    +0.000 OA
ATOM     25  N   UNL     1      -0.568   9.922  20.793  0.00  0.00    +0.000 N 
ATOM     26  H   UNL     1      -1.410   9.888  20.224  0.00  0.00    +0.000 HD
BRANCH  23  31
ATOM     27  C   UNL     1      -4.747  14.255  23.584  0.00  0.00    +0.000 C 
ATOM     28  C   UNL     1      -3.631  13.413  23.026  0.00  0.00    +0.000 A 
ATOM     29  C   UNL     1      -3.119  12.345  23.787  0.00  0.00    +0.000 A 
ATOM     30  C   UNL     1      -2.061  11.555  23.313  0.00  0.00    +0.000 A 
ATOM     31  C   UNL     1      -1.503  11.827  22.064  0.00  0.00    +0.000 A 
ATOM     32  C   UNL     1      -2.018  12.898  21.312  0.00  0.00    +0.000 A 
ATOM     33  C   UNL     1      -3.094  13.672  21.757  0.00  0.00    +0.000 A 
BRANCH  33  34
ATOM     34  N   UNL     1      -3.434  14.824  21.032  0.00  0.00    +0.000 N 
ATOM     35  H   UNL     1      -2.787  15.043  20.280  0.00  0.00    +0.000 HD
ATOM     36  H   UNL     1      -4.402  14.868  20.730  0.00  0.00    +0.000 HD
ENDBRANCH  33  34
ENDBRANCH  23  31
ENDBRANCH   1  25
TORSDOF 5
ENDMDL
