MODEL 1
REMARK VINA RESULT:      -7.1      0.000      0.000
REMARK  Name = 
REMARK  7 active torsions:
REMARK  status: ('A' for Active; 'I' for Inactive)
REMARK    1  A    between atoms: C_1  and  C_2
REMARK    2  A    between atoms: C_2  and  C_3
REMARK    3  A    between atoms: C_2  and  C_4
REMARK    4  A    between atoms: C_4  and  O_5
REMARK    5  A    between atoms: C_4  and  C_6
REMARK    6  A    between atoms: C_6  and  C_7
REMARK    7  A    between atoms: C_19  and  C_20
REMARK                            x       y       z     vdW  Elec       q    Type
REMARK                         _______ _______ _______ _____ _____    ______ ____
ROOT
ATOM      1  C   UNL     1       1.955   3.271  18.109  0.00  0.00    +0.000 A 
ATOM      2  C   UNL     1       2.824   2.434  17.430  0.00  0.00    +0.000 A 
ATOM      3  C   UNL     1       3.876   3.229  16.924  0.00  0.00    +0.000 A 
ATOM      4  C   UNL     1       3.602   4.532  17.283  0.00  0.00    +0.000 A 
ATOM      5  C   UNL     1       4.265   5.781  17.045  0.00  0.00    +0.000 A 
ATOM      6  N   UNL     1       5.383   5.859  16.248  0.00  0.00    +0.000 N 
ATOM      7  C   UNL     1       5.389   5.424  14.847  0.00  0.00    +0.000 C 
ATOM      8  C   UNL     1       6.606   4.525  14.593  0.00  0.00    +0.000 C 
ATOM      9  O   UNL     1       7.828   5.172  14.988  0.00  0.00    +0.000 OA
ATOM     10  C   UNL     1       7.783   5.536  16.382  0.00  0.00    +0.000 C 
ATOM     11  C   UNL     1       6.621   6.499  16.674  0.00  0.00    +0.000 C 
ATOM     12  N   UNL     1       3.776   6.839  17.625  0.00  0.00    +0.000 NA
ATOM     13  C   UNL     1       2.602   6.736  18.344  0.00  0.00    +0.000 A 
ATOM     14  N   UNL     1       1.956   5.639  18.595  0.00  0.00    +0.000 NA
ATOM     15  N   UNL     1       2.484   4.538  18.051  0.00  0.00    +0.000 N 
ENDROOT
BRANCH  13  16
ATOM     16  C   UNL     1       1.996   8.006  18.805  0.00  0.00    +0.000 A 
ATOM     17  C   UNL     1       1.674   9.051  17.972  0.00  0.00    +0.000 A 
ATOM     18  N   UNL     1       1.011  10.162  18.386  0.00  0.00    +0.000 NA
ATOM     19  C   UNL     1       0.651  10.204  19.674  0.00  0.00    +0.000 A 
ATOM     20  N   UNL     1      -0.076  11.285  20.113  0.00  0.00    +0.000 N 
ATOM     21  N   UNL     1       0.958   9.268  20.582  0.00  0.00    +0.000 NA
ATOM     22  C   UNL     1       1.620   8.182  20.120  0.00  0.00    +0.000 A 
ATOM     23  H   UNL     1       0.079  12.083  19.515  0.00  0.00    +0.000 HD
ATOM     24  H   UNL     1       0.043  11.405  21.108  0.00  0.00    +0.000 HD
ENDBRANCH  13  16
BRANCH   1  25
ATOM     25  C   UNL     1       0.638   2.988  18.770  0.00  0.00    +0.000 C 
BRANCH  25  26
ATOM     26  C   UNL     1       0.645   3.227  20.293  0.00  0.00    +0.000 C 
BRANCH  26  28
ATOM     27  C   UNL     1       2.560   4.233  21.613  0.00  0.00    +0.000 C 
ATOM     28  C   UNL     1       2.029   2.962  20.935  0.00  0.00    +0.000 C 
ATOM     29  C   UNL     1       2.018   1.816  21.950  0.00  0.00    +0.000 C 
ENDBRANCH  26  28
BRANCH  26  30
ATOM     30  O   UNL     1       0.293   4.587  20.589  0.00  0.00    +0.000 OA
ATOM     31  H   UNL     1       0.269   4.682  21.556  0.00  0.00    +0.000 HD
ENDBRANCH  26  30
ENDBRANCH  25  26
ENDBRANCH   1  25
TORSDOF 5
ENDMDL
MODEL 2
REMARK VINA RESULT:      -6.8      5.066      8.623
REMARK  Name = 
REMARK  7 active torsions:
REMARK  status: ('A' for Active; 'I' for Inactive)
REMARK    1  A    between atoms: C_1  and  C_2
REMARK    2  A    between atoms: C_2  and  C_3
REMARK    3  A    between atoms: C_2  and  C_4
REMARK    4  A    between atoms: C_4  and  O_5
REMARK    5  A    between atoms: C_4  and  C_6
REMARK    6  A    between atoms: C_6  and  C_7
REMARK    7  A    between atoms: C_19  and  C_20
REMARK                            x       y       z     vdW  Elec       q    Type
REMARK                         _______ _______ _______ _____ _____    ______ ____
ROOT
ATOM      1  C   UNL     1      -3.473  11.286  17.919  0.00  0.00    +0.000 A 
ATOM      2  C   UNL     1      -2.923  10.367  17.043  0.00  0.00    +0.000 A 
ATOM      3  C   UNL     1      -1.681   9.957  17.576  0.00  0.00    +0.000 A 
ATOM      4  C   UNL     1      -1.495  10.661  18.747  0.00  0.00    +0.000 A 
ATOM      5  C   UNL     1      -0.437  10.708  19.712  0.00  0.00    +0.000 A 
ATOM      6  N   UNL     1       0.734  10.009  19.528  0.00  0.00    +0.000 N 
ATOM      7  C   UNL     1       1.597  10.205  18.359  0.00  0.00    +0.000 C 
ATOM      8  C   UNL     1       1.965   8.842  17.757  0.00  0.00    +0.000 C 
ATOM      9  O   UNL     1       2.542   7.971  18.745  0.00  0.00    +0.000 OA
ATOM     10  C   UNL     1       1.633   7.780  19.847  0.00  0.00    +0.000 C 
ATOM     11  C   UNL     1       1.292   9.112  20.533  0.00  0.00    +0.000 C 
ATOM     12  N   UNL     1      -0.630  11.427  20.781  0.00  0.00    +0.000 NA
ATOM     13  C   UNL     1      -1.780  12.184  20.887  0.00  0.00    +0.000 A 
ATOM     14  N   UNL     1      -2.772  12.186  20.052  0.00  0.00    +0.000 NA
ATOM     15  N   UNL     1      -2.606  11.405  18.979  0.00  0.00    +0.000 N 
ENDROOT
BRANCH  13  16
ATOM     16  C   UNL     1      -1.845  13.129  22.026  0.00  0.00    +0.000 A 
ATOM     17  C   UNL     1      -2.997  13.420  22.719  0.00  0.00    +0.000 A 
ATOM     18  N   UNL     1      -3.024  14.193  23.834  0.00  0.00    +0.000 NA
ATOM     19  C   UNL     1      -1.851  14.669  24.268  0.00  0.00    +0.000 A 
ATOM     20  N   UNL     1      -1.835  15.404  25.429  0.00  0.00    +0.000 N 
ATOM     21  N   UNL     1      -0.681  14.491  23.643  0.00  0.00    +0.000 NA
ATOM     22  C   UNL     1      -0.705  13.713  22.535  0.00  0.00    +0.000 A 
ATOM     23  H   UNL     1      -2.740  15.815  25.602  0.00  0.00    +0.000 HD
ATOM     24  H   UNL     1      -1.026  16.008  25.448  0.00  0.00    +0.000 HD
ENDBRANCH  13  16
BRANCH   1  25
ATOM     25  C   UNL     1      -4.728  12.103  17.824  0.00  0.00    +0.000 C 
BRANCH  25  26
ATOM     26  C   UNL     1      -6.020  11.263  17.871  0.00  0.00    +0.000 C 
BRANCH  26  28
ATOM     27  C   UNL     1      -7.427  11.852  19.894  0.00  0.00    +0.000 C 
ATOM     28  C   UNL     1      -6.416  10.855  19.311  0.00  0.00    +0.000 C 
ATOM     29  C   UNL     1      -6.992   9.440  19.403  0.00  0.00    +0.000 C 
ENDBRANCH  26  28
BRANCH  26  30
ATOM     30  O   UNL     1      -7.120  12.004  17.321  0.00  0.00    +0.000 OA
ATOM     31  H   UNL     1      -7.344  11.606  16.464  0.00  0.00    +0.000 HD
ENDBRANCH  26  30
ENDBRANCH  25  26
ENDBRANCH   1  25
TORSDOF 5
ENDMDL
MODEL 3
REMARK VINA RESULT:      -6.7      5.054      8.647
REMARK  Name = 
REMARK  7 active torsions:
REMARK  status: ('A' for Active; 'I' for Inactive)
REMARK    1  A    between atoms: C_1  and  C_2
REMARK    2  A    between atoms: C_2  and  C_3
REMARK    3  A    between atoms: C_2  and  C_4
REMARK    4  A    between atoms: C_4  and  O_5
REMARK    5  A    between atoms: C_4  and  C_6
REMARK    6  A    between atoms: C_6  and  C_7
REMARK    7  A    between atoms: C_19  and  C_20
REMARK                            x       y       z     vdW  Elec       q    Type
REMARK                         _______ _______ _______ _____ _____    ______ ____
ROOT
ATOM      1  C   UNL     1      -3.475  11.358  18.235  0.00  0.00    +0.000 A 
ATOM      2  C   UNL     1      -2.962  10.490  17.288  0.00  0.00    +0.000 A 
ATOM      3  C   UNL     1      -1.700  10.052  17.748  0.00  0.00    +0.000 A 
ATOM      4  C   UNL     1      -1.468  10.691  18.948  0.00  0.00    +0.000 A 
ATOM      5  C   UNL     1      -0.372  10.686  19.872  0.00  0.00    +0.000 A 
ATOM      6  N   UNL     1       0.790  10.000  19.603  0.00  0.00    +0.000 N 
ATOM      7  C   UNL     1       1.606  10.261  18.414  0.00  0.00    +0.000 C 
ATOM      8  C   UNL     1       1.949   8.933  17.724  0.00  0.00    +0.000 C 
ATOM      9  O   UNL     1       2.564   8.009  18.639  0.00  0.00    +0.000 OA
ATOM     10  C   UNL     1       1.699   7.757  19.763  0.00  0.00    +0.000 C 
ATOM     11  C   UNL     1       1.386   9.049  20.534  0.00  0.00    +0.000 C 
ATOM     12  N   UNL     1      -0.522  11.344  20.985  0.00  0.00    +0.000 NA
ATOM     13  C   UNL     1      -1.666  12.094  21.179  0.00  0.00    +0.000 A 
ATOM     14  N   UNL     1      -2.690  12.140  20.384  0.00  0.00    +0.000 NA
ATOM     15  N   UNL     1      -2.567  11.420  19.265  0.00  0.00    +0.000 N 
ENDROOT
BRANCH  13  16
ATOM     16  C   UNL     1      -1.685  12.974  22.370  0.00  0.00    +0.000 A 
ATOM     17  C   UNL     1      -0.649  13.804  22.729  0.00  0.00    +0.000 A 
ATOM     18  N   UNL     1      -0.723  14.693  23.752  0.00  0.00    +0.000 NA
ATOM     19  C   UNL     1      -1.883  14.754  24.416  0.00  0.00    +0.000 A 
ATOM     20  N   UNL     1      -2.013  15.687  25.417  0.00  0.00    +0.000 N 
ATOM     21  N   UNL     1      -2.935  13.959  24.184  0.00  0.00    +0.000 NA
ATOM     22  C   UNL     1      -2.812  13.089  23.154  0.00  0.00    +0.000 A 
ATOM     23  H   UNL     1      -1.108  15.945  25.782  0.00  0.00    +0.000 HD
ATOM     24  H   UNL     1      -2.726  15.400  26.071  0.00  0.00    +0.000 HD
ENDBRANCH  13  16
BRANCH   1  25
ATOM     25  C   UNL     1      -4.733  12.178  18.234  0.00  0.00    +0.000 C 
BRANCH  25  26
ATOM     26  C   UNL     1      -5.997  11.374  17.872  0.00  0.00    +0.000 C 
BRANCH  26  28
ATOM     27  C   UNL     1      -6.956   9.557  19.355  0.00  0.00    +0.000 C 
ATOM     28  C   UNL     1      -6.887  11.070  19.101  0.00  0.00    +0.000 C 
ATOM     29  C   UNL     1      -6.420  11.775  20.377  0.00  0.00    +0.000 C 
ENDBRANCH  26  28
BRANCH  26  30
ATOM     30  O   UNL     1      -6.803  12.103  16.933  0.00  0.00    +0.000 OA
ATOM     31  H   UNL     1      -7.697  11.721  16.953  0.00  0.00    +0.000 HD
ENDBRANCH  26  30
ENDBRANCH  25  26
ENDBRANCH   1  25
TORSDOF 5
ENDMDL
MODEL 4
REMARK VINA RESULT:      -6.5      2.093      6.143
REMARK  Name = 
REMARK  7 active torsions:
REMARK  status: ('A' for Active; 'I' for Inactive)
REMARK    1  A    between atoms: C_1  and  C_2
REMARK    2  A    between atoms: C_2  and  C_3
REMARK    3  A    between atoms: C_2  and  C_4
REMARK    4  A    between atoms: C_4  and  O_5
REMARK    5  A    between atoms: C_4  and  C_6
REMARK    6  A    between atoms: C_6  and  C_7
REMARK    7  A    between atoms: C_19  and  C_20
REMARK                            x       y       z     vdW  Elec       q    Type
REMARK                         _______ _______ _______ _____ _____    ______ ____
ROOT
ATOM      1  C   UNL     1       2.713   4.515  20.455  0.00  0.00    +0.000 A 
ATOM      2  C   UNL     1       1.695   5.083  21.200  0.00  0.00    +0.000 A 
ATOM      3  C   UNL     1       1.409   6.348  20.641  0.00  0.00    +0.000 A 
ATOM      4  C   UNL     1       2.281   6.527  19.589  0.00  0.00    +0.000 A 
ATOM      5  C   UNL     1       2.504   7.599  18.663  0.00  0.00    +0.000 A 
ATOM      6  N   UNL     1       1.826   8.791  18.770  0.00  0.00    +0.000 N 
ATOM      7  C   UNL     1       1.878   9.627  19.973  0.00  0.00    +0.000 C 
ATOM      8  C   UNL     1       0.455  10.035  20.379  0.00  0.00    +0.000 C 
ATOM      9  O   UNL     1      -0.243  10.659  19.287  0.00  0.00    +0.000 OA
ATOM     10  C   UNL     1      -0.302   9.776  18.150  0.00  0.00    +0.000 C 
ATOM     11  C   UNL     1       1.104   9.398  17.658  0.00  0.00    +0.000 C 
ATOM     12  N   UNL     1       3.364   7.397  17.707  0.00  0.00    +0.000 NA
ATOM     13  C   UNL     1       4.090   6.223  17.686  0.00  0.00    +0.000 A 
ATOM     14  N   UNL     1       3.937   5.218  18.491  0.00  0.00    +0.000 NA
ATOM     15  N   UNL     1       3.014   5.394  19.442  0.00  0.00    +0.000 N 
ENDROOT
BRANCH  13  16
ATOM     16  C   UNL     1       5.188   6.142  16.695  0.00  0.00    +0.000 A 
ATOM     17  C   UNL     1       6.498   6.454  16.973  0.00  0.00    +0.000 A 
ATOM     18  N   UNL     1       7.515   6.263  16.093  0.00  0.00    +0.000 NA
ATOM     19  C   UNL     1       7.197   5.726  14.909  0.00  0.00    +0.000 A 
ATOM     20  N   UNL     1       8.210   5.462  14.020  0.00  0.00    +0.000 N 
ATOM     21  N   UNL     1       5.950   5.435  14.517  0.00  0.00    +0.000 NA
ATOM     22  C   UNL     1       4.972   5.643  15.429  0.00  0.00    +0.000 A 
ATOM     23  H   UNL     1       9.010   6.049  14.207  0.00  0.00    +0.000 HD
ATOM     24  H   UNL     1       7.849   5.437  13.077  0.00  0.00    +0.000 HD
ENDBRANCH  13  16
BRANCH   1  25
ATOM     25  C   UNL     1       3.464   3.229  20.641  0.00  0.00    +0.000 C 
BRANCH  25  26
ATOM     26  C   UNL     1       3.192   2.187  19.538  0.00  0.00    +0.000 C 
BRANCH  26  28
ATOM     27  C   UNL     1       2.463   2.281  17.114  0.00  0.00    +0.000 C 
ATOM     28  C   UNL     1       2.077   2.627  18.559  0.00  0.00    +0.000 C 
ATOM     29  C   UNL     1       0.712   2.011  18.878  0.00  0.00    +0.000 C 
ENDBRANCH  26  28
BRANCH  26  30
ATOM     30  O   UNL     1       4.377   1.960  18.759  0.00  0.00    +0.000 OA
ATOM     31  H   UNL     1       4.670   2.820  18.412  0.00  0.00    +0.000 HD
ENDBRANCH  26  30
ENDBRANCH  25  26
ENDBRANCH   1  25
TORSDOF 5
ENDMDL
MODEL 5
REMARK VINA RESULT:      -6.4      1.533      5.538
REMARK  Name = 
REMARK  7 active torsions:
REMARK  status: ('A' for Active; 'I' for Inactive)
REMARK    1  A    between atoms: C_1  and  C_2
REMARK    2  A    between atoms: C_2  and  C_3
REMARK    3  A    between atoms: C_2  and  C_4
REMARK    4  A    between atoms: C_4  and  O_5
REMARK    5  A    between atoms: C_4  and  C_6
REMARK    6  A    between atoms: C_6  and  C_7
REMARK    7  A    between atoms: C_19  and  C_20
REMARK                            x       y       z     vdW  Elec       q    Type
REMARK                         _______ _______ _______ _____ _____    ______ ____
ROOT
ATOM      1  C   UNL     1       4.789   5.771  16.743  0.00  0.00    +0.000 A 
ATOM      2  C   UNL     1       4.994   4.437  17.049  0.00  0.00    +0.000 A 
ATOM      3  C   UNL     1       4.125   4.102  18.110  0.00  0.00    +0.000 A 
ATOM      4  C   UNL     1       3.436   5.250  18.441  0.00  0.00    +0.000 A 
ATOM      5  C   UNL     1       2.451   5.557  19.437  0.00  0.00    +0.000 A 
ATOM      6  N   UNL     1       2.066   4.628  20.375  0.00  0.00    +0.000 N 
ATOM      7  C   UNL     1       3.013   3.997  21.299  0.00  0.00    +0.000 C 
ATOM      8  C   UNL     1       2.798   2.477  21.299  0.00  0.00    +0.000 C 
ATOM      9  O   UNL     1       1.428   2.141  21.578  0.00  0.00    +0.000 OA
ATOM     10  C   UNL     1       0.549   2.751  20.613  0.00  0.00    +0.000 C 
ATOM     11  C   UNL     1       0.672   4.283  20.628  0.00  0.00    +0.000 C 
ATOM     12  N   UNL     1       1.923   6.746  19.411  0.00  0.00    +0.000 NA
ATOM     13  C   UNL     1       2.399   7.680  18.511  0.00  0.00    +0.000 A 
ATOM     14  N   UNL     1       3.285   7.466  17.589  0.00  0.00    +0.000 NA
ATOM     15  N   UNL     1       3.792   6.229  17.571  0.00  0.00    +0.000 N 
ENDROOT
BRANCH  13  16
ATOM     16  C   UNL     1       1.898   9.065  18.669  0.00  0.00    +0.000 A 
ATOM     17  C   UNL     1       1.010   9.454  19.643  0.00  0.00    +0.000 A 
ATOM     18  N   UNL     1       0.649  10.746  19.854  0.00  0.00    +0.000 NA
ATOM     19  C   UNL     1       1.219  11.667  19.068  0.00  0.00    +0.000 A 
ATOM     20  N   UNL     1       0.924  12.990  19.295  0.00  0.00    +0.000 N 
ATOM     21  N   UNL     1       2.054  11.394  18.058  0.00  0.00    +0.000 NA
ATOM     22  C   UNL     1       2.382  10.092  17.888  0.00  0.00    +0.000 A 
ATOM     23  H   UNL     1       0.035  13.081  19.764  0.00  0.00    +0.000 HD
ATOM     24  H   UNL     1       1.076  13.531  18.456  0.00  0.00    +0.000 HD
ENDBRANCH  13  16
BRANCH   1  25
ATOM     25  C   UNL     1       5.486   6.672  15.765  0.00  0.00    +0.000 C 
BRANCH  25  26
ATOM     26  C   UNL     1       6.959   6.952  16.122  0.00  0.00    +0.000 C 
BRANCH  26  28
ATOM     27  C   UNL     1       7.798   6.346  18.434  0.00  0.00    +0.000 C 
ATOM     28  C   UNL     1       7.141   7.439  17.581  0.00  0.00    +0.000 C 
ATOM     29  C   UNL     1       7.959   8.728  17.693  0.00  0.00    +0.000 C 
ENDBRANCH  26  28
BRANCH  26  30
ATOM     30  O   UNL     1       7.747   5.762  15.970  0.00  0.00    +0.000 OA
ATOM     31  H   UNL     1       8.596   5.910  16.421  0.00  0.00    +0.000 HD
ENDBRANCH  26  30
ENDBRANCH  25  26
ENDBRANCH   1  25
TORSDOF 5
ENDMDL
MODEL 6
REMARK VINA RESULT:      -6.3      4.517      8.992
REMARK  Name = 
REMARK  7 active torsions:
REMARK  status: ('A' for Active; 'I' for Inactive)
REMARK    1  A    between atoms: C_1  and  C_2
REMARK    2  A    between atoms: C_2  and  C_3
REMARK    3  A    between atoms: C_2  and  C_4
REMARK    4  A    between atoms: C_4  and  O_5
REMARK    5  A    between atoms: C_4  and  C_6
REMARK    6  A    between atoms: C_6  and  C_7
REMARK    7  A    between atoms: C_19  and  C_20
REMARK                            x       y       z     vdW  Elec       q    Type
REMARK                         _______ _______ _______ _____ _____    ______ ____
ROOT
ATOM      1  C   UNL     1       0.040   9.269  21.459  0.00  0.00    +0.000 A 
ATOM      2  C   UNL     1       0.317   9.878  22.670  0.00  0.00    +0.000 A 
ATOM      3  C   UNL     1      -0.333  11.132  22.677  0.00  0.00    +0.000 A 
ATOM      4  C   UNL     1      -0.962  11.264  21.457  0.00  0.00    +0.000 A 
ATOM      5  C   UNL     1      -1.745  12.305  20.858  0.00  0.00    +0.000 A 
ATOM      6  N   UNL     1      -1.934  13.513  21.489  0.00  0.00    +0.000 N 
ATOM      7  C   UNL     1      -0.822  14.381  21.886  0.00  0.00    +0.000 C 
ATOM      8  C   UNL     1      -1.013  14.829  23.342  0.00  0.00    +0.000 C 
ATOM      9  O   UNL     1      -2.302  15.436  23.539  0.00  0.00    +0.000 OA
ATOM     10  C   UNL     1      -3.355  14.523  23.175  0.00  0.00    +0.000 C 
ATOM     11  C   UNL     1      -3.251  14.103  21.700  0.00  0.00    +0.000 C 
ATOM     12  N   UNL     1      -2.285  12.059  19.699  0.00  0.00    +0.000 NA
ATOM     13  C   UNL     1      -1.998  10.870  19.058  0.00  0.00    +0.000 A 
ATOM     14  N   UNL     1      -1.300   9.891  19.544  0.00  0.00    +0.000 NA
ATOM     15  N   UNL     1      -0.789  10.113  20.759  0.00  0.00    +0.000 N 
ENDROOT
BRANCH  13  16
ATOM     16  C   UNL     1      -2.479  10.739  17.663  0.00  0.00    +0.000 A 
ATOM     17  C   UNL     1      -1.935   9.876  16.741  0.00  0.00    +0.000 A 
ATOM     18  N   UNL     1      -2.458   9.677  15.503  0.00  0.00    +0.000 NA
ATOM     19  C   UNL     1      -3.569  10.358  15.201  0.00  0.00    +0.000 A 
ATOM     20  N   UNL     1      -4.159  10.134  13.980  0.00  0.00    +0.000 N 
ATOM     21  N   UNL     1      -4.150  11.260  16.002  0.00  0.00    +0.000 NA
ATOM     22  C   UNL     1      -3.592  11.423  17.224  0.00  0.00    +0.000 A 
ATOM     23  H   UNL     1      -3.484   9.780  13.319  0.00  0.00    +0.000 HD
ATOM     24  H   UNL     1      -4.716  10.931  13.710  0.00  0.00    +0.000 HD
ENDBRANCH  13  16
BRANCH   1  25
ATOM     25  C   UNL     1       0.528   7.974  20.879  0.00  0.00    +0.000 C 
BRANCH  25  26
ATOM     26  C   UNL     1       1.829   8.111  20.063  0.00  0.00    +0.000 C 
BRANCH  26  28
ATOM     27  C   UNL     1       1.775   5.618  20.509  0.00  0.00    +0.000 C 
ATOM     28  C   UNL     1       2.486   6.745  19.748  0.00  0.00    +0.000 C 
ATOM     29  C   UNL     1       2.505   6.412  18.254  0.00  0.00    +0.000 C 
ENDBRANCH  26  28
BRANCH  26  30
ATOM     30  O   UNL     1       1.568   8.757  18.807  0.00  0.00    +0.000 OA
ATOM     31  H   UNL     1       1.052   8.141  18.260  0.00  0.00    +0.000 HD
ENDBRANCH  26  30
ENDBRANCH  25  26
ENDBRANCH   1  25
TORSDOF 5
ENDMDL
MODEL 7
REMARK VINA RESULT:      -6.3      2.693      6.977
REMARK  Name = 
REMARK  7 active torsions:
REMARK  status: ('A' for Active; 'I' for Inactive)
REMARK    1  A    between atoms: C_1  and  C_2
REMARK    2  A    between atoms: C_2  and  C_3
REMARK    3  A    between atoms: C_2  and  C_4
REMARK    4  A    between atoms: C_4  and  O_5
REMARK    5  A    between atoms: C_4  and  C_6
REMARK    6  A    between atoms: C_6  and  C_7
REMARK    7  A    between atoms: C_19  and  C_20
REMARK                            x       y       z     vdW  Elec       q    Type
REMARK                         _______ _______ _______ _____ _____    ______ ____
ROOT
ATOM      1  C   UNL     1       2.616   8.004  18.649  0.00  0.00    +0.000 A 
ATOM      2  C   UNL     1       1.793   7.745  19.729  0.00  0.00    +0.000 A 
ATOM      3  C   UNL     1       1.907   6.371  20.035  0.00  0.00    +0.000 A 
ATOM      4  C   UNL     1       2.774   5.826  19.112  0.00  0.00    +0.000 A 
ATOM      5  C   UNL     1       3.263   4.498  18.881  0.00  0.00    +0.000 A 
ATOM      6  N   UNL     1       2.803   3.428  19.613  0.00  0.00    +0.000 N 
ATOM      7  C   UNL     1       1.387   3.053  19.663  0.00  0.00    +0.000 C 
ATOM      8  C   UNL     1       0.964   2.836  21.123  0.00  0.00    +0.000 C 
ATOM      9  O   UNL     1       1.822   1.889  21.783  0.00  0.00    +0.000 OA
ATOM     10  C   UNL     1       3.193   2.331  21.741  0.00  0.00    +0.000 C 
ATOM     11  C   UNL     1       3.689   2.491  20.295  0.00  0.00    +0.000 C 
ATOM     12  N   UNL     1       4.171   4.344  17.961  0.00  0.00    +0.000 NA
ATOM     13  C   UNL     1       4.540   5.427  17.187  0.00  0.00    +0.000 A 
ATOM     14  N   UNL     1       4.137   6.649  17.344  0.00  0.00    +0.000 NA
ATOM     15  N   UNL     1       3.247   6.826  18.326  0.00  0.00    +0.000 N 
ENDROOT
BRANCH  13  16
ATOM     16  C   UNL     1       5.423   5.142  16.032  0.00  0.00    +0.000 A 
ATOM     17  C   UNL     1       5.037   4.417  14.930  0.00  0.00    +0.000 A 
ATOM     18  N   UNL     1       5.813   4.263  13.826  0.00  0.00    +0.000 NA
ATOM     19  C   UNL     1       7.002   4.876  13.834  0.00  0.00    +0.000 A 
ATOM     20  N   UNL     1       7.786   4.793  12.708  0.00  0.00    +0.000 N 
ATOM     21  N   UNL     1       7.498   5.562  14.872  0.00  0.00    +0.000 NA
ATOM     22  C   UNL     1       6.687   5.686  15.949  0.00  0.00    +0.000 A 
ATOM     23  H   UNL     1       7.545   3.976  12.168  0.00  0.00    +0.000 HD
ATOM     24  H   UNL     1       8.757   4.936  12.948  0.00  0.00    +0.000 HD
ENDBRANCH  13  16
BRANCH   1  25
ATOM     25  C   UNL     1       2.828   9.261  17.856  0.00  0.00    +0.000 C 
BRANCH  25  26
ATOM     26  C   UNL     1       1.610  10.206  17.854  0.00  0.00    +0.000 C 
BRANCH  26  28
ATOM     27  C   UNL     1       1.233  11.358  20.079  0.00  0.00    +0.000 C 
ATOM     28  C   UNL     1       0.825  10.176  19.188  0.00  0.00    +0.000 C 
ATOM     29  C   UNL     1      -0.694  10.186  18.999  0.00  0.00    +0.000 C 
ENDBRANCH  26  28
BRANCH  26  30
ATOM     30  O   UNL     1       2.028  11.563  17.637  0.00  0.00    +0.000 OA
ATOM     31  H   UNL     1       1.835  12.064  18.447  0.00  0.00    +0.000 HD
ENDBRANCH  26  30
ENDBRANCH  25  26
ENDBRANCH   1  25
TORSDOF 5
ENDMDL
MODEL 8
REMARK VINA RESULT:      -6.3      5.547     10.239
REMARK  Name = 
REMARK  7 active torsions:
REMARK  status: ('A' for Active; 'I' for Inactive)
REMARK    1  A    between atoms: C_1  and  C_2
REMARK    2  A    between atoms: C_2  and  C_3
REMARK    3  A    between atoms: C_2  and  C_4
REMARK    4  A    between atoms: C_4  and  O_5
REMARK    5  A    between atoms: C_4  and  C_6
REMARK    6  A    between atoms: C_6  and  C_7
REMARK    7  A    between atoms: C_19  and  C_20
REMARK                            x       y       z     vdW  Elec       q    Type
REMARK                         _______ _______ _______ _____ _____    ______ ____
ROOT
ATOM      1  C   UNL     1      -0.931  11.140  19.179  0.00  0.00    +0.000 A 
ATOM      2  C   UNL     1      -1.673  10.702  18.096  0.00  0.00    +0.000 A 
ATOM      3  C   UNL     1      -2.976  11.231  18.228  0.00  0.00    +0.000 A 
ATOM      4  C   UNL     1      -2.998  11.953  19.402  0.00  0.00    +0.000 A 
ATOM      5  C   UNL     1      -4.019  12.689  20.089  0.00  0.00    +0.000 A 
ATOM      6  N   UNL     1      -5.317  12.710  19.633  0.00  0.00    +0.000 N 
ATOM      7  C   UNL     1      -6.114  11.492  19.455  0.00  0.00    +0.000 C 
ATOM      8  C   UNL     1      -6.779  11.511  18.072  0.00  0.00    +0.000 C 
ATOM      9  O   UNL     1      -7.538  12.717  17.871  0.00  0.00    +0.000 OA
ATOM     10  C   UNL     1      -6.696  13.877  18.015  0.00  0.00    +0.000 C 
ATOM     11  C   UNL     1      -6.063  13.943  19.414  0.00  0.00    +0.000 C 
ATOM     12  N   UNL     1      -3.669  13.350  21.154  0.00  0.00    +0.000 NA
ATOM     13  C   UNL     1      -2.378  13.231  21.631  0.00  0.00    +0.000 A 
ATOM     14  N   UNL     1      -1.411  12.584  21.059  0.00  0.00    +0.000 NA
ATOM     15  N   UNL     1      -1.749  11.949  19.932  0.00  0.00    +0.000 N 
ENDROOT
BRANCH  13  16
ATOM     16  C   UNL     1      -2.102  13.844  22.951  0.00  0.00    +0.000 A 
ATOM     17  C   UNL     1      -0.905  14.428  23.292  0.00  0.00    +0.000 A 
ATOM     18  N   UNL     1      -0.701  15.092  24.459  0.00  0.00    +0.000 NA
ATOM     19  C   UNL     1      -1.745  15.181  25.292  0.00  0.00    +0.000 A 
ATOM     20  N   UNL     1      -1.591  15.899  26.454  0.00  0.00    +0.000 N 
ATOM     21  N   UNL     1      -2.936  14.607  25.083  0.00  0.00    +0.000 NA
ATOM     22  C   UNL     1      -3.089  13.956  23.906  0.00  0.00    +0.000 A 
ATOM     23  H   UNL     1      -0.618  15.945  26.717  0.00  0.00    +0.000 HD
ATOM     24  H   UNL     1      -2.257  15.588  27.146  0.00  0.00    +0.000 HD
ENDBRANCH  13  16
BRANCH   1  25
ATOM     25  C   UNL     1       0.476  10.825  19.595  0.00  0.00    +0.000 C 
BRANCH  25  26
ATOM     26  C   UNL     1       0.699   9.344  19.959  0.00  0.00    +0.000 C 
BRANCH  26  28
ATOM     27  C   UNL     1       2.146   7.281  19.700  0.00  0.00    +0.000 C 
ATOM     28  C   UNL     1       1.915   8.723  19.228  0.00  0.00    +0.000 C 
ATOM     29  C   UNL     1       1.780   8.740  17.704  0.00  0.00    +0.000 C 
ENDBRANCH  26  28
BRANCH  26  30
ATOM     30  O   UNL     1       0.933   9.204  21.369  0.00  0.00    +0.000 OA
ATOM     31  H   UNL     1       0.784   8.272  21.601  0.00  0.00    +0.000 HD
ENDBRANCH  26  30
ENDBRANCH  25  26
ENDBRANCH   1  25
TORSDOF 5
ENDMDL
MODEL 9
REMARK VINA RESULT:      -6.3      6.111     11.058
REMARK  Name = 
REMARK  7 active torsions:
REMARK  status: ('A' for Active; 'I' for Inactive)
REMARK    1  A    between atoms: C_1  and  C_2
REMARK    2  A    between atoms: C_2  and  C_3
REMARK    3  A    between atoms: C_2  and  C_4
REMARK    4  A    between atoms: C_4  and  O_5
REMARK    5  A    between atoms: C_4  and  C_6
REMARK    6  A    between atoms: C_6  and  C_7
REMARK    7  A    between atoms: C_19  and  C_20
REMARK                            x       y       z     vdW  Elec       q    Type
REMARK                         _______ _______ _______ _____ _____    ______ ____
ROOT
ATOM      1  C   UNL     1      -1.262  12.114  22.168  0.00  0.00    +0.000 A 
ATOM      2  C   UNL     1      -1.704  12.755  23.312  0.00  0.00    +0.000 A 
ATOM      3  C   UNL     1      -2.997  13.259  23.048  0.00  0.00    +0.000 A 
ATOM      4  C   UNL     1      -3.294  12.937  21.741  0.00  0.00    +0.000 A 
ATOM      5  C   UNL     1      -4.422  13.192  20.893  0.00  0.00    +0.000 A 
ATOM      6  N   UNL     1      -5.475  13.968  21.317  0.00  0.00    +0.000 N 
ATOM      7  C   UNL     1      -5.309  15.357  21.756  0.00  0.00    +0.000 C 
ATOM      8  C   UNL     1      -6.038  15.565  23.091  0.00  0.00    +0.000 C 
ATOM      9  O   UNL     1      -7.416  15.161  23.005  0.00  0.00    +0.000 OA
ATOM     10  C   UNL     1      -7.516  13.778  22.613  0.00  0.00    +0.000 C 
ATOM     11  C   UNL     1      -6.865  13.533  21.242  0.00  0.00    +0.000 C 
ATOM     12  N   UNL     1      -4.419  12.648  19.711  0.00  0.00    +0.000 NA
ATOM     13  C   UNL     1      -3.304  11.950  19.289  0.00  0.00    +0.000 A 
ATOM     14  N   UNL     1      -2.255  11.685  20.005  0.00  0.00    +0.000 NA
ATOM     15  N   UNL     1      -2.275  12.192  21.242  0.00  0.00    +0.000 N 
ENDROOT
BRANCH  13  16
ATOM     16  C   UNL     1      -3.285  11.532  17.869  0.00  0.00    +0.000 A 
ATOM     17  C   UNL     1      -2.221  10.900  17.268  0.00  0.00    +0.000 A 
ATOM     18  N   UNL     1      -2.258  10.414  16.000  0.00  0.00    +0.000 NA
ATOM     19  C   UNL     1      -3.409  10.557  15.333  0.00  0.00    +0.000 A 
ATOM     20  N   UNL     1      -3.501  10.021  14.071  0.00  0.00    +0.000 N 
ATOM     21  N   UNL     1      -4.486  11.200  15.802  0.00  0.00    +0.000 NA
ATOM     22  C   UNL     1      -4.400  11.666  17.070  0.00  0.00    +0.000 A 
ATOM     23  H   UNL     1      -2.585   9.927  13.657  0.00  0.00    +0.000 HD
ATOM     24  H   UNL     1      -4.215  10.499  13.540  0.00  0.00    +0.000 HD
ENDBRANCH  13  16
BRANCH   1  25
ATOM     25  C   UNL     1       0.056  11.472  21.851  0.00  0.00    +0.000 C 
BRANCH  25  26
ATOM     26  C   UNL     1       0.098   9.960  22.148  0.00  0.00    +0.000 C 
BRANCH  26  28
ATOM     27  C   UNL     1       0.857   9.994  19.731  0.00  0.00    +0.000 C 
ATOM     28  C   UNL     1       0.363   9.108  20.883  0.00  0.00    +0.000 C 
ATOM     29  C   UNL     1       1.366   7.975  21.114  0.00  0.00    +0.000 C 
ENDBRANCH  26  28
BRANCH  26  30
ATOM     30  O   UNL     1       1.142   9.662  23.088  0.00  0.00    +0.000 OA
ATOM     31  H   UNL     1       1.333   8.711  23.025  0.00  0.00    +0.000 HD
ENDBRANCH  26  30
ENDBRANCH  25  26
ENDBRANCH   1  25
TORSDOF 5
ENDMDL
