MODEL 1
REMARK VINA RESULT:      -8.2      0.000      0.000
REMARK  Name = 
REMARK  9 active torsions:
REMARK  status: ('A' for Active; 'I' for Inactive)
REMARK    1  A    between atoms: C_1  and  C_2
REMARK    2  A    between atoms: C_2  and  O_3
REMARK    3  A    between atoms: O_3  and  C_4
REMARK    4  A    between atoms: C_4  and  C_5
REMARK    5  A    between atoms: C_5  and  O_6
REMARK    6  A    between atoms: O_6  and  C_7
REMARK    7  A    between atoms: C_7  and  C_9
REMARK    8  A    between atoms: C_14  and  C_15
REMARK    9  A    between atoms: C_17  and  C_18
REMARK                            x       y       z     vdW  Elec       q    Type
REMARK                         _______ _______ _______ _____ _____    ______ ____
ROOT
ATOM      1  C   UNL     1       5.654   5.464  15.496  0.00  0.00    +0.000 C 
ATOM      2  O   UNL     1       5.235   6.564  15.168  0.00  0.00    +0.000 OA
ATOM      3  N   UNL     1       5.292   4.696  16.585  0.00  0.00    +0.000 N 
ATOM      4  C   UNL     1       4.460   5.196  17.542  0.00  0.00    +0.000 A 
ATOM      5  N   UNL     1       3.769   6.304  17.508  0.00  0.00    +0.000 NA
ATOM      6  C   UNL     1       3.119   6.485  18.712  0.00  0.00    +0.000 A 
ATOM      7  C   UNL     1       3.339   5.499  19.653  0.00  0.00    +0.000 A 
ATOM      8  S   UNL     1       4.348   4.277  18.974  0.00  0.00    +0.000 S 
ATOM      9  H   UNL     1       5.772   3.821  16.759  0.00  0.00    +0.000 HD
ENDROOT
BRANCH   6  10
ATOM     10  C   UNL     1       2.254   7.672  18.932  0.00  0.00    +0.000 A 
ATOM     11  C   UNL     1       1.865   8.149  20.160  0.00  0.00    +0.000 A 
ATOM     12  C   UNL     1       1.075   9.296  19.892  0.00  0.00    +0.000 A 
ATOM     13  N   UNL     1       1.008   9.502  18.567  0.00  0.00    +0.000 NA
ATOM     14  O   UNL     1       1.729   8.479  17.973  0.00  0.00    +0.000 OA
BRANCH  12  15
ATOM     15  C   UNL     1       0.435  10.172  20.876  0.00  0.00    +0.000 A 
ATOM     16  C   UNL     1      -0.391   9.598  21.860  0.00  0.00    +0.000 A 
ATOM     17  F   UNL     1      -0.555   8.266  21.921  0.00  0.00    +0.000 F 
ATOM     18  C   UNL     1      -1.073  10.366  22.805  0.00  0.00    +0.000 A 
ATOM     19  C   UNL     1      -0.932  11.748  22.797  0.00  0.00    +0.000 A 
ATOM     20  C   UNL     1      -0.112  12.344  21.843  0.00  0.00    +0.000 A 
ATOM     21  C   UNL     1       0.572  11.571  20.891  0.00  0.00    +0.000 A 
ATOM     22 CL   UNL     1       1.508  12.451  19.730  0.00  0.00    +0.000 Cl
ENDBRANCH  12  15
ENDBRANCH   6  10
BRANCH   1  23
ATOM     23  C   UNL     1       6.815   4.823  14.709  0.00  0.00    +0.000 C 
ATOM     24  O   UNL     1       7.916   5.346  14.655  0.00  0.00    +0.000 OA
BRANCH  23  25
ATOM     25  O   UNL     1       6.359   3.778  13.992  0.00  0.00    +0.000 OA
BRANCH  25  26
ATOM     26  C   UNL     1       6.391   3.950  12.574  0.00  0.00    +0.000 C 
BRANCH  26  27
ATOM     27  C   UNL     1       6.355   2.627  11.827  0.00  0.00    +0.000 C 
BRANCH  27  28
ATOM     28  O   UNL     1       4.987   2.317  11.556  0.00  0.00    +0.000 OA
BRANCH  28  30
ATOM     29  C   UNL     1       3.286   3.365  10.252  0.00  0.00    +0.000 C 
ATOM     30  C   UNL     1       4.174   3.484  11.475  0.00  0.00    +0.000 C 
ENDBRANCH  28  30
ENDBRANCH  27  28
ENDBRANCH  26  27
ENDBRANCH  25  26
ENDBRANCH  23  25
ENDBRANCH   1  23
TORSDOF 8
ENDMDL
MODEL 2
REMARK VINA RESULT:      -7.8      2.103      2.441
REMARK  Name = 
REMARK  9 active torsions:
REMARK  status: ('A' for Active; 'I' for Inactive)
REMARK    1  A    between atoms: C_1  and  C_2
REMARK    2  A    between atoms: C_2  and  O_3
REMARK    3  A    between atoms: O_3  and  C_4
REMARK    4  A    between atoms: C_4  and  C_5
REMARK    5  A    between atoms: C_5  and  O_6
REMARK    6  A    between atoms: O_6  and  C_7
REMARK    7  A    between atoms: C_7  and  C_9
REMARK    8  A    between atoms: C_14  and  C_15
REMARK    9  A    between atoms: C_17  and  C_18
REMARK                            x       y       z     vdW  Elec       q    Type
REMARK                         _______ _______ _______ _____ _____    ______ ____
ROOT
ATOM      1  C   UNL     1       5.246   5.680  15.965  0.00  0.00    +0.000 C 
ATOM      2  O   UNL     1       5.003   6.867  15.810  0.00  0.00    +0.000 OA
ATOM      3  N   UNL     1       4.715   4.809  16.894  0.00  0.00    +0.000 N 
ATOM      4  C   UNL     1       3.902   5.264  17.889  0.00  0.00    +0.000 A 
ATOM      5  N   UNL     1       3.373   6.451  18.015  0.00  0.00    +0.000 NA
ATOM      6  C   UNL     1       2.681   6.529  19.207  0.00  0.00    +0.000 A 
ATOM      7  C   UNL     1       2.705   5.383  19.976  0.00  0.00    +0.000 A 
ATOM      8  S   UNL     1       3.577   4.153  19.142  0.00  0.00    +0.000 S 
ATOM      9  H   UNL     1       5.060   3.857  16.938  0.00  0.00    +0.000 HD
ENDROOT
BRANCH   6  10
ATOM     10  C   UNL     1       1.974   7.778  19.589  0.00  0.00    +0.000 A 
ATOM     11  C   UNL     1       1.671   8.808  18.733  0.00  0.00    +0.000 A 
ATOM     12  C   UNL     1       0.983   9.769  19.518  0.00  0.00    +0.000 A 
ATOM     13  N   UNL     1       0.868   9.326  20.780  0.00  0.00    +0.000 NA
ATOM     14  O   UNL     1       1.501   8.094  20.824  0.00  0.00    +0.000 OA
BRANCH  12  15
ATOM     15  C   UNL     1       0.436  11.047  19.061  0.00  0.00    +0.000 A 
ATOM     16  C   UNL     1       1.197  12.216  19.244  0.00  0.00    +0.000 A 
ATOM     17  F   UNL     1       2.423  12.153  19.790  0.00  0.00    +0.000 F 
ATOM     18  C   UNL     1       0.729  13.479  18.879  0.00  0.00    +0.000 A 
ATOM     19  C   UNL     1      -0.527  13.604  18.300  0.00  0.00    +0.000 A 
ATOM     20  C   UNL     1      -1.300  12.464  18.094  0.00  0.00    +0.000 A 
ATOM     21  C   UNL     1      -0.828  11.194  18.464  0.00  0.00    +0.000 A 
ATOM     22 CL   UNL     1      -1.920   9.876  18.205  0.00  0.00    +0.000 Cl
ENDBRANCH  12  15
ENDBRANCH   6  10
BRANCH   1  23
ATOM     23  C   UNL     1       6.354   5.012  15.126  0.00  0.00    +0.000 C 
ATOM     24  O   UNL     1       7.511   4.969  15.515  0.00  0.00    +0.000 OA
BRANCH  23  25
ATOM     25  O   UNL     1       5.879   4.699  13.906  0.00  0.00    +0.000 OA
BRANCH  25  26
ATOM     26  C   UNL     1       6.506   3.581  13.275  0.00  0.00    +0.000 C 
BRANCH  26  27
ATOM     27  C   UNL     1       5.861   3.227  11.945  0.00  0.00    +0.000 C 
BRANCH  27  28
ATOM     28  O   UNL     1       4.491   3.629  12.004  0.00  0.00    +0.000 OA
BRANCH  28  30
ATOM     29  C   UNL     1       3.254   3.969   9.993  0.00  0.00    +0.000 C 
ATOM     30  C   UNL     1       3.689   2.959  11.036  0.00  0.00    +0.000 C 
ENDBRANCH  28  30
ENDBRANCH  27  28
ENDBRANCH  26  27
ENDBRANCH  25  26
ENDBRANCH  23  25
ENDBRANCH   1  23
TORSDOF 8
ENDMDL
MODEL 3
REMARK VINA RESULT:      -7.8      2.210      2.675
REMARK  Name = 
REMARK  9 active torsions:
REMARK  status: ('A' for Active; 'I' for Inactive)
REMARK    1  A    between atoms: C_1  and  C_2
REMARK    2  A    between atoms: C_2  and  O_3
REMARK    3  A    between atoms: O_3  and  C_4
REMARK    4  A    between atoms: C_4  and  C_5
REMARK    5  A    between atoms: C_5  and  O_6
REMARK    6  A    between atoms: O_6  and  C_7
REMARK    7  A    between atoms: C_7  and  C_9
REMARK    8  A    between atoms: C_14  and  C_15
REMARK    9  A    between atoms: C_17  and  C_18
REMARK                            x       y       z     vdW  Elec       q    Type
REMARK                         _______ _______ _______ _____ _____    ______ ____
ROOT
ATOM      1  C   UNL     1       5.855   5.809  17.159  0.00  0.00    +0.000 C 
ATOM      2  O   UNL     1       5.725   7.023  17.110  0.00  0.00    +0.000 OA
ATOM      3  N   UNL     1       5.043   4.883  17.782  0.00  0.00    +0.000 N 
ATOM      4  C   UNL     1       4.009   5.285  18.574  0.00  0.00    +0.000 A 
ATOM      5  N   UNL     1       3.526   6.490  18.715  0.00  0.00    +0.000 NA
ATOM      6  C   UNL     1       2.534   6.486  19.674  0.00  0.00    +0.000 A 
ATOM      7  C   UNL     1       2.285   5.259  20.256  0.00  0.00    +0.000 A 
ATOM      8  S   UNL     1       3.292   4.066  19.527  0.00  0.00    +0.000 S 
ATOM      9  H   UNL     1       5.314   3.906  17.786  0.00  0.00    +0.000 HD
ENDROOT
BRANCH   6  10
ATOM     10  C   UNL     1       1.812   7.737  20.020  0.00  0.00    +0.000 A 
ATOM     11  C   UNL     1       1.616   8.797  19.168  0.00  0.00    +0.000 A 
ATOM     12  C   UNL     1       0.867   9.748  19.907  0.00  0.00    +0.000 A 
ATOM     13  N   UNL     1       0.616   9.272  21.137  0.00  0.00    +0.000 NA
ATOM     14  O   UNL     1       1.220   8.027  21.208  0.00  0.00    +0.000 OA
BRANCH  12  15
ATOM     15  C   UNL     1       0.391  11.050  19.436  0.00  0.00    +0.000 A 
ATOM     16  C   UNL     1       0.984  12.217  19.952  0.00  0.00    +0.000 A 
ATOM     17  F   UNL     1       1.997  12.136  20.830  0.00  0.00    +0.000 F 
ATOM     18  C   UNL     1       0.557  13.495  19.590  0.00  0.00    +0.000 A 
ATOM     19  C   UNL     1      -0.480  13.640  18.678  0.00  0.00    +0.000 A 
ATOM     20  C   UNL     1      -1.078  12.504  18.140  0.00  0.00    +0.000 A 
ATOM     21  C   UNL     1      -0.650  11.217  18.507  0.00  0.00    +0.000 A 
ATOM     22 CL   UNL     1      -1.525   9.898  17.805  0.00  0.00    +0.000 Cl
ENDBRANCH  12  15
ENDBRANCH   6  10
BRANCH   1  23
ATOM     23  C   UNL     1       7.118   5.152  16.568  0.00  0.00    +0.000 C 
ATOM     24  O   UNL     1       7.897   4.521  17.265  0.00  0.00    +0.000 OA
BRANCH  23  25
ATOM     25  O   UNL     1       7.285   5.548  15.292  0.00  0.00    +0.000 OA
BRANCH  25  26
ATOM     26  C   UNL     1       7.051   4.543  14.305  0.00  0.00    +0.000 C 
BRANCH  26  27
ATOM     27  C   UNL     1       7.429   5.002  12.906  0.00  0.00    +0.000 C 
BRANCH  27  28
ATOM     28  O   UNL     1       7.076   3.961  11.995  0.00  0.00    +0.000 OA
BRANCH  28  30
ATOM     29  C   UNL     1       5.667   2.087  11.553  0.00  0.00    +0.000 C 
ATOM     30  C   UNL     1       5.787   3.420  12.265  0.00  0.00    +0.000 C 
ENDBRANCH  28  30
ENDBRANCH  27  28
ENDBRANCH  26  27
ENDBRANCH  25  26
ENDBRANCH  23  25
ENDBRANCH   1  23
TORSDOF 8
ENDMDL
MODEL 4
REMARK VINA RESULT:      -7.6      1.725      2.006
REMARK  Name = 
REMARK  9 active torsions:
REMARK  status: ('A' for Active; 'I' for Inactive)
REMARK    1  A    between atoms: C_1  and  C_2
REMARK    2  A    between atoms: C_2  and  O_3
REMARK    3  A    between atoms: O_3  and  C_4
REMARK    4  A    between atoms: C_4  and  C_5
REMARK    5  A    between atoms: C_5  and  O_6
REMARK    6  A    between atoms: O_6  and  C_7
REMARK    7  A    between atoms: C_7  and  C_9
REMARK    8  A    between atoms: C_14  and  C_15
REMARK    9  A    between atoms: C_17  and  C_18
REMARK                            x       y       z     vdW  Elec       q    Type
REMARK                         _______ _______ _______ _____ _____    ______ ____
ROOT
ATOM      1  C   UNL     1       6.012   5.599  16.786  0.00  0.00    +0.000 C 
ATOM      2  O   UNL     1       5.944   6.711  16.285  0.00  0.00    +0.000 OA
ATOM      3  N   UNL     1       5.145   5.004  17.680  0.00  0.00    +0.000 N 
ATOM      4  C   UNL     1       4.118   5.714  18.229  0.00  0.00    +0.000 A 
ATOM      5  N   UNL     1       3.694   6.903  17.896  0.00  0.00    +0.000 NA
ATOM      6  C   UNL     1       2.686   7.296  18.753  0.00  0.00    +0.000 A 
ATOM      7  C   UNL     1       2.367   6.386  19.740  0.00  0.00    +0.000 A 
ATOM      8  S   UNL     1       3.326   4.967  19.541  0.00  0.00    +0.000 S 
ATOM      9  H   UNL     1       5.366   4.089  18.055  0.00  0.00    +0.000 HD
ENDROOT
BRANCH   6  10
ATOM     10  C   UNL     1       2.022   8.614  18.584  0.00  0.00    +0.000 A 
ATOM     11  C   UNL     1       1.120   9.162  19.464  0.00  0.00    +0.000 A 
ATOM     12  C   UNL     1       0.770  10.423  18.916  0.00  0.00    +0.000 A 
ATOM     13  N   UNL     1       1.443  10.624  17.771  0.00  0.00    +0.000 NA
ATOM     14  O   UNL     1       2.208   9.488  17.560  0.00  0.00    +0.000 OA
BRANCH  12  15
ATOM     15  C   UNL     1      -0.153  11.404  19.489  0.00  0.00    +0.000 A 
ATOM     16  C   UNL     1      -1.530  11.268  19.236  0.00  0.00    +0.000 A 
ATOM     17  F   UNL     1      -1.993  10.232  18.517  0.00  0.00    +0.000 F 
ATOM     18  C   UNL     1      -2.471  12.185  19.706  0.00  0.00    +0.000 A 
ATOM     19  C   UNL     1      -2.052  13.270  20.465  0.00  0.00    +0.000 A 
ATOM     20  C   UNL     1      -0.696  13.425  20.742  0.00  0.00    +0.000 A 
ATOM     21  C   UNL     1       0.250  12.503  20.267  0.00  0.00    +0.000 A 
ATOM     22 CL   UNL     1       1.904  12.855  20.638  0.00  0.00    +0.000 Cl
ENDBRANCH  12  15
ENDBRANCH   6  10
BRANCH   1  23
ATOM     23  C   UNL     1       7.251   4.719  16.525  0.00  0.00    +0.000 C 
ATOM     24  O   UNL     1       8.061   4.478  17.406  0.00  0.00    +0.000 OA
BRANCH  23  25
ATOM     25  O   UNL     1       7.361   4.463  15.207  0.00  0.00    +0.000 OA
BRANCH  25  26
ATOM     26  C   UNL     1       6.275   3.733  14.635  0.00  0.00    +0.000 C 
BRANCH  26  27
ATOM     27  C   UNL     1       6.232   3.847  13.119  0.00  0.00    +0.000 C 
BRANCH  27  28
ATOM     28  O   UNL     1       4.876   3.668  12.707  0.00  0.00    +0.000 OA
BRANCH  28  30
ATOM     29  C   UNL     1       5.758   1.867  11.413  0.00  0.00    +0.000 C 
ATOM     30  C   UNL     1       4.777   3.023  11.441  0.00  0.00    +0.000 C 
ENDBRANCH  28  30
ENDBRANCH  27  28
ENDBRANCH  26  27
ENDBRANCH  25  26
ENDBRANCH  23  25
ENDBRANCH   1  23
TORSDOF 8
ENDMDL
MODEL 5
REMARK VINA RESULT:      -7.5      0.923      1.109
REMARK  Name = 
REMARK  9 active torsions:
REMARK  status: ('A' for Active; 'I' for Inactive)
REMARK    1  A    between atoms: C_1  and  C_2
REMARK    2  A    between atoms: C_2  and  O_3
REMARK    3  A    between atoms: O_3  and  C_4
REMARK    4  A    between atoms: C_4  and  C_5
REMARK    5  A    between atoms: C_5  and  O_6
REMARK    6  A    between atoms: O_6  and  C_7
REMARK    7  A    between atoms: C_7  and  C_9
REMARK    8  A    between atoms: C_14  and  C_15
REMARK    9  A    between atoms: C_17  and  C_18
REMARK                            x       y       z     vdW  Elec       q    Type
REMARK                         _______ _______ _______ _____ _____    ______ ____
ROOT
ATOM      1  C   UNL     1       5.546   5.732  15.908  0.00  0.00    +0.000 C 
ATOM      2  O   UNL     1       5.259   6.883  15.616  0.00  0.00    +0.000 OA
ATOM      3  N   UNL     1       5.004   4.936  16.897  0.00  0.00    +0.000 N 
ATOM      4  C   UNL     1       4.116   5.450  17.794  0.00  0.00    +0.000 A 
ATOM      5  N   UNL     1       3.527   6.614  17.766  0.00  0.00    +0.000 NA
ATOM      6  C   UNL     1       2.765   6.780  18.905  0.00  0.00    +0.000 A 
ATOM      7  C   UNL     1       2.798   5.723  19.792  0.00  0.00    +0.000 A 
ATOM      8  S   UNL     1       3.771   4.460  19.140  0.00  0.00    +0.000 S 
ATOM      9  H   UNL     1       5.389   4.012  17.060  0.00  0.00    +0.000 HD
ENDROOT
BRANCH   6  10
ATOM     10  C   UNL     1       1.981   8.024  19.115  0.00  0.00    +0.000 A 
ATOM     11  C   UNL     1       1.508   8.465  20.327  0.00  0.00    +0.000 A 
ATOM     12  C   UNL     1       0.846   9.690  20.057  0.00  0.00    +0.000 A 
ATOM     13  N   UNL     1       0.932   9.974  18.748  0.00  0.00    +0.000 NA
ATOM     14  O   UNL     1       1.625   8.926  18.162  0.00  0.00    +0.000 OA
BRANCH  12  15
ATOM     15  C   UNL     1       0.183  10.562  21.027  0.00  0.00    +0.000 A 
ATOM     16  C   UNL     1      -0.460   9.980  22.135  0.00  0.00    +0.000 A 
ATOM     17  F   UNL     1      -0.429   8.650  22.320  0.00  0.00    +0.000 F 
ATOM     18  C   UNL     1      -1.154  10.737  23.080  0.00  0.00    +0.000 A 
ATOM     19  C   UNL     1      -1.211  12.118  22.946  0.00  0.00    +0.000 A 
ATOM     20  C   UNL     1      -0.573  12.725  21.867  0.00  0.00    +0.000 A 
ATOM     21  C   UNL     1       0.123  11.962  20.915  0.00  0.00    +0.000 A 
ATOM     22 CL   UNL     1       0.814  12.844  19.595  0.00  0.00    +0.000 Cl
ENDBRANCH  12  15
ENDBRANCH   6  10
BRANCH   1  23
ATOM     23  C   UNL     1       6.730   5.038  15.205  0.00  0.00    +0.000 C 
ATOM     24  O   UNL     1       7.754   5.643  14.930  0.00  0.00    +0.000 OA
BRANCH  23  25
ATOM     25  O   UNL     1       6.366   3.805  14.806  0.00  0.00    +0.000 OA
BRANCH  25  26
ATOM     26  C   UNL     1       5.498   3.762  13.672  0.00  0.00    +0.000 C 
BRANCH  26  27
ATOM     27  C   UNL     1       6.260   3.758  12.356  0.00  0.00    +0.000 C 
BRANCH  27  28
ATOM     28  O   UNL     1       5.452   3.091  11.386  0.00  0.00    +0.000 OA
BRANCH  28  30
ATOM     29  C   UNL     1       7.043   1.375  10.922  0.00  0.00    +0.000 C 
ATOM     30  C   UNL     1       5.639   1.679  11.406  0.00  0.00    +0.000 C 
ENDBRANCH  28  30
ENDBRANCH  27  28
ENDBRANCH  26  27
ENDBRANCH  25  26
ENDBRANCH  23  25
ENDBRANCH   1  23
TORSDOF 8
ENDMDL
MODEL 6
REMARK VINA RESULT:      -7.4      5.158     11.053
REMARK  Name = 
REMARK  9 active torsions:
REMARK  status: ('A' for Active; 'I' for Inactive)
REMARK    1  A    between atoms: C_1  and  C_2
REMARK    2  A    between atoms: C_2  and  O_3
REMARK    3  A    between atoms: O_3  and  C_4
REMARK    4  A    between atoms: C_4  and  C_5
REMARK    5  A    between atoms: C_5  and  O_6
REMARK    6  A    between atoms: O_6  and  C_7
REMARK    7  A    between atoms: C_7  and  C_9
REMARK    8  A    between atoms: C_14  and  C_15
REMARK    9  A    between atoms: C_17  and  C_18
REMARK                            x       y       z     vdW  Elec       q    Type
REMARK                         _______ _______ _______ _____ _____    ______ ____
ROOT
ATOM      1  C   UNL     1      -3.480  10.891  17.763  0.00  0.00    +0.000 C 
ATOM      2  O   UNL     1      -3.413   9.673  17.823  0.00  0.00    +0.000 OA
ATOM      3  N   UNL     1      -2.459  11.814  17.864  0.00  0.00    +0.000 N 
ATOM      4  C   UNL     1      -1.197  11.420  18.197  0.00  0.00    +0.000 A 
ATOM      5  N   UNL     1      -0.729  10.204  18.280  0.00  0.00    +0.000 NA
ATOM      6  C   UNL     1       0.575  10.235  18.729  0.00  0.00    +0.000 A 
ATOM      7  C   UNL     1       1.077  11.494  18.988  0.00  0.00    +0.000 A 
ATOM      8  S   UNL     1      -0.114  12.676  18.596  0.00  0.00    +0.000 S 
ATOM      9  H   UNL     1      -2.678  12.803  17.852  0.00  0.00    +0.000 HD
ENDROOT
BRANCH   6  10
ATOM     10  C   UNL     1       1.345   8.976  18.903  0.00  0.00    +0.000 A 
ATOM     11  C   UNL     1       1.922   8.257  17.885  0.00  0.00    +0.000 A 
ATOM     12  C   UNL     1       2.564   7.157  18.510  0.00  0.00    +0.000 A 
ATOM     13  N   UNL     1       2.390   7.226  19.840  0.00  0.00    +0.000 NA
ATOM     14  O   UNL     1       1.616   8.351  20.078  0.00  0.00    +0.000 OA
BRANCH  12  15
ATOM     15  C   UNL     1       3.336   6.101  17.854  0.00  0.00    +0.000 A 
ATOM     16  C   UNL     1       4.591   6.420  17.304  0.00  0.00    +0.000 A 
ATOM     17  F   UNL     1       5.090   7.662  17.418  0.00  0.00    +0.000 F 
ATOM     18  C   UNL     1       5.369   5.484  16.621  0.00  0.00    +0.000 A 
ATOM     19  C   UNL     1       4.909   4.181  16.482  0.00  0.00    +0.000 A 
ATOM     20  C   UNL     1       3.676   3.831  17.026  0.00  0.00    +0.000 A 
ATOM     21  C   UNL     1       2.893   4.775  17.711  0.00  0.00    +0.000 A 
ATOM     22 CL   UNL     1       1.357   4.215  18.281  0.00  0.00    +0.000 Cl
ENDBRANCH  12  15
ENDBRANCH   6  10
BRANCH   1  23
ATOM     23  C   UNL     1      -4.859  11.576  17.672  0.00  0.00    +0.000 C 
ATOM     24  O   UNL     1      -5.152  12.300  16.733  0.00  0.00    +0.000 OA
BRANCH  23  25
ATOM     25  O   UNL     1      -5.534  11.401  18.824  0.00  0.00    +0.000 OA
BRANCH  25  26
ATOM     26  C   UNL     1      -5.129  12.246  19.903  0.00  0.00    +0.000 C 
BRANCH  26  27
ATOM     27  C   UNL     1      -6.270  13.101  20.430  0.00  0.00    +0.000 C 
BRANCH  27  28
ATOM     28  O   UNL     1      -6.237  13.039  21.857  0.00  0.00    +0.000 OA
BRANCH  28  30
ATOM     29  C   UNL     1      -7.470  12.890  23.894  0.00  0.00    +0.000 C 
ATOM     30  C   UNL     1      -7.473  12.593  22.407  0.00  0.00    +0.000 C 
ENDBRANCH  28  30
ENDBRANCH  27  28
ENDBRANCH  26  27
ENDBRANCH  25  26
ENDBRANCH  23  25
ENDBRANCH   1  23
TORSDOF 8
ENDMDL
MODEL 7
REMARK VINA RESULT:      -7.4      2.052      2.312
REMARK  Name = 
REMARK  9 active torsions:
REMARK  status: ('A' for Active; 'I' for Inactive)
REMARK    1  A    between atoms: C_1  and  C_2
REMARK    2  A    between atoms: C_2  and  O_3
REMARK    3  A    between atoms: O_3  and  C_4
REMARK    4  A    between atoms: C_4  and  C_5
REMARK    5  A    between atoms: C_5  and  O_6
REMARK    6  A    between atoms: O_6  and  C_7
REMARK    7  A    between atoms: C_7  and  C_9
REMARK    8  A    between atoms: C_14  and  C_15
REMARK    9  A    between atoms: C_17  and  C_18
REMARK                            x       y       z     vdW  Elec       q    Type
REMARK                         _______ _______ _______ _____ _____    ______ ____
ROOT
ATOM      1  C   UNL     1       5.870   6.003  16.557  0.00  0.00    +0.000 C 
ATOM      2  O   UNL     1       5.700   7.091  16.028  0.00  0.00    +0.000 OA
ATOM      3  N   UNL     1       5.103   5.391  17.528  0.00  0.00    +0.000 N 
ATOM      4  C   UNL     1       4.076   6.058  18.126  0.00  0.00    +0.000 A 
ATOM      5  N   UNL     1       3.559   7.208  17.787  0.00  0.00    +0.000 NA
ATOM      6  C   UNL     1       2.590   7.572  18.701  0.00  0.00    +0.000 A 
ATOM      7  C   UNL     1       2.395   6.679  19.735  0.00  0.00    +0.000 A 
ATOM      8  S   UNL     1       3.421   5.313  19.513  0.00  0.00    +0.000 S 
ATOM      9  H   UNL     1       5.404   4.504  17.914  0.00  0.00    +0.000 HD
ENDROOT
BRANCH   6  10
ATOM     10  C   UNL     1       1.838   8.842  18.540  0.00  0.00    +0.000 A 
ATOM     11  C   UNL     1       0.791   9.247  19.332  0.00  0.00    +0.000 A 
ATOM     12  C   UNL     1       0.400  10.515  18.832  0.00  0.00    +0.000 A 
ATOM     13  N   UNL     1       1.187  10.858  17.799  0.00  0.00    +0.000 NA
ATOM     14  O   UNL     1       2.069   9.806  17.610  0.00  0.00    +0.000 OA
BRANCH  12  15
ATOM     15  C   UNL     1      -0.668  11.371  19.348  0.00  0.00    +0.000 A 
ATOM     16  C   UNL     1      -0.369  12.285  20.375  0.00  0.00    +0.000 A 
ATOM     17  F   UNL     1       0.885  12.399  20.843  0.00  0.00    +0.000 F 
ATOM     18  C   UNL     1      -1.340  13.104  20.954  0.00  0.00    +0.000 A 
ATOM     19  C   UNL     1      -2.652  13.038  20.503  0.00  0.00    +0.000 A 
ATOM     20  C   UNL     1      -2.976  12.152  19.478  0.00  0.00    +0.000 A 
ATOM     21  C   UNL     1      -1.999  11.327  18.898  0.00  0.00    +0.000 A 
ATOM     22 CL   UNL     1      -2.558  10.233  17.678  0.00  0.00    +0.000 Cl
ENDBRANCH  12  15
ENDBRANCH   6  10
BRANCH   1  23
ATOM     23  C   UNL     1       7.139   5.188  16.236  0.00  0.00    +0.000 C 
ATOM     24  O   UNL     1       7.856   4.748  17.120  0.00  0.00    +0.000 OA
BRANCH  23  25
ATOM     25  O   UNL     1       7.387   5.230  14.913  0.00  0.00    +0.000 OA
BRANCH  25  26
ATOM     26  C   UNL     1       6.794   4.179  14.147  0.00  0.00    +0.000 C 
BRANCH  26  27
ATOM     27  C   UNL     1       6.866   4.439  12.651  0.00  0.00    +0.000 C 
BRANCH  27  28
ATOM     28  O   UNL     1       6.149   3.394  11.993  0.00  0.00    +0.000 OA
BRANCH  28  30
ATOM     29  C   UNL     1       3.978   3.318  11.006  0.00  0.00    +0.000 C 
ATOM     30  C   UNL     1       4.759   3.413  12.302  0.00  0.00    +0.000 C 
ENDBRANCH  28  30
ENDBRANCH  27  28
ENDBRANCH  26  27
ENDBRANCH  25  26
ENDBRANCH  23  25
ENDBRANCH   1  23
TORSDOF 8
ENDMDL
MODEL 8
REMARK VINA RESULT:      -7.4      4.998     10.461
REMARK  Name = 
REMARK  9 active torsions:
REMARK  status: ('A' for Active; 'I' for Inactive)
REMARK    1  A    between atoms: C_1  and  C_2
REMARK    2  A    between atoms: C_2  and  O_3
REMARK    3  A    between atoms: O_3  and  C_4
REMARK    4  A    between atoms: C_4  and  C_5
REMARK    5  A    between atoms: C_5  and  O_6
REMARK    6  A    between atoms: O_6  and  C_7
REMARK    7  A    between atoms: C_7  and  C_9
REMARK    8  A    between atoms: C_14  and  C_15
REMARK    9  A    between atoms: C_17  and  C_18
REMARK                            x       y       z     vdW  Elec       q    Type
REMARK                         _______ _______ _______ _____ _____    ______ ____
ROOT
ATOM      1  C   UNL     1      -3.328  10.982  17.963  0.00  0.00    +0.000 C 
ATOM      2  O   UNL     1      -3.313   9.764  18.054  0.00  0.00    +0.000 OA
ATOM      3  N   UNL     1      -2.263  11.859  17.987  0.00  0.00    +0.000 N 
ATOM      4  C   UNL     1      -1.005  11.417  18.270  0.00  0.00    +0.000 A 
ATOM      5  N   UNL     1      -0.588  10.183  18.365  0.00  0.00    +0.000 NA
ATOM      6  C   UNL     1       0.737  10.166  18.749  0.00  0.00    +0.000 A 
ATOM      7  C   UNL     1       1.307  11.407  18.948  0.00  0.00    +0.000 A 
ATOM      8  S   UNL     1       0.151  12.632  18.581  0.00  0.00    +0.000 S 
ATOM      9  H   UNL     1      -2.438  12.857  17.958  0.00  0.00    +0.000 HD
ENDROOT
BRANCH   6  10
ATOM     10  C   UNL     1       1.457   8.878  18.922  0.00  0.00    +0.000 A 
ATOM     11  C   UNL     1       1.915   8.086  17.897  0.00  0.00    +0.000 A 
ATOM     12  C   UNL     1       2.552   6.983  18.521  0.00  0.00    +0.000 A 
ATOM     13  N   UNL     1       2.490   7.119  19.856  0.00  0.00    +0.000 NA
ATOM     14  O   UNL     1       1.793   8.291  20.100  0.00  0.00    +0.000 OA
BRANCH  12  15
ATOM     15  C   UNL     1       3.217   5.862  17.857  0.00  0.00    +0.000 A 
ATOM     16  C   UNL     1       2.569   4.613  17.820  0.00  0.00    +0.000 A 
ATOM     17  F   UNL     1       1.342   4.466  18.348  0.00  0.00    +0.000 F 
ATOM     18  C   UNL     1       3.153   3.483  17.247  0.00  0.00    +0.000 A 
ATOM     19  C   UNL     1       4.415   3.578  16.676  0.00  0.00    +0.000 A 
ATOM     20  C   UNL     1       5.078   4.803  16.686  0.00  0.00    +0.000 A 
ATOM     21  C   UNL     1       4.489   5.940  17.265  0.00  0.00    +0.000 A 
ATOM     22 CL   UNL     1       5.453   7.378  17.258  0.00  0.00    +0.000 Cl
ENDBRANCH  12  15
ENDBRANCH   6  10
BRANCH   1  23
ATOM     23  C   UNL     1      -4.677  11.728  17.919  0.00  0.00    +0.000 C 
ATOM     24  O   UNL     1      -5.511  11.491  17.058  0.00  0.00    +0.000 OA
BRANCH  23  25
ATOM     25  O   UNL     1      -4.670  12.740  18.807  0.00  0.00    +0.000 OA
BRANCH  25  26
ATOM     26  C   UNL     1      -5.125  12.404  20.119  0.00  0.00    +0.000 C 
BRANCH  26  27
ATOM     27  C   UNL     1      -6.583  11.971  20.135  0.00  0.00    +0.000 C 
BRANCH  27  28
ATOM     28  O   UNL     1      -6.660  10.727  20.831  0.00  0.00    +0.000 OA
BRANCH  28  30
ATOM     29  C   UNL     1      -7.178   8.525  20.073  0.00  0.00    +0.000 C 
ATOM     30  C   UNL     1      -7.726   9.909  20.360  0.00  0.00    +0.000 C 
ENDBRANCH  28  30
ENDBRANCH  27  28
ENDBRANCH  26  27
ENDBRANCH  25  26
ENDBRANCH  23  25
ENDBRANCH   1  23
TORSDOF 8
ENDMDL
MODEL 9
REMARK VINA RESULT:      -7.3      5.009     10.706
REMARK  Name = 
REMARK  9 active torsions:
REMARK  status: ('A' for Active; 'I' for Inactive)
REMARK    1  A    between atoms: C_1  and  C_2
REMARK    2  A    between atoms: C_2  and  O_3
REMARK    3  A    between atoms: O_3  and  C_4
REMARK    4  A    between atoms: C_4  and  C_5
REMARK    5  A    between atoms: C_5  and  O_6
REMARK    6  A    between atoms: O_6  and  C_7
REMARK    7  A    between atoms: C_7  and  C_9
REMARK    8  A    between atoms: C_14  and  C_15
REMARK    9  A    between atoms: C_17  and  C_18
REMARK                            x       y       z     vdW  Elec       q    Type
REMARK                         _______ _______ _______ _____ _____    ______ ____
ROOT
ATOM      1  C   UNL     1      -3.363  11.117  17.798  0.00  0.00    +0.000 C 
ATOM      2  O   UNL     1      -3.352   9.897  17.861  0.00  0.00    +0.000 OA
ATOM      3  N   UNL     1      -2.300  11.992  17.895  0.00  0.00    +0.000 N 
ATOM      4  C   UNL     1      -1.057  11.541  18.226  0.00  0.00    +0.000 A 
ATOM      5  N   UNL     1      -0.646  10.305  18.310  0.00  0.00    +0.000 NA
ATOM      6  C   UNL     1       0.660  10.276  18.756  0.00  0.00    +0.000 A 
ATOM      7  C   UNL     1       1.220  11.512  19.012  0.00  0.00    +0.000 A 
ATOM      8  S   UNL     1       0.084  12.747  18.620  0.00  0.00    +0.000 S 
ATOM      9  H   UNL     1      -2.473  12.990  17.882  0.00  0.00    +0.000 HD
ENDROOT
BRANCH   6  10
ATOM     10  C   UNL     1       1.371   8.984  18.930  0.00  0.00    +0.000 A 
ATOM     11  C   UNL     1       1.848   8.201  17.907  0.00  0.00    +0.000 A 
ATOM     12  C   UNL     1       2.467   7.088  18.534  0.00  0.00    +0.000 A 
ATOM     13  N   UNL     1       2.376   7.210  19.868  0.00  0.00    +0.000 NA
ATOM     14  O   UNL     1       1.679   8.383  20.110  0.00  0.00    +0.000 OA
BRANCH  12  15
ATOM     15  C   UNL     1       3.142   5.971  17.872  0.00  0.00    +0.000 A 
ATOM     16  C   UNL     1       2.497   4.721  17.824  0.00  0.00    +0.000 A 
ATOM     17  F   UNL     1       1.266   4.569  18.339  0.00  0.00    +0.000 F 
ATOM     18  C   UNL     1       3.090   3.594  17.253  0.00  0.00    +0.000 A 
ATOM     19  C   UNL     1       4.358   3.695  16.695  0.00  0.00    +0.000 A 
ATOM     20  C   UNL     1       5.017   4.922  16.717  0.00  0.00    +0.000 A 
ATOM     21  C   UNL     1       4.420   6.054  17.293  0.00  0.00    +0.000 A 
ATOM     22 CL   UNL     1       5.380   7.495  17.302  0.00  0.00    +0.000 Cl
ENDBRANCH  12  15
ENDBRANCH   6  10
BRANCH   1  23
ATOM     23  C   UNL     1      -4.708  11.865  17.709  0.00  0.00    +0.000 C 
ATOM     24  O   UNL     1      -5.176  12.214  16.636  0.00  0.00    +0.000 OA
BRANCH  23  25
ATOM     25  O   UNL     1      -5.124  12.207  18.943  0.00  0.00    +0.000 OA
BRANCH  25  26
ATOM     26  C   UNL     1      -6.347  11.602  19.365  0.00  0.00    +0.000 C 
BRANCH  26  27
ATOM     27  C   UNL     1      -6.664  11.887  20.824  0.00  0.00    +0.000 C 
BRANCH  27  28
ATOM     28  O   UNL     1      -5.428  12.104  21.505  0.00  0.00    +0.000 OA
BRANCH  28  30
ATOM     29  C   UNL     1      -4.019  13.745  22.513  0.00  0.00    +0.000 C 
ATOM     30  C   UNL     1      -5.448  13.285  22.301  0.00  0.00    +0.000 C 
ENDBRANCH  28  30
ENDBRANCH  27  28
ENDBRANCH  26  27
ENDBRANCH  25  26
ENDBRANCH  23  25
ENDBRANCH   1  23
TORSDOF 8
ENDMDL
