MODEL 1
REMARK VINA RESULT:      -7.7      0.000      0.000
REMARK  Name = 
REMARK  3 active torsions:
REMARK  status: ('A' for Active; 'I' for Inactive)
REMARK    1  A    between atoms: C_1  and  O_2
REMARK    2  A    between atoms: O_2  and  C_3
REMARK    3  A    between atoms: C_6  and  C_7
REMARK                            x       y       z     vdW  Elec       q    Type
REMARK                         _______ _______ _______ _____ _____    ______ ____
ROOT
ATOM      1  C   UNL     1       2.740   7.246  18.403  0.00  0.00    +0.000 A 
ATOM      2  C   UNL     1       2.096   8.321  17.805  0.00  0.00    +0.000 A 
ATOM      3  C   UNL     1       1.245   9.135  18.559  0.00  0.00    +0.000 A 
ATOM      4  C   UNL     1       1.010   8.866  19.897  0.00  0.00    +0.000 A 
ATOM      5  N   UNL     1       0.102   9.604  20.627  0.00  0.00    +0.000 N 
ATOM      6  C   UNL     1      -0.039  11.054  20.471  0.00  0.00    +0.000 C 
ATOM      7  C   UNL     1       0.312  11.775  21.784  0.00  0.00    +0.000 C 
ATOM      8  O   UNL     1      -0.433  11.254  22.893  0.00  0.00    +0.000 OA
ATOM      9  C   UNL     1      -0.127   9.862  23.079  0.00  0.00    +0.000 C 
ATOM     10  C   UNL     1      -0.495   9.034  21.842  0.00  0.00    +0.000 C 
ATOM     11  N   UNL     1       1.648   7.816  20.447  0.00  0.00    +0.000 NA
ATOM     12  N   UNL     1       2.532   7.023  19.712  0.00  0.00    +0.000 NA
ENDROOT
BRANCH   1  16
ATOM     13  C   UNL     1       5.564   4.772  16.241  0.00  0.00    +0.000 A 
ATOM     14  C   UNL     1       5.803   6.123  16.455  0.00  0.00    +0.000 A 
ATOM     15  C   UNL     1       4.879   6.894  17.167  0.00  0.00    +0.000 A 
ATOM     16  C   UNL     1       3.673   6.358  17.675  0.00  0.00    +0.000 A 
ATOM     17  C   UNL     1       3.450   4.988  17.435  0.00  0.00    +0.000 A 
ATOM     18 CL   UNL     1       1.999   4.161  17.908  0.00  0.00    +0.000 Cl
ATOM     19  C   UNL     1       4.390   4.210  16.739  0.00  0.00    +0.000 A 
BRANCH  13  21
ATOM     20  C   UNL     1       6.314   3.924  14.152  0.00  0.00    +0.000 C 
ATOM     21  O   UNL     1       6.384   3.907  15.573  0.00  0.00    +0.000 OA
ENDBRANCH  13  21
ENDBRANCH   1  16
TORSDOF 2
ENDMDL
MODEL 2
REMARK VINA RESULT:      -6.9      2.336      7.969
REMARK  Name = 
REMARK  3 active torsions:
REMARK  status: ('A' for Active; 'I' for Inactive)
REMARK    1  A    between atoms: C_1  and  O_2
REMARK    2  A    between atoms: O_2  and  C_3
REMARK    3  A    between atoms: C_6  and  C_7
REMARK                            x       y       z     vdW  Elec       q    Type
REMARK                         _______ _______ _______ _____ _____    ______ ____
ROOT
ATOM      1  C   UNL     1       2.233   7.929  18.756  0.00  0.00    +0.000 A 
ATOM      2  C   UNL     1       2.491   6.802  19.525  0.00  0.00    +0.000 A 
ATOM      3  C   UNL     1       3.477   5.893  19.127  0.00  0.00    +0.000 A 
ATOM      4  C   UNL     1       4.186   6.087  17.953  0.00  0.00    +0.000 A 
ATOM      5  N   UNL     1       5.094   5.152  17.502  0.00  0.00    +0.000 N 
ATOM      6  C   UNL     1       5.991   4.428  18.406  0.00  0.00    +0.000 C 
ATOM      7  C   UNL     1       7.459   4.754  18.087  0.00  0.00    +0.000 C 
ATOM      8  O   UNL     1       7.763   4.539  16.702  0.00  0.00    +0.000 OA
ATOM      9  C   UNL     1       6.950   5.395  15.882  0.00  0.00    +0.000 C 
ATOM     10  C   UNL     1       5.456   5.112  16.080  0.00  0.00    +0.000 C 
ATOM     11  N   UNL     1       3.912   7.189  17.229  0.00  0.00    +0.000 NA
ATOM     12  N   UNL     1       2.958   8.122  17.640  0.00  0.00    +0.000 NA
ENDROOT
BRANCH   1  16
ATOM     13  C   UNL     1      -0.732  10.947  19.690  0.00  0.00    +0.000 A 
ATOM     14  C   UNL     1      -0.376  10.666  18.377  0.00  0.00    +0.000 A 
ATOM     15  C   UNL     1       0.576   9.677  18.105  0.00  0.00    +0.000 A 
ATOM     16  C   UNL     1       1.225   8.946  19.127  0.00  0.00    +0.000 A 
ATOM     17  C   UNL     1       0.853   9.258  20.450  0.00  0.00    +0.000 A 
ATOM     18 CL   UNL     1       1.587   8.529  21.844  0.00  0.00    +0.000 Cl
ATOM     19  C   UNL     1      -0.119  10.236  20.720  0.00  0.00    +0.000 A 
BRANCH  13  21
ATOM     20  C   UNL     1      -2.789  12.056  19.256  0.00  0.00    +0.000 C 
ATOM     21  O   UNL     1      -1.650  11.876  20.090  0.00  0.00    +0.000 OA
ENDBRANCH  13  21
ENDBRANCH   1  16
TORSDOF 2
ENDMDL
MODEL 3
REMARK VINA RESULT:      -6.9      1.709      2.281
REMARK  Name = 
REMARK  3 active torsions:
REMARK  status: ('A' for Active; 'I' for Inactive)
REMARK    1  A    between atoms: C_1  and  O_2
REMARK    2  A    between atoms: O_2  and  C_3
REMARK    3  A    between atoms: C_6  and  C_7
REMARK                            x       y       z     vdW  Elec       q    Type
REMARK                         _______ _______ _______ _____ _____    ______ ____
ROOT
ATOM      1  C   UNL     1       2.694   7.776  18.181  0.00  0.00    +0.000 A 
ATOM      2  C   UNL     1       2.120   7.712  19.443  0.00  0.00    +0.000 A 
ATOM      3  C   UNL     1       1.357   8.782  19.921  0.00  0.00    +0.000 A 
ATOM      4  C   UNL     1       1.188   9.927  19.159  0.00  0.00    +0.000 A 
ATOM      5  N   UNL     1       0.516  11.024  19.655  0.00  0.00    +0.000 N 
ATOM      6  C   UNL     1      -0.686  10.902  20.483  0.00  0.00    +0.000 C 
ATOM      7  C   UNL     1      -1.893  11.549  19.782  0.00  0.00    +0.000 C 
ATOM      8  O   UNL     1      -1.617  12.900  19.386  0.00  0.00    +0.000 OA
ATOM      9  C   UNL     1      -0.522  12.925  18.457  0.00  0.00    +0.000 C 
ATOM     10  C   UNL     1       0.758  12.352  19.077  0.00  0.00    +0.000 C 
ATOM     11  N   UNL     1       1.757   9.958  17.940  0.00  0.00    +0.000 NA
ATOM     12  N   UNL     1       2.486   8.878  17.438  0.00  0.00    +0.000 NA
ENDROOT
BRANCH   1  16
ATOM     13  C   UNL     1       5.125   4.656  16.413  0.00  0.00    +0.000 A 
ATOM     14  C   UNL     1       5.473   5.996  16.296  0.00  0.00    +0.000 A 
ATOM     15  C   UNL     1       4.675   6.981  16.888  0.00  0.00    +0.000 A 
ATOM     16  C   UNL     1       3.491   6.674  17.599  0.00  0.00    +0.000 A 
ATOM     17  C   UNL     1       3.156   5.308  17.693  0.00  0.00    +0.000 A 
ATOM     18 CL   UNL     1       1.707   4.733  18.456  0.00  0.00    +0.000 Cl
ATOM     19  C   UNL     1       3.971   4.319  17.117  0.00  0.00    +0.000 A 
BRANCH  13  21
ATOM     20  C   UNL     1       6.292   3.737  14.558  0.00  0.00    +0.000 C 
ATOM     21  O   UNL     1       5.818   3.600  15.893  0.00  0.00    +0.000 OA
ENDBRANCH  13  21
ENDBRANCH   1  16
TORSDOF 2
ENDMDL
MODEL 4
REMARK VINA RESULT:      -6.7      2.382      7.980
REMARK  Name = 
REMARK  3 active torsions:
REMARK  status: ('A' for Active; 'I' for Inactive)
REMARK    1  A    between atoms: C_1  and  O_2
REMARK    2  A    between atoms: O_2  and  C_3
REMARK    3  A    between atoms: C_6  and  C_7
REMARK                            x       y       z     vdW  Elec       q    Type
REMARK                         _______ _______ _______ _____ _____    ______ ____
ROOT
ATOM      1  C   UNL     1       1.292   9.180  19.264  0.00  0.00    +0.000 A 
ATOM      2  C   UNL     1       1.946   9.107  18.042  0.00  0.00    +0.000 A 
ATOM      3  C   UNL     1       2.768   8.014  17.752  0.00  0.00    +0.000 A 
ATOM      4  C   UNL     1       2.964   7.008  18.685  0.00  0.00    +0.000 A 
ATOM      5  N   UNL     1       3.844   5.973  18.447  0.00  0.00    +0.000 N 
ATOM      6  C   UNL     1       3.979   5.342  17.131  0.00  0.00    +0.000 C 
ATOM      7  C   UNL     1       3.583   3.858  17.201  0.00  0.00    +0.000 C 
ATOM      8  O   UNL     1       4.297   3.164  18.233  0.00  0.00    +0.000 OA
ATOM      9  C   UNL     1       3.996   3.744  19.513  0.00  0.00    +0.000 C 
ATOM     10  C   UNL     1       4.407   5.220  19.574  0.00  0.00    +0.000 C 
ATOM     11  N   UNL     1       2.316   7.109  19.860  0.00  0.00    +0.000 NA
ATOM     12  N   UNL     1       1.462   8.176  20.143  0.00  0.00    +0.000 NA
ENDROOT
BRANCH   1  16
ATOM     13  C   UNL     1      -1.275  12.455  20.473  0.00  0.00    +0.000 A 
ATOM     14  C   UNL     1      -0.179  12.076  21.238  0.00  0.00    +0.000 A 
ATOM     15  C   UNL     1       0.639  11.023  20.816  0.00  0.00    +0.000 A 
ATOM     16  C   UNL     1       0.388  10.293  19.631  0.00  0.00    +0.000 A 
ATOM     17  C   UNL     1      -0.736  10.690  18.879  0.00  0.00    +0.000 A 
ATOM     18 CL   UNL     1      -1.257   9.874  17.439  0.00  0.00    +0.000 Cl
ATOM     19  C   UNL     1      -1.544  11.762  19.293  0.00  0.00    +0.000 A 
BRANCH  13  21
ATOM     20  C   UNL     1      -3.533  13.171  20.655  0.00  0.00    +0.000 C 
ATOM     21  O   UNL     1      -2.146  13.466  20.764  0.00  0.00    +0.000 OA
ENDBRANCH  13  21
ENDBRANCH   1  16
TORSDOF 2
ENDMDL
MODEL 5
REMARK VINA RESULT:      -6.6      2.473      3.001
REMARK  Name = 
REMARK  3 active torsions:
REMARK  status: ('A' for Active; 'I' for Inactive)
REMARK    1  A    between atoms: C_1  and  O_2
REMARK    2  A    between atoms: O_2  and  C_3
REMARK    3  A    between atoms: C_6  and  C_7
REMARK                            x       y       z     vdW  Elec       q    Type
REMARK                         _______ _______ _______ _____ _____    ______ ____
ROOT
ATOM      1  C   UNL     1       2.430   6.893  19.453  0.00  0.00    +0.000 A 
ATOM      2  C   UNL     1       2.425   7.663  18.297  0.00  0.00    +0.000 A 
ATOM      3  C   UNL     1       1.822   8.925  18.298  0.00  0.00    +0.000 A 
ATOM      4  C   UNL     1       1.200   9.411  19.437  0.00  0.00    +0.000 A 
ATOM      5  N   UNL     1       0.522  10.612  19.425  0.00  0.00    +0.000 N 
ATOM      6  C   UNL     1       1.012  11.784  18.695  0.00  0.00    +0.000 C 
ATOM      7  C   UNL     1       1.312  12.939  19.666  0.00  0.00    +0.000 C 
ATOM      8  O   UNL     1       0.189  13.230  20.509  0.00  0.00    +0.000 OA
ATOM      9  C   UNL     1      -0.138  12.080  21.305  0.00  0.00    +0.000 C 
ATOM     10  C   UNL     1      -0.513  10.877  20.432  0.00  0.00    +0.000 C 
ATOM     11  N   UNL     1       1.222   8.641  20.541  0.00  0.00    +0.000 NA
ATOM     12  N   UNL     1       1.857   7.397  20.560  0.00  0.00    +0.000 NA
ENDROOT
BRANCH   1  16
ATOM     13  C   UNL     1       4.435   3.056  19.623  0.00  0.00    +0.000 A 
ATOM     14  C   UNL     1       5.095   4.197  19.184  0.00  0.00    +0.000 A 
ATOM     15  C   UNL     1       4.425   5.425  19.152  0.00  0.00    +0.000 A 
ATOM     16  C   UNL     1       3.070   5.562  19.533  0.00  0.00    +0.000 A 
ATOM     17  C   UNL     1       2.421   4.387  19.964  0.00  0.00    +0.000 A 
ATOM     18 CL   UNL     1       0.742   4.331  20.399  0.00  0.00    +0.000 Cl
ATOM     19  C   UNL     1       3.102   3.159  20.016  0.00  0.00    +0.000 A 
BRANCH  13  21
ATOM     20  C   UNL     1       5.180   1.285  21.021  0.00  0.00    +0.000 C 
ATOM     21  O   UNL     1       4.972   1.803  19.712  0.00  0.00    +0.000 OA
ENDBRANCH  13  21
ENDBRANCH   1  16
TORSDOF 2
ENDMDL
MODEL 6
REMARK VINA RESULT:      -6.6      2.412      8.111
REMARK  Name = 
REMARK  3 active torsions:
REMARK  status: ('A' for Active; 'I' for Inactive)
REMARK    1  A    between atoms: C_1  and  O_2
REMARK    2  A    between atoms: O_2  and  C_3
REMARK    3  A    between atoms: C_6  and  C_7
REMARK                            x       y       z     vdW  Elec       q    Type
REMARK                         _______ _______ _______ _____ _____    ______ ____
ROOT
ATOM      1  C   UNL     1       1.444   7.832  20.336  0.00  0.00    +0.000 A 
ATOM      2  C   UNL     1       2.103   7.979  19.123  0.00  0.00    +0.000 A 
ATOM      3  C   UNL     1       2.786   6.897  18.560  0.00  0.00    +0.000 A 
ATOM      4  C   UNL     1       2.839   5.677  19.214  0.00  0.00    +0.000 A 
ATOM      5  N   UNL     1       3.586   4.630  18.715  0.00  0.00    +0.000 N 
ATOM      6  C   UNL     1       3.663   4.330  17.283  0.00  0.00    +0.000 C 
ATOM      7  C   UNL     1       3.082   2.936  16.992  0.00  0.00    +0.000 C 
ATOM      8  O   UNL     1       3.688   1.926  17.811  0.00  0.00    +0.000 OA
ATOM      9  C   UNL     1       3.441   2.206  19.198  0.00  0.00    +0.000 C 
ATOM     10  C   UNL     1       4.033   3.558  19.614  0.00  0.00    +0.000 C 
ATOM     11  N   UNL     1       2.191   5.565  20.388  0.00  0.00    +0.000 NA
ATOM     12  N   UNL     1       1.472   6.629  20.937  0.00  0.00    +0.000 NA
ENDROOT
BRANCH   1  16
ATOM     13  C   UNL     1      -0.768  10.961  22.358  0.00  0.00    +0.000 A 
ATOM     14  C   UNL     1      -0.135   9.949  23.068  0.00  0.00    +0.000 A 
ATOM     15  C   UNL     1       0.583   8.959  22.389  0.00  0.00    +0.000 A 
ATOM     16  C   UNL     1       0.680   8.924  20.978  0.00  0.00    +0.000 A 
ATOM     17  C   UNL     1       0.020   9.955  20.281  0.00  0.00    +0.000 A 
ATOM     18 CL   UNL     1      -0.045  10.046  18.549  0.00  0.00    +0.000 Cl
ATOM     19  C   UNL     1      -0.682  10.961  20.967  0.00  0.00    +0.000 A 
BRANCH  13  21
ATOM     20  C   UNL     1      -0.943  13.295  22.763  0.00  0.00    +0.000 C 
ATOM     21  O   UNL     1      -1.490  11.988  22.896  0.00  0.00    +0.000 OA
ENDBRANCH  13  21
ENDBRANCH   1  16
TORSDOF 2
ENDMDL
MODEL 7
REMARK VINA RESULT:      -6.6      2.042      8.098
REMARK  Name = 
REMARK  3 active torsions:
REMARK  status: ('A' for Active; 'I' for Inactive)
REMARK    1  A    between atoms: C_1  and  O_2
REMARK    2  A    between atoms: O_2  and  C_3
REMARK    3  A    between atoms: C_6  and  C_7
REMARK                            x       y       z     vdW  Elec       q    Type
REMARK                         _______ _______ _______ _____ _____    ______ ____
ROOT
ATOM      1  C   UNL     1       2.284   7.590  19.495  0.00  0.00    +0.000 A 
ATOM      2  C   UNL     1       2.603   6.334  19.993  0.00  0.00    +0.000 A 
ATOM      3  C   UNL     1       3.502   5.514  19.304  0.00  0.00    +0.000 A 
ATOM      4  C   UNL     1       4.061   5.928  18.106  0.00  0.00    +0.000 A 
ATOM      5  N   UNL     1       4.875   5.092  17.370  0.00  0.00    +0.000 N 
ATOM      6  C   UNL     1       5.857   4.202  17.994  0.00  0.00    +0.000 C 
ATOM      7  C   UNL     1       7.283   4.576  17.553  0.00  0.00    +0.000 C 
ATOM      8  O   UNL     1       7.401   4.631  16.125  0.00  0.00    +0.000 OA
ATOM      9  C   UNL     1       6.516   5.634  15.597  0.00  0.00    +0.000 C 
ATOM     10  C   UNL     1       5.052   5.326  15.931  0.00  0.00    +0.000 C 
ATOM     11  N   UNL     1       3.731   7.150  17.648  0.00  0.00    +0.000 NA
ATOM     12  N   UNL     1       2.866   7.991  18.351  0.00  0.00    +0.000 NA
ENDROOT
BRANCH   1  16
ATOM     13  C   UNL     1      -0.384  10.242  21.644  0.00  0.00    +0.000 A 
ATOM     14  C   UNL     1       0.367   9.280  22.307  0.00  0.00    +0.000 A 
ATOM     15  C   UNL     1       1.230   8.447  21.588  0.00  0.00    +0.000 A 
ATOM     16  C   UNL     1       1.362   8.521  20.182  0.00  0.00    +0.000 A 
ATOM     17  C   UNL     1       0.580   9.497  19.533  0.00  0.00    +0.000 A 
ATOM     18 CL   UNL     1       0.542   9.696  17.809  0.00  0.00    +0.000 Cl
ATOM     19  C   UNL     1      -0.269  10.349  20.259  0.00  0.00    +0.000 A 
BRANCH  13  21
ATOM     20  C   UNL     1      -0.825  12.475  22.326  0.00  0.00    +0.000 C 
ATOM     21  O   UNL     1      -1.254  11.122  22.224  0.00  0.00    +0.000 OA
ENDBRANCH  13  21
ENDBRANCH   1  16
TORSDOF 2
ENDMDL
MODEL 8
REMARK VINA RESULT:      -6.6      2.570      3.225
REMARK  Name = 
REMARK  3 active torsions:
REMARK  status: ('A' for Active; 'I' for Inactive)
REMARK    1  A    between atoms: C_1  and  O_2
REMARK    2  A    between atoms: O_2  and  C_3
REMARK    3  A    between atoms: C_6  and  C_7
REMARK                            x       y       z     vdW  Elec       q    Type
REMARK                         _______ _______ _______ _____ _____    ______ ____
ROOT
ATOM      1  C   UNL     1       2.057   7.622  19.331  0.00  0.00    +0.000 A 
ATOM      2  C   UNL     1       2.073   8.396  18.179  0.00  0.00    +0.000 A 
ATOM      3  C   UNL     1       1.589   9.708  18.209  0.00  0.00    +0.000 A 
ATOM      4  C   UNL     1       1.063  10.241  19.375  0.00  0.00    +0.000 A 
ATOM      5  N   UNL     1       0.498  11.499  19.395  0.00  0.00    +0.000 N 
ATOM      6  C   UNL     1       1.061  12.626  18.647  0.00  0.00    +0.000 C 
ATOM      7  C   UNL     1       1.507  13.742  19.607  0.00  0.00    +0.000 C 
ATOM      8  O   UNL     1       0.452  14.130  20.498  0.00  0.00    +0.000 OA
ATOM      9  C   UNL     1       0.055  13.009  21.306  0.00  0.00    +0.000 C 
ATOM     10  C   UNL     1      -0.465  11.851  20.446  0.00  0.00    +0.000 C 
ATOM     11  N   UNL     1       1.061   9.465  20.474  0.00  0.00    +0.000 NA
ATOM     12  N   UNL     1       1.580   8.169  20.463  0.00  0.00    +0.000 NA
ENDROOT
BRANCH   1  16
ATOM     13  C   UNL     1       3.484   3.540  19.603  0.00  0.00    +0.000 A 
ATOM     14  C   UNL     1       2.495   4.018  20.453  0.00  0.00    +0.000 A 
ATOM     15  C   UNL     1       2.045   5.337  20.333  0.00  0.00    +0.000 A 
ATOM     16  C   UNL     1       2.575   6.237  19.380  0.00  0.00    +0.000 A 
ATOM     17  C   UNL     1       3.585   5.731  18.538  0.00  0.00    +0.000 A 
ATOM     18 CL   UNL     1       4.416   6.696  17.358  0.00  0.00    +0.000 Cl
ATOM     19  C   UNL     1       4.020   4.399  18.645  0.00  0.00    +0.000 A 
BRANCH  13  21
ATOM     20  C   UNL     1       3.660   1.437  18.510  0.00  0.00    +0.000 C 
ATOM     21  O   UNL     1       4.004   2.277  19.607  0.00  0.00    +0.000 OA
ENDBRANCH  13  21
ENDBRANCH   1  16
TORSDOF 2
ENDMDL
MODEL 9
REMARK VINA RESULT:      -6.5      2.722      3.635
REMARK  Name = 
REMARK  3 active torsions:
REMARK  status: ('A' for Active; 'I' for Inactive)
REMARK    1  A    between atoms: C_1  and  O_2
REMARK    2  A    between atoms: O_2  and  C_3
REMARK    3  A    between atoms: C_6  and  C_7
REMARK                            x       y       z     vdW  Elec       q    Type
REMARK                         _______ _______ _______ _____ _____    ______ ____
ROOT
ATOM      1  C   UNL     1       1.817   7.615  20.020  0.00  0.00    +0.000 A 
ATOM      2  C   UNL     1       1.390   8.130  21.236  0.00  0.00    +0.000 A 
ATOM      3  C   UNL     1       0.910   9.441  21.312  0.00  0.00    +0.000 A 
ATOM      4  C   UNL     1       0.881  10.251  20.187  0.00  0.00    +0.000 A 
ATOM      5  N   UNL     1       0.498  11.573  20.267  0.00  0.00    +0.000 N 
ATOM      6  C   UNL     1      -0.603  12.023  21.123  0.00  0.00    +0.000 C 
ATOM      7  C   UNL     1      -1.732  12.633  20.275  0.00  0.00    +0.000 C 
ATOM      8  O   UNL     1      -1.244  13.659  19.399  0.00  0.00    +0.000 OA
ATOM      9  C   UNL     1      -0.278  13.110  18.488  0.00  0.00    +0.000 C 
ATOM     10  C   UNL     1       0.927  12.521  19.231  0.00  0.00    +0.000 C 
ATOM     11  N   UNL     1       1.303   9.722  19.024  0.00  0.00    +0.000 NA
ATOM     12  N   UNL     1       1.745   8.401  18.931  0.00  0.00    +0.000 NA
ENDROOT
BRANCH   1  16
ATOM     13  C   UNL     1       3.193   3.521  19.684  0.00  0.00    +0.000 A 
ATOM     14  C   UNL     1       2.335   3.913  20.703  0.00  0.00    +0.000 A 
ATOM     15  C   UNL     1       1.897   5.239  20.779  0.00  0.00    +0.000 A 
ATOM     16  C   UNL     1       2.312   6.230  19.859  0.00  0.00    +0.000 A 
ATOM     17  C   UNL     1       3.191   5.808  18.842  0.00  0.00    +0.000 A 
ATOM     18 CL   UNL     1       3.875   6.886  17.665  0.00  0.00    +0.000 Cl
ATOM     19  C   UNL     1       3.612   4.471  18.754  0.00  0.00    +0.000 A 
BRANCH  13  21
ATOM     20  C   UNL     1       3.482   1.682  18.207  0.00  0.00    +0.000 C 
ATOM     21  O   UNL     1       3.686   2.261  19.490  0.00  0.00    +0.000 OA
ENDBRANCH  13  21
ENDBRANCH   1  16
TORSDOF 2
ENDMDL
