MODEL 1
REMARK VINA RESULT:      -8.7      0.000      0.000
REMARK  Name = 
REMARK  5 active torsions:
REMARK  status: ('A' for Active; 'I' for Inactive)
REMARK    1  A    between atoms: C_2  and  C_3
REMARK    2  A    between atoms: C_3  and  N_4
REMARK    3  A    between atoms: N_15  and  C_16
REMARK    4  A    between atoms: C_18  and  C_19
REMARK    5  A    between atoms: C_25  and  N_26
REMARK                            x       y       z     vdW  Elec       q    Type
REMARK                         _______ _______ _______ _____ _____    ______ ____
ROOT
ATOM      1  O   UNL     1       2.439   7.587  19.616  0.00  0.00    +0.000 OA
ATOM      2  C   UNL     1       2.453   7.763  18.394  0.00  0.00    +0.000 C 
ATOM      3  N   UNL     1       2.774   6.778  17.467  0.00  0.00    +0.000 N 
ATOM      4  H   UNL     1       2.358   6.878  16.545  0.00  0.00    +0.000 HD
ENDROOT
BRANCH   3   5
ATOM      5  C   UNL     1       2.956   5.431  17.886  0.00  0.00    +0.000 A 
ATOM      6  C   UNL     1       1.916   4.819  18.597  0.00  0.00    +0.000 A 
ATOM      7  C   UNL     1       2.103   3.582  19.215  0.00  0.00    +0.000 A 
ATOM      8  C   UNL     1       3.324   2.921  19.029  0.00  0.00    +0.000 A 
ATOM      9  C   UNL     1       4.350   3.518  18.286  0.00  0.00    +0.000 A 
ATOM     10  C   UNL     1       4.216   4.798  17.715  0.00  0.00    +0.000 A 
BRANCH  10  11
ATOM     11  N   UNL     1       5.267   5.399  17.045  0.00  0.00    +0.000 N 
ATOM     12  C   UNL     1       5.481   5.234  15.595  0.00  0.00    +0.000 C 
ATOM     13  C   UNL     1       6.998   5.135  15.345  0.00  0.00    +0.000 C 
ATOM     14  O   UNL     1       7.713   6.268  15.884  0.00  0.00    +0.000 OA
ATOM     15  C   UNL     1       7.454   6.409  17.293  0.00  0.00    +0.000 C 
ATOM     16  C   UNL     1       5.950   6.606  17.547  0.00  0.00    +0.000 C 
ENDBRANCH  10  11
BRANCH   7  17
ATOM     17  C   UNL     1       1.047   2.984  20.111  0.00  0.00    +0.000 C 
ATOM     18  F   UNL     1       1.523   2.031  20.959  0.00  0.00    +0.000 F 
ATOM     19  F   UNL     1       0.427   3.907  20.893  0.00  0.00    +0.000 F 
ATOM     20  F   UNL     1       0.058   2.379  19.397  0.00  0.00    +0.000 F 
ENDBRANCH   7  17
ENDBRANCH   3   5
BRANCH   2  21
ATOM     21  C   UNL     1       1.917   9.059  17.792  0.00  0.00    +0.000 C 
BRANCH  21  22
ATOM     22  N   UNL     1       1.320   9.914  18.800  0.00  0.00    +0.000 N 
ATOM     23  N   UNL     1       0.410   9.301  19.618  0.00  0.00    +0.000 NA
ATOM     24  N   UNL     1      -0.187   9.931  20.514  0.00  0.00    +0.000 NA
ATOM     25  C   UNL     1       0.103  11.280  20.732  0.00  0.00    +0.000 A 
ATOM     26  C   UNL     1      -0.527  11.938  21.800  0.00  0.00    +0.000 A 
ATOM     27  C   UNL     1      -0.247  13.282  22.070  0.00  0.00    +0.000 A 
ATOM     28  C   UNL     1       0.652  13.992  21.264  0.00  0.00    +0.000 A 
ATOM     29  C   UNL     1       1.267  13.347  20.191  0.00  0.00    +0.000 A 
ATOM     30  C   UNL     1       0.994  11.999  19.949  0.00  0.00    +0.000 A 
ATOM     31  C   UNL     1       1.655  11.249  18.876  0.00  0.00    +0.000 A 
ATOM     32  O   UNL     1       2.474  11.791  18.145  0.00  0.00    +0.000 OA
ENDBRANCH  21  22
ENDBRANCH   2  21
TORSDOF 5
ENDMDL
MODEL 2
REMARK VINA RESULT:      -8.7      3.823      8.090
REMARK  Name = 
REMARK  5 active torsions:
REMARK  status: ('A' for Active; 'I' for Inactive)
REMARK    1  A    between atoms: C_2  and  C_3
REMARK    2  A    between atoms: C_3  and  N_4
REMARK    3  A    between atoms: N_15  and  C_16
REMARK    4  A    between atoms: C_18  and  C_19
REMARK    5  A    between atoms: C_25  and  N_26
REMARK                            x       y       z     vdW  Elec       q    Type
REMARK                         _______ _______ _______ _____ _____    ______ ____
ROOT
ATOM      1  O   UNL     1       4.319   6.309  17.343  0.00  0.00    +0.000 OA
ATOM      2  C   UNL     1       4.980   5.792  18.249  0.00  0.00    +0.000 C 
ATOM      3  N   UNL     1       4.500   5.565  19.533  0.00  0.00    +0.000 N 
ATOM      4  H   UNL     1       4.923   4.793  20.040  0.00  0.00    +0.000 HD
ENDROOT
BRANCH   3   5
ATOM      5  C   UNL     1       3.127   5.782  19.834  0.00  0.00    +0.000 A 
ATOM      6  C   UNL     1       2.726   7.080  20.174  0.00  0.00    +0.000 A 
ATOM      7  C   UNL     1       1.448   7.326  20.679  0.00  0.00    +0.000 A 
ATOM      8  C   UNL     1       0.543   6.260  20.749  0.00  0.00    +0.000 A 
ATOM      9  C   UNL     1       0.934   4.968  20.373  0.00  0.00    +0.000 A 
ATOM     10  C   UNL     1       2.238   4.677  19.932  0.00  0.00    +0.000 A 
BRANCH  10  11
ATOM     11  N   UNL     1       2.623   3.382  19.634  0.00  0.00    +0.000 N 
ATOM     12  C   UNL     1       3.487   2.586  20.525  0.00  0.00    +0.000 C 
ATOM     13  C   UNL     1       4.444   1.758  19.647  0.00  0.00    +0.000 C 
ATOM     14  O   UNL     1       3.736   0.941  18.690  0.00  0.00    +0.000 OA
ATOM     15  C   UNL     1       2.884   1.752  17.861  0.00  0.00    +0.000 C 
ATOM     16  C   UNL     1       1.859   2.512  18.722  0.00  0.00    +0.000 C 
ENDBRANCH  10  11
BRANCH   7  17
ATOM     17  C   UNL     1       1.056   8.688  21.193  0.00  0.00    +0.000 C 
ATOM     18  F   UNL     1      -0.238   8.764  21.611  0.00  0.00    +0.000 F 
ATOM     19  F   UNL     1       1.816   9.101  22.242  0.00  0.00    +0.000 F 
ATOM     20  F   UNL     1       1.190   9.650  20.238  0.00  0.00    +0.000 F 
ENDBRANCH   7  17
ENDBRANCH   3   5
BRANCH   2  21
ATOM     21  C   UNL     1       6.344   5.174  17.956  0.00  0.00    +0.000 C 
BRANCH  21  22
ATOM     22  N   UNL     1       6.595   5.069  16.531  0.00  0.00    +0.000 N 
ATOM     23  N   UNL     1       7.525   5.943  16.040  0.00  0.00    +0.000 NA
ATOM     24  N   UNL     1       7.819   5.966  14.827  0.00  0.00    +0.000 NA
ATOM     25  C   UNL     1       7.230   5.054  13.947  0.00  0.00    +0.000 A 
ATOM     26  C   UNL     1       7.642   5.053  12.606  0.00  0.00    +0.000 A 
ATOM     27  C   UNL     1       7.097   4.141  11.697  0.00  0.00    +0.000 A 
ATOM     28  C   UNL     1       6.118   3.229  12.112  0.00  0.00    +0.000 A 
ATOM     29  C   UNL     1       5.693   3.238  13.441  0.00  0.00    +0.000 A 
ATOM     30  C   UNL     1       6.263   4.140  14.341  0.00  0.00    +0.000 A 
ATOM     31  C   UNL     1       5.904   4.157  15.763  0.00  0.00    +0.000 A 
ATOM     32  O   UNL     1       5.077   3.373  16.210  0.00  0.00    +0.000 OA
ENDBRANCH  21  22
ENDBRANCH   2  21
TORSDOF 5
ENDMDL
MODEL 3
REMARK VINA RESULT:      -8.6      1.589      1.818
REMARK  Name = 
REMARK  5 active torsions:
REMARK  status: ('A' for Active; 'I' for Inactive)
REMARK    1  A    between atoms: C_2  and  C_3
REMARK    2  A    between atoms: C_3  and  N_4
REMARK    3  A    between atoms: N_15  and  C_16
REMARK    4  A    between atoms: C_18  and  C_19
REMARK    5  A    between atoms: C_25  and  N_26
REMARK                            x       y       z     vdW  Elec       q    Type
REMARK                         _______ _______ _______ _____ _____    ______ ____
ROOT
ATOM      1  O   UNL     1       1.835   7.743  19.623  0.00  0.00    +0.000 OA
ATOM      2  C   UNL     1       2.422   8.086  18.592  0.00  0.00    +0.000 C 
ATOM      3  N   UNL     1       3.118   7.213  17.763  0.00  0.00    +0.000 N 
ATOM      4  H   UNL     1       3.183   7.481  16.785  0.00  0.00    +0.000 HD
ENDROOT
BRANCH   3   5
ATOM      5  C   UNL     1       3.053   5.810  17.983  0.00  0.00    +0.000 A 
ATOM      6  C   UNL     1       1.977   5.311  18.728  0.00  0.00    +0.000 A 
ATOM      7  C   UNL     1       1.957   3.984  19.158  0.00  0.00    +0.000 A 
ATOM      8  C   UNL     1       2.993   3.135  18.748  0.00  0.00    +0.000 A 
ATOM      9  C   UNL     1       4.050   3.627  17.972  0.00  0.00    +0.000 A 
ATOM     10  C   UNL     1       4.134   4.978  17.588  0.00  0.00    +0.000 A 
BRANCH  10  11
ATOM     11  N   UNL     1       5.224   5.457  16.881  0.00  0.00    +0.000 N 
ATOM     12  C   UNL     1       5.433   5.161  15.451  0.00  0.00    +0.000 C 
ATOM     13  C   UNL     1       6.942   4.950  15.224  0.00  0.00    +0.000 C 
ATOM     14  O   UNL     1       7.723   6.078  15.675  0.00  0.00    +0.000 OA
ATOM     15  C   UNL     1       7.467   6.350  17.065  0.00  0.00    +0.000 C 
ATOM     16  C   UNL     1       5.976   6.657  17.289  0.00  0.00    +0.000 C 
ENDBRANCH  10  11
BRANCH   7  17
ATOM     17  C   UNL     1       0.885   3.475  20.088  0.00  0.00    +0.000 C 
ATOM     18  F   UNL     1       1.369   2.797  21.165  0.00  0.00    +0.000 F 
ATOM     19  F   UNL     1       0.100   4.466  20.589  0.00  0.00    +0.000 F 
ATOM     20  F   UNL     1       0.036   2.613  19.463  0.00  0.00    +0.000 F 
ENDBRANCH   7  17
ENDBRANCH   3   5
BRANCH   2  21
ATOM     21  C   UNL     1       2.258   9.499  18.042  0.00  0.00    +0.000 C 
BRANCH  21  22
ATOM     22  N   UNL     1       0.896   9.978  18.181  0.00  0.00    +0.000 N 
ATOM     23  N   UNL     1      -0.018   9.375  17.360  0.00  0.00    +0.000 NA
ATOM     24  N   UNL     1      -1.221   9.708  17.370  0.00  0.00    +0.000 NA
ATOM     25  C   UNL     1      -1.669  10.681  18.267  0.00  0.00    +0.000 A 
ATOM     26  C   UNL     1      -3.040  10.974  18.309  0.00  0.00    +0.000 A 
ATOM     27  C   UNL     1      -3.536  11.924  19.209  0.00  0.00    +0.000 A 
ATOM     28  C   UNL     1      -2.664  12.607  20.066  0.00  0.00    +0.000 A 
ATOM     29  C   UNL     1      -1.298  12.331  20.016  0.00  0.00    +0.000 A 
ATOM     30  C   UNL     1      -0.822  11.365  19.128  0.00  0.00    +0.000 A 
ATOM     31  C   UNL     1       0.594  10.986  19.071  0.00  0.00    +0.000 A 
ATOM     32  O   UNL     1       1.415  11.517  19.807  0.00  0.00    +0.000 OA
ENDBRANCH  21  22
ENDBRANCH   2  21
TORSDOF 5
ENDMDL
MODEL 4
REMARK VINA RESULT:      -8.6      3.732      7.835
REMARK  Name = 
REMARK  5 active torsions:
REMARK  status: ('A' for Active; 'I' for Inactive)
REMARK    1  A    between atoms: C_2  and  C_3
REMARK    2  A    between atoms: C_3  and  N_4
REMARK    3  A    between atoms: N_15  and  C_16
REMARK    4  A    between atoms: C_18  and  C_19
REMARK    5  A    between atoms: C_25  and  N_26
REMARK                            x       y       z     vdW  Elec       q    Type
REMARK                         _______ _______ _______ _____ _____    ______ ____
ROOT
ATOM      1  O   UNL     1       5.369   5.219  20.104  0.00  0.00    +0.000 OA
ATOM      2  C   UNL     1       5.232   5.539  18.919  0.00  0.00    +0.000 C 
ATOM      3  N   UNL     1       4.013   5.867  18.335  0.00  0.00    +0.000 N 
ATOM      4  H   UNL     1       4.054   6.499  17.540  0.00  0.00    +0.000 HD
ENDROOT
BRANCH   3   5
ATOM      5  C   UNL     1       2.849   6.009  19.139  0.00  0.00    +0.000 A 
ATOM      6  C   UNL     1       2.460   7.303  19.508  0.00  0.00    +0.000 A 
ATOM      7  C   UNL     1       1.458   7.506  20.458  0.00  0.00    +0.000 A 
ATOM      8  C   UNL     1       0.784   6.388  20.965  0.00  0.00    +0.000 A 
ATOM      9  C   UNL     1       1.150   5.096  20.567  0.00  0.00    +0.000 A 
ATOM     10  C   UNL     1       2.206   4.858  19.668  0.00  0.00    +0.000 A 
BRANCH  10  11
ATOM     11  N   UNL     1       2.596   3.571  19.343  0.00  0.00    +0.000 N 
ATOM     12  C   UNL     1       3.359   2.715  20.272  0.00  0.00    +0.000 C 
ATOM     13  C   UNL     1       4.382   1.911  19.447  0.00  0.00    +0.000 C 
ATOM     14  O   UNL     1       3.753   1.155  18.389  0.00  0.00    +0.000 OA
ATOM     15  C   UNL     1       2.996   2.022  17.525  0.00  0.00    +0.000 C 
ATOM     16  C   UNL     1       1.907   2.761  18.322  0.00  0.00    +0.000 C 
ENDBRANCH  10  11
BRANCH   7  17
ATOM     17  C   UNL     1       1.136   8.884  20.978  0.00  0.00    +0.000 C 
ATOM     18  F   UNL     1       1.438   9.884  20.104  0.00  0.00    +0.000 F 
ATOM     19  F   UNL     1      -0.178   9.042  21.291  0.00  0.00    +0.000 F 
ATOM     20  F   UNL     1       1.824   9.172  22.116  0.00  0.00    +0.000 F 
ENDBRANCH   7  17
ENDBRANCH   3   5
BRANCH   2  21
ATOM     21  C   UNL     1       6.452   5.787  18.037  0.00  0.00    +0.000 C 
BRANCH  21  22
ATOM     22  N   UNL     1       6.316   5.157  16.737  0.00  0.00    +0.000 N 
ATOM     23  N   UNL     1       5.372   4.168  16.668  0.00  0.00    +0.000 NA
ATOM     24  N   UNL     1       5.169   3.536  15.611  0.00  0.00    +0.000 NA
ATOM     25  C   UNL     1       5.877   3.866  14.452  0.00  0.00    +0.000 A 
ATOM     26  C   UNL     1       5.567   3.191  13.262  0.00  0.00    +0.000 A 
ATOM     27  C   UNL     1       6.234   3.506  12.073  0.00  0.00    +0.000 A 
ATOM     28  C   UNL     1       7.233   4.487  12.063  0.00  0.00    +0.000 A 
ATOM     29  C   UNL     1       7.557   5.149  13.248  0.00  0.00    +0.000 A 
ATOM     30  C   UNL     1       6.867   4.838  14.421  0.00  0.00    +0.000 A 
ATOM     31  C   UNL     1       7.117   5.541  15.684  0.00  0.00    +0.000 A 
ATOM     32  O   UNL     1       7.955   6.430  15.751  0.00  0.00    +0.000 OA
ENDBRANCH  21  22
ENDBRANCH   2  21
TORSDOF 5
ENDMDL
MODEL 5
REMARK VINA RESULT:      -8.6      1.299      1.556
REMARK  Name = 
REMARK  5 active torsions:
REMARK  status: ('A' for Active; 'I' for Inactive)
REMARK    1  A    between atoms: C_2  and  C_3
REMARK    2  A    between atoms: C_3  and  N_4
REMARK    3  A    between atoms: N_15  and  C_16
REMARK    4  A    between atoms: C_18  and  C_19
REMARK    5  A    between atoms: C_25  and  N_26
REMARK                            x       y       z     vdW  Elec       q    Type
REMARK                         _______ _______ _______ _____ _____    ______ ____
ROOT
ATOM      1  O   UNL     1       1.998   7.620  19.614  0.00  0.00    +0.000 OA
ATOM      2  C   UNL     1       2.302   7.875  18.444  0.00  0.00    +0.000 C 
ATOM      3  N   UNL     1       2.869   6.957  17.567  0.00  0.00    +0.000 N 
ATOM      4  H   UNL     1       2.686   7.111  16.579  0.00  0.00    +0.000 HD
ENDROOT
BRANCH   3   5
ATOM      5  C   UNL     1       2.985   5.590  17.937  0.00  0.00    +0.000 A 
ATOM      6  C   UNL     1       1.927   5.010  18.649  0.00  0.00    +0.000 A 
ATOM      7  C   UNL     1       2.057   3.744  19.222  0.00  0.00    +0.000 A 
ATOM      8  C   UNL     1       3.236   3.026  18.989  0.00  0.00    +0.000 A 
ATOM      9  C   UNL     1       4.280   3.592  18.245  0.00  0.00    +0.000 A 
ATOM     10  C   UNL     1       4.205   4.895  17.720  0.00  0.00    +0.000 A 
BRANCH  10  11
ATOM     11  N   UNL     1       5.275   5.461  17.049  0.00  0.00    +0.000 N 
ATOM     12  C   UNL     1       5.536   5.212  15.619  0.00  0.00    +0.000 C 
ATOM     13  C   UNL     1       7.060   5.107  15.423  0.00  0.00    +0.000 C 
ATOM     14  O   UNL     1       7.754   6.274  15.916  0.00  0.00    +0.000 OA
ATOM     15  C   UNL     1       7.449   6.497  17.305  0.00  0.00    +0.000 C 
ATOM     16  C   UNL     1       5.937   6.700  17.500  0.00  0.00    +0.000 C 
ENDBRANCH  10  11
BRANCH   7  17
ATOM     17  C   UNL     1       0.987   3.174  20.118  0.00  0.00    +0.000 C 
ATOM     18  F   UNL     1       1.457   2.282  21.034  0.00  0.00    +0.000 F 
ATOM     19  F   UNL     1       0.323   4.125  20.826  0.00  0.00    +0.000 F 
ATOM     20  F   UNL     1       0.034   2.506  19.411  0.00  0.00    +0.000 F 
ENDBRANCH   7  17
ENDBRANCH   3   5
BRANCH   2  21
ATOM     21  C   UNL     1       1.889   9.199  17.808  0.00  0.00    +0.000 C 
BRANCH  21  22
ATOM     22  N   UNL     1       1.022   9.969  18.680  0.00  0.00    +0.000 N 
ATOM     23  N   UNL     1       1.596  10.382  19.851  0.00  0.00    +0.000 NA
ATOM     24  N   UNL     1       0.951  11.038  20.695  0.00  0.00    +0.000 NA
ATOM     25  C   UNL     1      -0.370  11.408  20.432  0.00  0.00    +0.000 A 
ATOM     26  C   UNL     1      -1.040  12.213  21.366  0.00  0.00    +0.000 A 
ATOM     27  C   UNL     1      -2.355  12.628  21.131  0.00  0.00    +0.000 A 
ATOM     28  C   UNL     1      -3.026  12.227  19.969  0.00  0.00    +0.000 A 
ATOM     29  C   UNL     1      -2.369  11.412  19.046  0.00  0.00    +0.000 A 
ATOM     30  C   UNL     1      -1.049  11.025  19.284  0.00  0.00    +0.000 A 
ATOM     31  C   UNL     1      -0.285  10.222  18.324  0.00  0.00    +0.000 A 
ATOM     32  O   UNL     1      -0.791   9.855  17.272  0.00  0.00    +0.000 OA
ENDBRANCH  21  22
ENDBRANCH   2  21
TORSDOF 5
ENDMDL
MODEL 6
REMARK VINA RESULT:      -8.6      1.529      2.090
REMARK  Name = 
REMARK  5 active torsions:
REMARK  status: ('A' for Active; 'I' for Inactive)
REMARK    1  A    between atoms: C_2  and  C_3
REMARK    2  A    between atoms: C_3  and  N_4
REMARK    3  A    between atoms: N_15  and  C_16
REMARK    4  A    between atoms: C_18  and  C_19
REMARK    5  A    between atoms: C_25  and  N_26
REMARK                            x       y       z     vdW  Elec       q    Type
REMARK                         _______ _______ _______ _____ _____    ______ ____
ROOT
ATOM      1  O   UNL     1       2.074   7.547  19.546  0.00  0.00    +0.000 OA
ATOM      2  C   UNL     1       2.565   7.733  18.428  0.00  0.00    +0.000 C 
ATOM      3  N   UNL     1       3.243   6.760  17.702  0.00  0.00    +0.000 N 
ATOM      4  H   UNL     1       3.222   6.861  16.691  0.00  0.00    +0.000 HD
ENDROOT
BRANCH   3   5
ATOM      5  C   UNL     1       3.267   5.413  18.156  0.00  0.00    +0.000 A 
ATOM      6  C   UNL     1       2.100   4.892  18.730  0.00  0.00    +0.000 A 
ATOM      7  C   UNL     1       2.112   3.658  19.381  0.00  0.00    +0.000 A 
ATOM      8  C   UNL     1       3.294   2.908  19.367  0.00  0.00    +0.000 A 
ATOM      9  C   UNL     1       4.450   3.414  18.760  0.00  0.00    +0.000 A 
ATOM     10  C   UNL     1       4.488   4.687  18.162  0.00  0.00    +0.000 A 
BRANCH  10  11
ATOM     11  N   UNL     1       5.661   5.196  17.631  0.00  0.00    +0.000 N 
ATOM     12  C   UNL     1       6.562   6.076  18.398  0.00  0.00    +0.000 C 
ATOM     13  C   UNL     1       7.115   7.146  17.437  0.00  0.00    +0.000 C 
ATOM     14  O   UNL     1       7.762   6.561  16.286  0.00  0.00    +0.000 OA
ATOM     15  C   UNL     1       6.858   5.688  15.584  0.00  0.00    +0.000 C 
ATOM     16  C   UNL     1       6.373   4.558  16.509  0.00  0.00    +0.000 C 
ENDBRANCH  10  11
BRANCH   7  17
ATOM     17  C   UNL     1       0.906   3.157  20.135  0.00  0.00    +0.000 C 
ATOM     18  F   UNL     1       0.078   2.376  19.388  0.00  0.00    +0.000 F 
ATOM     19  F   UNL     1       1.231   2.420  21.231  0.00  0.00    +0.000 F 
ATOM     20  F   UNL     1       0.132   4.179  20.594  0.00  0.00    +0.000 F 
ENDBRANCH   7  17
ENDBRANCH   3   5
BRANCH   2  21
ATOM     21  C   UNL     1       2.288   9.025  17.666  0.00  0.00    +0.000 C 
BRANCH  21  22
ATOM     22  N   UNL     1       1.311   9.854  18.347  0.00  0.00    +0.000 N 
ATOM     23  N   UNL     1       1.803  10.597  19.385  0.00  0.00    +0.000 NA
ATOM     24  N   UNL     1       1.062  11.339  20.062  0.00  0.00    +0.000 NA
ATOM     25  C   UNL     1      -0.291  11.461  19.736  0.00  0.00    +0.000 A 
ATOM     26  C   UNL     1      -1.078  12.364  20.466  0.00  0.00    +0.000 A 
ATOM     27  C   UNL     1      -2.431  12.536  20.158  0.00  0.00    +0.000 A 
ATOM     28  C   UNL     1      -3.021  11.793  19.127  0.00  0.00    +0.000 A 
ATOM     29  C   UNL     1      -2.246  10.881  18.410  0.00  0.00    +0.000 A 
ATOM     30  C   UNL     1      -0.892  10.738  18.715  0.00  0.00    +0.000 A 
ATOM     31  C   UNL     1      -0.011   9.843  17.958  0.00  0.00    +0.000 A 
ATOM     32  O   UNL     1      -0.444   9.180  17.025  0.00  0.00    +0.000 OA
ENDBRANCH  21  22
ENDBRANCH   2  21
TORSDOF 5
ENDMDL
MODEL 7
REMARK VINA RESULT:      -8.5      1.414      1.802
REMARK  Name = 
REMARK  5 active torsions:
REMARK  status: ('A' for Active; 'I' for Inactive)
REMARK    1  A    between atoms: C_2  and  C_3
REMARK    2  A    between atoms: C_3  and  N_4
REMARK    3  A    between atoms: N_15  and  C_16
REMARK    4  A    between atoms: C_18  and  C_19
REMARK    5  A    between atoms: C_25  and  N_26
REMARK                            x       y       z     vdW  Elec       q    Type
REMARK                         _______ _______ _______ _____ _____    ______ ____
ROOT
ATOM      1  O   UNL     1       2.184   7.689  19.524  0.00  0.00    +0.000 OA
ATOM      2  C   UNL     1       2.697   7.851  18.413  0.00  0.00    +0.000 C 
ATOM      3  N   UNL     1       3.340   6.848  17.697  0.00  0.00    +0.000 N 
ATOM      4  H   UNL     1       3.337   6.947  16.685  0.00  0.00    +0.000 HD
ENDROOT
BRANCH   3   5
ATOM      5  C   UNL     1       3.300   5.502  18.154  0.00  0.00    +0.000 A 
ATOM      6  C   UNL     1       2.124   5.051  18.767  0.00  0.00    +0.000 A 
ATOM      7  C   UNL     1       2.084   3.819  19.421  0.00  0.00    +0.000 A 
ATOM      8  C   UNL     1       3.219   3.001  19.371  0.00  0.00    +0.000 A 
ATOM      9  C   UNL     1       4.383   3.437  18.726  0.00  0.00    +0.000 A 
ATOM     10  C   UNL     1       4.477   4.706  18.123  0.00  0.00    +0.000 A 
BRANCH  10  11
ATOM     11  N   UNL     1       5.659   5.145  17.553  0.00  0.00    +0.000 N 
ATOM     12  C   UNL     1       6.601   6.030  18.263  0.00  0.00    +0.000 C 
ATOM     13  C   UNL     1       7.178   7.029  17.242  0.00  0.00    +0.000 C 
ATOM     14  O   UNL     1       7.789   6.362  16.116  0.00  0.00    +0.000 OA
ATOM     15  C   UNL     1       6.846   5.487  15.470  0.00  0.00    +0.000 C 
ATOM     16  C   UNL     1       6.333   4.424  16.458  0.00  0.00    +0.000 C 
ENDBRANCH  10  11
BRANCH   7  17
ATOM     17  C   UNL     1       0.876   3.391  20.215  0.00  0.00    +0.000 C 
ATOM     18  F   UNL     1       1.182   2.729  21.365  0.00  0.00    +0.000 F 
ATOM     19  F   UNL     1       0.081   4.432  20.580  0.00  0.00    +0.000 F 
ATOM     20  F   UNL     1       0.076   2.546  19.507  0.00  0.00    +0.000 F 
ENDBRANCH   7  17
ENDBRANCH   3   5
BRANCH   2  21
ATOM     21  C   UNL     1       2.486   9.152  17.644  0.00  0.00    +0.000 C 
BRANCH  21  22
ATOM     22  N   UNL     1       1.204   9.758  17.952  0.00  0.00    +0.000 N 
ATOM     23  N   UNL     1       0.120   9.136  17.395  0.00  0.00    +0.000 NA
ATOM     24  N   UNL     1      -1.038   9.569  17.569  0.00  0.00    +0.000 NA
ATOM     25  C   UNL     1      -1.253  10.682  18.385  0.00  0.00    +0.000 A 
ATOM     26  C   UNL     1      -2.573  11.093  18.625  0.00  0.00    +0.000 A 
ATOM     27  C   UNL     1      -2.836  12.187  19.455  0.00  0.00    +0.000 A 
ATOM     28  C   UNL     1      -1.782  12.897  20.044  0.00  0.00    +0.000 A 
ATOM     29  C   UNL     1      -0.467  12.502  19.795  0.00  0.00    +0.000 A 
ATOM     30  C   UNL     1      -0.222  11.394  18.981  0.00  0.00    +0.000 A 
ATOM     31  C   UNL     1       1.133  10.892  18.732  0.00  0.00    +0.000 A 
ATOM     32  O   UNL     1       2.106  11.440  19.232  0.00  0.00    +0.000 OA
ENDBRANCH  21  22
ENDBRANCH   2  21
TORSDOF 5
ENDMDL
MODEL 8
REMARK VINA RESULT:      -8.5      0.871      1.261
REMARK  Name = 
REMARK  5 active torsions:
REMARK  status: ('A' for Active; 'I' for Inactive)
REMARK    1  A    between atoms: C_2  and  C_3
REMARK    2  A    between atoms: C_3  and  N_4
REMARK    3  A    between atoms: N_15  and  C_16
REMARK    4  A    between atoms: C_18  and  C_19
REMARK    5  A    between atoms: C_25  and  N_26
REMARK                            x       y       z     vdW  Elec       q    Type
REMARK                         _______ _______ _______ _____ _____    ______ ____
ROOT
ATOM      1  O   UNL     1       2.610   7.082  19.907  0.00  0.00    +0.000 OA
ATOM      2  C   UNL     1       2.543   7.488  18.742  0.00  0.00    +0.000 C 
ATOM      3  N   UNL     1       2.744   6.686  17.624  0.00  0.00    +0.000 N 
ATOM      4  H   UNL     1       2.267   6.975  16.774  0.00  0.00    +0.000 HD
ENDROOT
BRANCH   3   5
ATOM      5  C   UNL     1       2.887   5.279  17.767  0.00  0.00    +0.000 A 
ATOM      6  C   UNL     1       1.825   4.566  18.337  0.00  0.00    +0.000 A 
ATOM      7  C   UNL     1       1.973   3.226  18.697  0.00  0.00    +0.000 A 
ATOM      8  C   UNL     1       3.179   2.583  18.389  0.00  0.00    +0.000 A 
ATOM      9  C   UNL     1       4.228   3.288  17.786  0.00  0.00    +0.000 A 
ATOM     10  C   UNL     1       4.133   4.659  17.481  0.00  0.00    +0.000 A 
BRANCH  10  11
ATOM     11  N   UNL     1       5.206   5.352  16.950  0.00  0.00    +0.000 N 
ATOM     12  C   UNL     1       5.494   5.381  15.504  0.00  0.00    +0.000 C 
ATOM     13  C   UNL     1       7.023   5.330  15.321  0.00  0.00    +0.000 C 
ATOM     14  O   UNL     1       7.693   6.390  16.039  0.00  0.00    +0.000 OA
ATOM     15  C   UNL     1       7.362   6.343  17.439  0.00  0.00    +0.000 C 
ATOM     16  C   UNL     1       5.843   6.489  17.640  0.00  0.00    +0.000 C 
ENDBRANCH  10  11
BRANCH   7  17
ATOM     17  C   UNL     1       0.893   2.490  19.449  0.00  0.00    +0.000 C 
ATOM     18  F   UNL     1      -0.035   3.309  20.016  0.00  0.00    +0.000 F 
ATOM     19  F   UNL     1       0.200   1.619  18.669  0.00  0.00    +0.000 F 
ATOM     20  F   UNL     1       1.401   1.748  20.471  0.00  0.00    +0.000 F 
ENDBRANCH   7  17
ENDBRANCH   3   5
BRANCH   2  21
ATOM     21  C   UNL     1       2.031   8.893  18.439  0.00  0.00    +0.000 C 
BRANCH  21  22
ATOM     22  N   UNL     1       1.250   9.431  19.537  0.00  0.00    +0.000 N 
ATOM     23  N   UNL     1       0.890   8.521  20.494  0.00  0.00    +0.000 NA
ATOM     24  N   UNL     1       0.203   8.853  21.481  0.00  0.00    +0.000 NA
ATOM     25  C   UNL     1      -0.175  10.187  21.653  0.00  0.00    +0.000 A 
ATOM     26  C   UNL     1      -0.878  10.541  22.815  0.00  0.00    +0.000 A 
ATOM     27  C   UNL     1      -1.255  11.869  23.039  0.00  0.00    +0.000 A 
ATOM     28  C   UNL     1      -0.951  12.859  22.096  0.00  0.00    +0.000 A 
ATOM     29  C   UNL     1      -0.267  12.508  20.932  0.00  0.00    +0.000 A 
ATOM     30  C   UNL     1       0.122  11.183  20.733  0.00  0.00    +0.000 A 
ATOM     31  C   UNL     1       0.896  10.763  19.561  0.00  0.00    +0.000 A 
ATOM     32  O   UNL     1       1.226  11.573  18.705  0.00  0.00    +0.000 OA
ENDBRANCH  21  22
ENDBRANCH   2  21
TORSDOF 5
ENDMDL
MODEL 9
REMARK VINA RESULT:      -8.4      0.635      1.244
REMARK  Name = 
REMARK  5 active torsions:
REMARK  status: ('A' for Active; 'I' for Inactive)
REMARK    1  A    between atoms: C_2  and  C_3
REMARK    2  A    between atoms: C_3  and  N_4
REMARK    3  A    between atoms: N_15  and  C_16
REMARK    4  A    between atoms: C_18  and  C_19
REMARK    5  A    between atoms: C_25  and  N_26
REMARK                            x       y       z     vdW  Elec       q    Type
REMARK                         _______ _______ _______ _____ _____    ______ ____
ROOT
ATOM      1  O   UNL     1       2.471   7.541  19.571  0.00  0.00    +0.000 OA
ATOM      2  C   UNL     1       2.736   7.658  18.371  0.00  0.00    +0.000 C 
ATOM      3  N   UNL     1       3.216   6.626  17.573  0.00  0.00    +0.000 N 
ATOM      4  H   UNL     1       2.998   6.687  16.582  0.00  0.00    +0.000 HD
ENDROOT
BRANCH   3   5
ATOM      5  C   UNL     1       3.279   5.299  18.079  0.00  0.00    +0.000 A 
ATOM      6  C   UNL     1       2.123   4.761  18.658  0.00  0.00    +0.000 A 
ATOM      7  C   UNL     1       2.166   3.554  19.356  0.00  0.00    +0.000 A 
ATOM      8  C   UNL     1       3.372   2.843  19.384  0.00  0.00    +0.000 A 
ATOM      9  C   UNL     1       4.519   3.364  18.772  0.00  0.00    +0.000 A 
ATOM     10  C   UNL     1       4.523   4.614  18.126  0.00  0.00    +0.000 A 
BRANCH  10  11
ATOM     11  N   UNL     1       5.685   5.142  17.590  0.00  0.00    +0.000 N 
ATOM     12  C   UNL     1       6.560   6.060  18.342  0.00  0.00    +0.000 C 
ATOM     13  C   UNL     1       7.090   7.123  17.361  0.00  0.00    +0.000 C 
ATOM     14  O   UNL     1       7.757   6.531  16.225  0.00  0.00    +0.000 OA
ATOM     15  C   UNL     1       6.879   5.621  15.538  0.00  0.00    +0.000 C 
ATOM     16  C   UNL     1       6.418   4.498  16.484  0.00  0.00    +0.000 C 
ENDBRANCH  10  11
BRANCH   7  17
ATOM     17  C   UNL     1       0.967   3.042  20.115  0.00  0.00    +0.000 C 
ATOM     18  F   UNL     1       0.095   2.332  19.347  0.00  0.00    +0.000 F 
ATOM     19  F   UNL     1       1.301   2.230  21.153  0.00  0.00    +0.000 F 
ATOM     20  F   UNL     1       0.238   4.055  20.658  0.00  0.00    +0.000 F 
ENDBRANCH   7  17
ENDBRANCH   3   5
BRANCH   2  21
ATOM     21  C   UNL     1       2.362   8.931  17.616  0.00  0.00    +0.000 C 
BRANCH  21  22
ATOM     22  N   UNL     1       1.560   9.825  18.430  0.00  0.00    +0.000 N 
ATOM     23  N   UNL     1       0.533   9.227  19.109  0.00  0.00    +0.000 NA
ATOM     24  N   UNL     1      -0.241   9.889  19.831  0.00  0.00    +0.000 NA
ATOM     25  C   UNL     1      -0.040  11.261  19.998  0.00  0.00    +0.000 A 
ATOM     26  C   UNL     1      -0.878  11.960  20.879  0.00  0.00    +0.000 A 
ATOM     27  C   UNL     1      -0.697  13.330  21.095  0.00  0.00    +0.000 A 
ATOM     28  C   UNL     1       0.314  14.024  20.419  0.00  0.00    +0.000 A 
ATOM     29  C   UNL     1       1.139  13.336  19.528  0.00  0.00    +0.000 A 
ATOM     30  C   UNL     1       0.960  11.965  19.340  0.00  0.00    +0.000 A 
ATOM     31  C   UNL     1       1.833  11.175  18.467  0.00  0.00    +0.000 A 
ATOM     32  O   UNL     1       2.757  11.703  17.861  0.00  0.00    +0.000 OA
ENDBRANCH  21  22
ENDBRANCH   2  21
TORSDOF 5
ENDMDL
