MODEL 1
REMARK VINA RESULT:      -8.4      0.000      0.000
REMARK  Name = 
REMARK  6 active torsions:
REMARK  status: ('A' for Active; 'I' for Inactive)
REMARK    1  A    between atoms: N_1  and  C_2
REMARK    2  A    between atoms: C_5  and  C_6
REMARK    3  A    between atoms: C_6  and  C_7
REMARK    4  A    between atoms: C_10  and  O_11
REMARK    5  A    between atoms: O_11  and  C_12
REMARK    6  A    between atoms: C_12  and  C_13
REMARK                            x       y       z     vdW  Elec       q    Type
REMARK                         _______ _______ _______ _____ _____    ______ ____
ROOT
ATOM      1  C   UNL     1       5.807   5.199  17.197  0.00  0.00    +0.000 A 
ATOM      2  C   UNL     1       6.771   4.817  18.139  0.00  0.00    +0.000 A 
ATOM      3  C   UNL     1       7.671   5.751  18.651  0.00  0.00    +0.000 A 
ATOM      4  C   UNL     1       7.637   7.074  18.212  0.00  0.00    +0.000 A 
ATOM      5  C   UNL     1       6.626   7.482  17.343  0.00  0.00    +0.000 A 
ATOM      6  C   UNL     1       5.714   6.550  16.837  0.00  0.00    +0.000 A 
ENDROOT
BRANCH   1   7
ATOM      7  C   UNL     1       4.931   4.156  16.552  0.00  0.00    +0.000 C 
BRANCH   7  11
ATOM      8  C   UNL     1       1.427   3.123  18.878  0.00  0.00    +0.000 A 
ATOM      9  C   UNL     1       2.371   2.154  18.542  0.00  0.00    +0.000 A 
ATOM     10  C   UNL     1       3.477   2.475  17.748  0.00  0.00    +0.000 A 
ATOM     11  C   UNL     1       3.685   3.792  17.320  0.00  0.00    +0.000 A 
ATOM     12  C   UNL     1       2.748   4.769  17.674  0.00  0.00    +0.000 A 
ATOM     13  C   UNL     1       1.645   4.440  18.468  0.00  0.00    +0.000 A 
BRANCH   8  14
ATOM     14  N   UNL     1       0.422   2.832  19.810  0.00  0.00    +0.000 N 
ATOM     15  H   UNL     1       0.777   2.599  20.732  0.00  0.00    +0.000 HD
ATOM     16  H   UNL     1      -0.264   2.163  19.478  0.00  0.00    +0.000 HD
ENDBRANCH   8  14
ENDBRANCH   7  11
ENDBRANCH   1   7
BRANCH   4  17
ATOM     17  O   UNL     1       8.554   8.032  18.563  0.00  0.00    +0.000 OA
BRANCH  17  18
ATOM     18  C   UNL     1       8.297   9.325  18.005  0.00  0.00    +0.000 C 
BRANCH  18  19
ATOM     19  C   UNL     1       9.203  10.351  18.638  0.00  0.00    +0.000 A 
ATOM     20  C   UNL     1      10.028  11.160  17.848  0.00  0.00    +0.000 A 
ATOM     21  C   UNL     1      10.849  12.120  18.440  0.00  0.00    +0.000 A 
ATOM     22  C   UNL     1      10.852  12.281  19.826  0.00  0.00    +0.000 A 
ATOM     23  C   UNL     1      10.031  11.484  20.621  0.00  0.00    +0.000 A 
ATOM     24  C   UNL     1       9.210  10.524  20.031  0.00  0.00    +0.000 A 
ENDBRANCH  18  19
ENDBRANCH  17  18
ENDBRANCH   4  17
TORSDOF 6
ENDMDL
MODEL 2
REMARK VINA RESULT:      -8.4      0.236      1.052
REMARK  Name = 
REMARK  6 active torsions:
REMARK  status: ('A' for Active; 'I' for Inactive)
REMARK    1  A    between atoms: N_1  and  C_2
REMARK    2  A    between atoms: C_5  and  C_6
REMARK    3  A    between atoms: C_6  and  C_7
REMARK    4  A    between atoms: C_10  and  O_11
REMARK    5  A    between atoms: O_11  and  C_12
REMARK    6  A    between atoms: C_12  and  C_13
REMARK                            x       y       z     vdW  Elec       q    Type
REMARK                         _______ _______ _______ _____ _____    ______ ____
ROOT
ATOM      1  C   UNL     1       5.967   5.244  17.265  0.00  0.00    +0.000 A 
ATOM      2  C   UNL     1       6.791   4.953  18.359  0.00  0.00    +0.000 A 
ATOM      3  C   UNL     1       7.670   5.912  18.859  0.00  0.00    +0.000 A 
ATOM      4  C   UNL     1       7.756   7.168  18.259  0.00  0.00    +0.000 A 
ATOM      5  C   UNL     1       6.877   7.496  17.227  0.00  0.00    +0.000 A 
ATOM      6  C   UNL     1       5.986   6.540  16.731  0.00  0.00    +0.000 A 
ENDROOT
BRANCH   1   7
ATOM      7  C   UNL     1       5.121   4.158  16.650  0.00  0.00    +0.000 C 
BRANCH   7  11
ATOM      8  C   UNL     1       1.523   3.029  18.780  0.00  0.00    +0.000 A 
ATOM      9  C   UNL     1       1.715   4.342  18.349  0.00  0.00    +0.000 A 
ATOM     10  C   UNL     1       2.899   4.719  17.705  0.00  0.00    +0.000 A 
ATOM     11  C   UNL     1       3.893   3.771  17.434  0.00  0.00    +0.000 A 
ATOM     12  C   UNL     1       3.692   2.449  17.850  0.00  0.00    +0.000 A 
ATOM     13  C   UNL     1       2.506   2.080  18.493  0.00  0.00    +0.000 A 
BRANCH   8  14
ATOM     14  N   UNL     1       0.273   2.625  19.266  0.00  0.00    +0.000 N 
ATOM     15  H   UNL     1       0.165   1.617  19.322  0.00  0.00    +0.000 HD
ATOM     16  H   UNL     1      -0.511   3.074  18.804  0.00  0.00    +0.000 HD
ENDBRANCH   8  14
ENDBRANCH   7  11
ENDBRANCH   1   7
BRANCH   4  17
ATOM     17  O   UNL     1       8.672   8.130  18.600  0.00  0.00    +0.000 OA
BRANCH  17  18
ATOM     18  C   UNL     1       8.367   9.436  18.102  0.00  0.00    +0.000 C 
BRANCH  18  19
ATOM     19  C   UNL     1       9.309  10.451  18.698  0.00  0.00    +0.000 A 
ATOM     20  C   UNL     1      10.125  11.238  17.876  0.00  0.00    +0.000 A 
ATOM     21  C   UNL     1      10.981  12.188  18.435  0.00  0.00    +0.000 A 
ATOM     22  C   UNL     1      11.028  12.361  19.818  0.00  0.00    +0.000 A 
ATOM     23  C   UNL     1      10.216  11.587  20.645  0.00  0.00    +0.000 A 
ATOM     24  C   UNL     1       9.361  10.637  20.088  0.00  0.00    +0.000 A 
ENDBRANCH  18  19
ENDBRANCH  17  18
ENDBRANCH   4  17
TORSDOF 6
ENDMDL
MODEL 3
REMARK VINA RESULT:      -8.3      0.592      1.816
REMARK  Name = 
REMARK  6 active torsions:
REMARK  status: ('A' for Active; 'I' for Inactive)
REMARK    1  A    between atoms: N_1  and  C_2
REMARK    2  A    between atoms: C_5  and  C_6
REMARK    3  A    between atoms: C_6  and  C_7
REMARK    4  A    between atoms: C_10  and  O_11
REMARK    5  A    between atoms: O_11  and  C_12
REMARK    6  A    between atoms: C_12  and  C_13
REMARK                            x       y       z     vdW  Elec       q    Type
REMARK                         _______ _______ _______ _____ _____    ______ ____
ROOT
ATOM      1  C   UNL     1       6.163   5.086  17.360  0.00  0.00    +0.000 A 
ATOM      2  C   UNL     1       6.258   6.266  16.612  0.00  0.00    +0.000 A 
ATOM      3  C   UNL     1       7.097   7.300  17.024  0.00  0.00    +0.000 A 
ATOM      4  C   UNL     1       7.835   7.180  18.203  0.00  0.00    +0.000 A 
ATOM      5  C   UNL     1       7.813   5.976  18.905  0.00  0.00    +0.000 A 
ATOM      6  C   UNL     1       6.982   4.932  18.487  0.00  0.00    +0.000 A 
ENDROOT
BRANCH   1   7
ATOM      7  C   UNL     1       5.153   4.033  16.978  0.00  0.00    +0.000 C 
BRANCH   7  11
ATOM      8  C   UNL     1       1.724   3.535  19.576  0.00  0.00    +0.000 A 
ATOM      9  C   UNL     1       1.707   4.472  18.542  0.00  0.00    +0.000 A 
ATOM     10  C   UNL     1       2.832   4.669  17.734  0.00  0.00    +0.000 A 
ATOM     11  C   UNL     1       3.981   3.890  17.915  0.00  0.00    +0.000 A 
ATOM     12  C   UNL     1       3.991   2.936  18.939  0.00  0.00    +0.000 A 
ATOM     13  C   UNL     1       2.863   2.744  19.743  0.00  0.00    +0.000 A 
BRANCH   8  14
ATOM     14  N   UNL     1       0.544   3.225  20.263  0.00  0.00    +0.000 N 
ATOM     15  H   UNL     1       0.042   4.041  20.600  0.00  0.00    +0.000 HD
ATOM     16  H   UNL     1       0.661   2.519  20.982  0.00  0.00    +0.000 HD
ENDBRANCH   8  14
ENDBRANCH   7  11
ENDBRANCH   1   7
BRANCH   4  17
ATOM     17  O   UNL     1       8.589   8.186  18.751  0.00  0.00    +0.000 OA
BRANCH  17  18
ATOM     18  C   UNL     1       8.374   9.471  18.160  0.00  0.00    +0.000 C 
BRANCH  18  19
ATOM     19  C   UNL     1       9.348  10.472  18.728  0.00  0.00    +0.000 A 
ATOM     20  C   UNL     1       9.382  10.736  20.102  0.00  0.00    +0.000 A 
ATOM     21  C   UNL     1      10.300  11.649  20.622  0.00  0.00    +0.000 A 
ATOM     22  C   UNL     1      11.192  12.306  19.773  0.00  0.00    +0.000 A 
ATOM     23  C   UNL     1      11.170  12.047  18.404  0.00  0.00    +0.000 A 
ATOM     24  C   UNL     1      10.253  11.134  17.884  0.00  0.00    +0.000 A 
ENDBRANCH  18  19
ENDBRANCH  17  18
ENDBRANCH   4  17
TORSDOF 6
ENDMDL
MODEL 4
REMARK VINA RESULT:      -8.3      0.391      1.101
REMARK  Name = 
REMARK  6 active torsions:
REMARK  status: ('A' for Active; 'I' for Inactive)
REMARK    1  A    between atoms: N_1  and  C_2
REMARK    2  A    between atoms: C_5  and  C_6
REMARK    3  A    between atoms: C_6  and  C_7
REMARK    4  A    between atoms: C_10  and  O_11
REMARK    5  A    between atoms: O_11  and  C_12
REMARK    6  A    between atoms: C_12  and  C_13
REMARK                            x       y       z     vdW  Elec       q    Type
REMARK                         _______ _______ _______ _____ _____    ______ ____
ROOT
ATOM      1  C   UNL     1       5.915   5.133  17.417  0.00  0.00    +0.000 A 
ATOM      2  C   UNL     1       6.833   4.820  18.427  0.00  0.00    +0.000 A 
ATOM      3  C   UNL     1       7.721   5.784  18.903  0.00  0.00    +0.000 A 
ATOM      4  C   UNL     1       7.721   7.069  18.359  0.00  0.00    +0.000 A 
ATOM      5  C   UNL     1       6.753   7.414  17.416  0.00  0.00    +0.000 A 
ATOM      6  C   UNL     1       5.854   6.452  16.946  0.00  0.00    +0.000 A 
ENDROOT
BRANCH   1   7
ATOM      7  C   UNL     1       5.055   4.049  16.819  0.00  0.00    +0.000 C 
BRANCH   7  11
ATOM      8  C   UNL     1       1.539   3.131  19.174  0.00  0.00    +0.000 A 
ATOM      9  C   UNL     1       2.752   2.489  19.422  0.00  0.00    +0.000 A 
ATOM     10  C   UNL     1       3.875   2.747  18.630  0.00  0.00    +0.000 A 
ATOM     11  C   UNL     1       3.817   3.698  17.604  0.00  0.00    +0.000 A 
ATOM     12  C   UNL     1       2.605   4.358  17.367  0.00  0.00    +0.000 A 
ATOM     13  C   UNL     1       1.486   4.094  18.164  0.00  0.00    +0.000 A 
BRANCH   8  14
ATOM     14  N   UNL     1       0.475   2.996  20.075  0.00  0.00    +0.000 N 
ATOM     15  H   UNL     1      -0.401   2.734  19.634  0.00  0.00    +0.000 HD
ATOM     16  H   UNL     1       0.370   3.782  20.707  0.00  0.00    +0.000 HD
ENDBRANCH   8  14
ENDBRANCH   7  11
ENDBRANCH   1   7
BRANCH   4  17
ATOM     17  O   UNL     1       8.633   8.043  18.673  0.00  0.00    +0.000 OA
BRANCH  17  18
ATOM     18  C   UNL     1       8.375   9.310  18.059  0.00  0.00    +0.000 C 
BRANCH  18  19
ATOM     19  C   UNL     1       9.246  10.373  18.679  0.00  0.00    +0.000 A 
ATOM     20  C   UNL     1       9.330  10.508  20.070  0.00  0.00    +0.000 A 
ATOM     21  C   UNL     1      10.154  11.481  20.636  0.00  0.00    +0.000 A 
ATOM     22  C   UNL     1      10.902  12.328  19.817  0.00  0.00    +0.000 A 
ATOM     23  C   UNL     1      10.830  12.199  18.431  0.00  0.00    +0.000 A 
ATOM     24  C   UNL     1      10.007  11.227  17.865  0.00  0.00    +0.000 A 
ENDBRANCH  18  19
ENDBRANCH  17  18
ENDBRANCH   4  17
TORSDOF 6
ENDMDL
MODEL 5
REMARK VINA RESULT:      -8.2      0.590      1.199
REMARK  Name = 
REMARK  6 active torsions:
REMARK  status: ('A' for Active; 'I' for Inactive)
REMARK    1  A    between atoms: N_1  and  C_2
REMARK    2  A    between atoms: C_5  and  C_6
REMARK    3  A    between atoms: C_6  and  C_7
REMARK    4  A    between atoms: C_10  and  O_11
REMARK    5  A    between atoms: O_11  and  C_12
REMARK    6  A    between atoms: C_12  and  C_13
REMARK                            x       y       z     vdW  Elec       q    Type
REMARK                         _______ _______ _______ _____ _____    ______ ____
ROOT
ATOM      1  C   UNL     1       5.949   5.099  17.151  0.00  0.00    +0.000 A 
ATOM      2  C   UNL     1       5.853   6.391  16.618  0.00  0.00    +0.000 A 
ATOM      3  C   UNL     1       6.713   7.401  17.049  0.00  0.00    +0.000 A 
ATOM      4  C   UNL     1       7.665   7.141  18.035  0.00  0.00    +0.000 A 
ATOM      5  C   UNL     1       7.826   5.838  18.506  0.00  0.00    +0.000 A 
ATOM      6  C   UNL     1       6.973   4.821  18.067  0.00  0.00    +0.000 A 
ENDROOT
BRANCH   1   7
ATOM      7  C   UNL     1       4.929   4.054  16.777  0.00  0.00    +0.000 C 
BRANCH   7  11
ATOM      8  C   UNL     1       1.461   3.819  19.360  0.00  0.00    +0.000 A 
ATOM      9  C   UNL     1       1.617   2.935  18.292  0.00  0.00    +0.000 A 
ATOM     10  C   UNL     1       2.711   3.042  17.427  0.00  0.00    +0.000 A 
ATOM     11  C   UNL     1       3.700   4.007  17.649  0.00  0.00    +0.000 A 
ATOM     12  C   UNL     1       3.554   4.882  18.733  0.00  0.00    +0.000 A 
ATOM     13  C   UNL     1       2.458   4.769  19.593  0.00  0.00    +0.000 A 
BRANCH   8  14
ATOM     14  N   UNL     1       0.461   3.598  20.316  0.00  0.00    +0.000 N 
ATOM     15  H   UNL     1       0.810   3.561  21.269  0.00  0.00    +0.000 HD
ATOM     16  H   UNL     1      -0.150   2.819  20.097  0.00  0.00    +0.000 HD
ENDBRANCH   8  14
ENDBRANCH   7  11
ENDBRANCH   1   7
BRANCH   4  17
ATOM     17  O   UNL     1       8.468   8.094  18.608  0.00  0.00    +0.000 OA
BRANCH  17  18
ATOM     18  C   UNL     1       8.347   9.394  18.022  0.00  0.00    +0.000 C 
BRANCH  18  19
ATOM     19  C   UNL     1       9.304  10.352  18.685  0.00  0.00    +0.000 A 
ATOM     20  C   UNL     1      10.229  11.079  17.925  0.00  0.00    +0.000 A 
ATOM     21  C   UNL     1      11.098  11.978  18.544  0.00  0.00    +0.000 A 
ATOM     22  C   UNL     1      11.050  12.159  19.927  0.00  0.00    +0.000 A 
ATOM     23  C   UNL     1      10.130  11.444  20.691  0.00  0.00    +0.000 A 
ATOM     24  C   UNL     1       9.261  10.546  20.074  0.00  0.00    +0.000 A 
ENDBRANCH  18  19
ENDBRANCH  17  18
ENDBRANCH   4  17
TORSDOF 6
ENDMDL
MODEL 6
REMARK VINA RESULT:      -8.2      0.434      1.462
REMARK  Name = 
REMARK  6 active torsions:
REMARK  status: ('A' for Active; 'I' for Inactive)
REMARK    1  A    between atoms: N_1  and  C_2
REMARK    2  A    between atoms: C_5  and  C_6
REMARK    3  A    between atoms: C_6  and  C_7
REMARK    4  A    between atoms: C_10  and  O_11
REMARK    5  A    between atoms: O_11  and  C_12
REMARK    6  A    between atoms: C_12  and  C_13
REMARK                            x       y       z     vdW  Elec       q    Type
REMARK                         _______ _______ _______ _____ _____    ______ ____
ROOT
ATOM      1  C   UNL     1       6.007   5.253  17.455  0.00  0.00    +0.000 A 
ATOM      2  C   UNL     1       6.903   4.978  18.495  0.00  0.00    +0.000 A 
ATOM      3  C   UNL     1       7.809   5.947  18.925  0.00  0.00    +0.000 A 
ATOM      4  C   UNL     1       7.848   7.196  18.307  0.00  0.00    +0.000 A 
ATOM      5  C   UNL     1       6.901   7.509  17.332  0.00  0.00    +0.000 A 
ATOM      6  C   UNL     1       5.984   6.543  16.907  0.00  0.00    +0.000 A 
ENDROOT
BRANCH   1   7
ATOM      7  C   UNL     1       5.128   4.157  16.910  0.00  0.00    +0.000 C 
BRANCH   7  11
ATOM      8  C   UNL     1       1.579   3.143  19.176  0.00  0.00    +0.000 A 
ATOM      9  C   UNL     1       1.551   4.162  18.224  0.00  0.00    +0.000 A 
ATOM     10  C   UNL     1       2.709   4.524  17.527  0.00  0.00    +0.000 A 
ATOM     11  C   UNL     1       3.908   3.833  17.735  0.00  0.00    +0.000 A 
ATOM     12  C   UNL     1       3.932   2.797  18.677  0.00  0.00    +0.000 A 
ATOM     13  C   UNL     1       2.771   2.441  19.370  0.00  0.00    +0.000 A 
BRANCH   8  14
ATOM     14  N   UNL     1       0.386   2.675  19.740  0.00  0.00    +0.000 N 
ATOM     15  H   UNL     1       0.503   1.843  20.310  0.00  0.00    +0.000 HD
ATOM     16  H   UNL     1      -0.375   2.585  19.075  0.00  0.00    +0.000 HD
ENDBRANCH   8  14
ENDBRANCH   7  11
ENDBRANCH   1   7
BRANCH   4  17
ATOM     17  O   UNL     1       8.780   8.166  18.576  0.00  0.00    +0.000 OA
BRANCH  17  18
ATOM     18  C   UNL     1       8.388   9.485  18.183  0.00  0.00    +0.000 C 
BRANCH  18  19
ATOM     19  C   UNL     1       9.346  10.501  18.751  0.00  0.00    +0.000 A 
ATOM     20  C   UNL     1       9.367  10.775  20.124  0.00  0.00    +0.000 A 
ATOM     21  C   UNL     1      10.269  11.703  20.644  0.00  0.00    +0.000 A 
ATOM     22  C   UNL     1      11.159  12.365  19.797  0.00  0.00    +0.000 A 
ATOM     23  C   UNL     1      11.150  12.096  18.430  0.00  0.00    +0.000 A 
ATOM     24  C   UNL     1      10.249  11.169  17.909  0.00  0.00    +0.000 A 
ENDBRANCH  18  19
ENDBRANCH  17  18
ENDBRANCH   4  17
TORSDOF 6
ENDMDL
MODEL 7
REMARK VINA RESULT:      -8.0      0.862      1.612
REMARK  Name = 
REMARK  6 active torsions:
REMARK  status: ('A' for Active; 'I' for Inactive)
REMARK    1  A    between atoms: N_1  and  C_2
REMARK    2  A    between atoms: C_5  and  C_6
REMARK    3  A    between atoms: C_6  and  C_7
REMARK    4  A    between atoms: C_10  and  O_11
REMARK    5  A    between atoms: O_11  and  C_12
REMARK    6  A    between atoms: C_12  and  C_13
REMARK                            x       y       z     vdW  Elec       q    Type
REMARK                         _______ _______ _______ _____ _____    ______ ____
ROOT
ATOM      1  C   UNL     1       5.837   4.830  17.062  0.00  0.00    +0.000 A 
ATOM      2  C   UNL     1       5.492   6.131  16.678  0.00  0.00    +0.000 A 
ATOM      3  C   UNL     1       6.279   7.217  17.061  0.00  0.00    +0.000 A 
ATOM      4  C   UNL     1       7.409   7.020  17.854  0.00  0.00    +0.000 A 
ATOM      5  C   UNL     1       7.809   5.721  18.167  0.00  0.00    +0.000 A 
ATOM      6  C   UNL     1       7.028   4.630  17.773  0.00  0.00    +0.000 A 
ENDROOT
BRANCH   1   7
ATOM      7  C   UNL     1       4.907   3.683  16.757  0.00  0.00    +0.000 C 
BRANCH   7  11
ATOM      8  C   UNL     1       1.685   3.254  19.619  0.00  0.00    +0.000 A 
ATOM      9  C   UNL     1       3.004   2.979  19.982  0.00  0.00    +0.000 A 
ATOM     10  C   UNL     1       4.039   3.069  19.045  0.00  0.00    +0.000 A 
ATOM     11  C   UNL     1       3.777   3.488  17.736  0.00  0.00    +0.000 A 
ATOM     12  C   UNL     1       2.456   3.783  17.376  0.00  0.00    +0.000 A 
ATOM     13  C   UNL     1       1.426   3.691  18.318  0.00  0.00    +0.000 A 
BRANCH   8  14
ATOM     14  N   UNL     1       0.687   3.328  20.599  0.00  0.00    +0.000 N 
ATOM     15  H   UNL     1       0.267   2.432  20.821  0.00  0.00    +0.000 HD
ATOM     16  H   UNL     1      -0.006   4.048  20.425  0.00  0.00    +0.000 HD
ENDBRANCH   8  14
ENDBRANCH   7  11
ENDBRANCH   1   7
BRANCH   4  17
ATOM     17  O   UNL     1       8.173   8.030  18.380  0.00  0.00    +0.000 OA
BRANCH  17  18
ATOM     18  C   UNL     1       8.144   9.244  17.623  0.00  0.00    +0.000 C 
BRANCH  18  19
ATOM     19  C   UNL     1       8.784  10.360  18.409  0.00  0.00    +0.000 A 
ATOM     20  C   UNL     1       9.323  10.122  19.680  0.00  0.00    +0.000 A 
ATOM     21  C   UNL     1       9.931  11.156  20.392  0.00  0.00    +0.000 A 
ATOM     22  C   UNL     1      10.006  12.436  19.842  0.00  0.00    +0.000 A 
ATOM     23  C   UNL     1       9.477  12.683  18.577  0.00  0.00    +0.000 A 
ATOM     24  C   UNL     1       8.870  11.651  17.864  0.00  0.00    +0.000 A 
ENDBRANCH  18  19
ENDBRANCH  17  18
ENDBRANCH   4  17
TORSDOF 6
ENDMDL
MODEL 8
REMARK VINA RESULT:      -7.8      4.405      6.907
REMARK  Name = 
REMARK  6 active torsions:
REMARK  status: ('A' for Active; 'I' for Inactive)
REMARK    1  A    between atoms: N_1  and  C_2
REMARK    2  A    between atoms: C_5  and  C_6
REMARK    3  A    between atoms: C_6  and  C_7
REMARK    4  A    between atoms: C_10  and  O_11
REMARK    5  A    between atoms: O_11  and  C_12
REMARK    6  A    between atoms: C_12  and  C_13
REMARK                            x       y       z     vdW  Elec       q    Type
REMARK                         _______ _______ _______ _____ _____    ______ ____
ROOT
ATOM      1  C   UNL     1       3.968   5.385  17.188  0.00  0.00    +0.000 A 
ATOM      2  C   UNL     1       4.326   4.062  16.904  0.00  0.00    +0.000 A 
ATOM      3  C   UNL     1       5.479   3.780  16.173  0.00  0.00    +0.000 A 
ATOM      4  C   UNL     1       6.279   4.818  15.694  0.00  0.00    +0.000 A 
ATOM      5  C   UNL     1       5.979   6.133  16.047  0.00  0.00    +0.000 A 
ATOM      6  C   UNL     1       4.829   6.417  16.790  0.00  0.00    +0.000 A 
ENDROOT
BRANCH   1   7
ATOM      7  C   UNL     1       2.651   5.681  17.860  0.00  0.00    +0.000 C 
BRANCH   7  11
ATOM      8  C   UNL     1       1.496   3.132  21.164  0.00  0.00    +0.000 A 
ATOM      9  C   UNL     1       2.422   4.159  21.345  0.00  0.00    +0.000 A 
ATOM     10  C   UNL     1       2.833   4.951  20.268  0.00  0.00    +0.000 A 
ATOM     11  C   UNL     1       2.282   4.761  18.996  0.00  0.00    +0.000 A 
ATOM     12  C   UNL     1       1.338   3.742  18.818  0.00  0.00    +0.000 A 
ATOM     13  C   UNL     1       0.931   2.955  19.900  0.00  0.00    +0.000 A 
BRANCH   8  14
ATOM     14  N   UNL     1       0.964   2.462  22.274  0.00  0.00    +0.000 N 
ATOM     15  H   UNL     1       1.082   2.963  23.148  0.00  0.00    +0.000 HD
ATOM     16  H   UNL     1       1.250   1.491  22.343  0.00  0.00    +0.000 HD
ENDBRANCH   8  14
ENDBRANCH   7  11
ENDBRANCH   1   7
BRANCH   4  17
ATOM     17  O   UNL     1       7.359   4.646  14.867  0.00  0.00    +0.000 OA
BRANCH  17  18
ATOM     18  C   UNL     1       7.147   5.090  13.523  0.00  0.00    +0.000 C 
BRANCH  18  19
ATOM     19  C   UNL     1       6.564   3.974  12.694  0.00  0.00    +0.000 A 
ATOM     20  C   UNL     1       5.180   3.869  12.509  0.00  0.00    +0.000 A 
ATOM     21  C   UNL     1       4.650   2.844  11.725  0.00  0.00    +0.000 A 
ATOM     22  C   UNL     1       5.498   1.917  11.118  0.00  0.00    +0.000 A 
ATOM     23  C   UNL     1       6.877   2.015  11.291  0.00  0.00    +0.000 A 
ATOM     24  C   UNL     1       7.408   3.039  12.075  0.00  0.00    +0.000 A 
ENDBRANCH  18  19
ENDBRANCH  17  18
ENDBRANCH   4  17
TORSDOF 6
ENDMDL
MODEL 9
REMARK VINA RESULT:      -7.8      5.475      8.461
REMARK  Name = 
REMARK  6 active torsions:
REMARK  status: ('A' for Active; 'I' for Inactive)
REMARK    1  A    between atoms: N_1  and  C_2
REMARK    2  A    between atoms: C_5  and  C_6
REMARK    3  A    between atoms: C_6  and  C_7
REMARK    4  A    between atoms: C_10  and  O_11
REMARK    5  A    between atoms: O_11  and  C_12
REMARK    6  A    between atoms: C_12  and  C_13
REMARK                            x       y       z     vdW  Elec       q    Type
REMARK                         _______ _______ _______ _____ _____    ______ ____
ROOT
ATOM      1  C   UNL     1       2.486   6.890  19.287  0.00  0.00    +0.000 A 
ATOM      2  C   UNL     1       2.620   7.513  18.040  0.00  0.00    +0.000 A 
ATOM      3  C   UNL     1       2.044   8.761  17.804  0.00  0.00    +0.000 A 
ATOM      4  C   UNL     1       1.306   9.394  18.805  0.00  0.00    +0.000 A 
ATOM      5  C   UNL     1       1.243   8.823  20.075  0.00  0.00    +0.000 A 
ATOM      6  C   UNL     1       1.829   7.578  20.317  0.00  0.00    +0.000 A 
ENDROOT
BRANCH   1   7
ATOM      7  C   UNL     1       2.996   5.486  19.486  0.00  0.00    +0.000 C 
BRANCH   7  11
ATOM      8  C   UNL     1       6.577   4.605  17.215  0.00  0.00    +0.000 A 
ATOM      9  C   UNL     1       5.315   4.299  16.705  0.00  0.00    +0.000 A 
ATOM     10  C   UNL     1       4.161   4.537  17.458  0.00  0.00    +0.000 A 
ATOM     11  C   UNL     1       4.247   5.137  18.720  0.00  0.00    +0.000 A 
ATOM     12  C   UNL     1       5.513   5.462  19.224  0.00  0.00    +0.000 A 
ATOM     13  C   UNL     1       6.662   5.222  18.465  0.00  0.00    +0.000 A 
BRANCH   8  14
ATOM     14  N   UNL     1       7.707   4.525  16.391  0.00  0.00    +0.000 N 
ATOM     15  H   UNL     1       8.386   3.835  16.697  0.00  0.00    +0.000 HD
ATOM     16  H   UNL     1       8.132   5.423  16.188  0.00  0.00    +0.000 HD
ENDBRANCH   8  14
ENDBRANCH   7  11
ENDBRANCH   1   7
BRANCH   4  17
ATOM     17  O   UNL     1       0.604  10.559  18.630  0.00  0.00    +0.000 OA
BRANCH  17  18
ATOM     18  C   UNL     1      -0.661  10.589  19.300  0.00  0.00    +0.000 C 
BRANCH  18  19
ATOM     19  C   UNL     1      -1.780  10.646  18.292  0.00  0.00    +0.000 A 
ATOM     20  C   UNL     1      -2.884  11.484  18.495  0.00  0.00    +0.000 A 
ATOM     21  C   UNL     1      -3.906  11.546  17.548  0.00  0.00    +0.000 A 
ATOM     22  C   UNL     1      -3.835  10.772  16.390  0.00  0.00    +0.000 A 
ATOM     23  C   UNL     1      -2.739   9.939  16.175  0.00  0.00    +0.000 A 
ATOM     24  C   UNL     1      -1.717   9.876  17.120  0.00  0.00    +0.000 A 
ENDBRANCH  18  19
ENDBRANCH  17  18
ENDBRANCH   4  17
TORSDOF 6
ENDMDL
