MODEL 1
REMARK VINA RESULT:      -7.6      0.000      0.000
REMARK  Name = 
REMARK  9 active torsions:
REMARK  status: ('A' for Active; 'I' for Inactive)
REMARK    1  A    between atoms: C_1  and  C_2
REMARK    2  A    between atoms: C_2  and  C_4
REMARK    3  A    between atoms: C_8  and  N_9
REMARK    4  A    between atoms: C_10  and  S_11
REMARK    5  A    between atoms: N_12  and  C_13
REMARK    6  A    between atoms: C_13  and  C_14
REMARK    7  A    between atoms: C_14  and  C_15
REMARK    8  A    between atoms: C_15  and  C_16
REMARK    9  A    between atoms: C_16  and  C_17
REMARK                            x       y       z     vdW  Elec       q    Type
REMARK                         _______ _______ _______ _____ _____    ______ ____
ROOT
ATOM      1  N   UNL     1       6.217   4.154  16.129  0.00  0.00    +0.000 N 
ATOM      2  C   UNL     1       5.755   5.080  17.030  0.00  0.00    +0.000 C 
ATOM      3  N   UNL     1       5.466   6.304  16.784  0.00  0.00    +0.000 NA
ATOM      4  H   UNL     1       6.345   3.223  16.498  0.00  0.00    +0.000 HD
ENDROOT
BRANCH   1   9
ATOM      5  C   UNL     1       6.000   3.532  12.473  0.00  0.00    +0.000 A 
ATOM      6  C   UNL     1       7.069   4.287  11.983  0.00  0.00    +0.000 A 
ATOM      7  C   UNL     1       7.831   5.049  12.864  0.00  0.00    +0.000 A 
ATOM      8  C   UNL     1       7.548   5.032  14.232  0.00  0.00    +0.000 A 
ATOM      9  C   UNL     1       6.483   4.291  14.754  0.00  0.00    +0.000 A 
ATOM     10  C   UNL     1       5.693   3.569  13.845  0.00  0.00    +0.000 A 
BRANCH   5  12
ATOM     11  C   UNL     1       3.900   3.130  11.027  0.00  0.00    +0.000 C 
ATOM     12  C   UNL     1       5.206   2.631  11.590  0.00  0.00    +0.000 C 
ATOM     13  O   UNL     1       5.639   1.515  11.309  0.00  0.00    +0.000 OA
ENDBRANCH   5  12
ENDBRANCH   1   9
BRANCH   2  14
ATOM     14  S   UNL     1       5.620   4.377  18.644  0.00  0.00    +0.000 S 
ATOM     15  H   UNL     1       4.523   5.059  19.003  0.00  0.00    +0.000 HD
ENDBRANCH   2  14
BRANCH   3  16
ATOM     16  C   UNL     1       4.934   7.203  17.798  0.00  0.00    +0.000 C 
BRANCH  16  17
ATOM     17  C   UNL     1       3.461   7.485  17.485  0.00  0.00    +0.000 C 
BRANCH  17  18
ATOM     18  C   UNL     1       2.521   6.814  18.493  0.00  0.00    +0.000 C 
BRANCH  18  19
ATOM     19  C   UNL     1       1.965   5.489  17.967  0.00  0.00    +0.000 C 
BRANCH  19  20
ATOM     20  C   UNL     1       1.875   4.458  19.066  0.00  0.00    +0.000 A 
ATOM     21  C   UNL     1       1.534   3.130  18.776  0.00  0.00    +0.000 A 
ATOM     22  C   UNL     1       1.425   2.187  19.800  0.00  0.00    +0.000 A 
ATOM     23  C   UNL     1       1.650   2.565  21.123  0.00  0.00    +0.000 A 
ATOM     24  C   UNL     1       1.983   3.883  21.422  0.00  0.00    +0.000 A 
ATOM     25  C   UNL     1       2.094   4.828  20.401  0.00  0.00    +0.000 A 
ENDBRANCH  19  20
ENDBRANCH  18  19
ENDBRANCH  17  18
ENDBRANCH  16  17
ENDBRANCH   3  16
TORSDOF 8
ENDMDL
MODEL 2
REMARK VINA RESULT:      -7.6      4.428      7.638
REMARK  Name = 
REMARK  9 active torsions:
REMARK  status: ('A' for Active; 'I' for Inactive)
REMARK    1  A    between atoms: C_1  and  C_2
REMARK    2  A    between atoms: C_2  and  C_4
REMARK    3  A    between atoms: C_8  and  N_9
REMARK    4  A    between atoms: C_10  and  S_11
REMARK    5  A    between atoms: N_12  and  C_13
REMARK    6  A    between atoms: C_13  and  C_14
REMARK    7  A    between atoms: C_14  and  C_15
REMARK    8  A    between atoms: C_15  and  C_16
REMARK    9  A    between atoms: C_16  and  C_17
REMARK                            x       y       z     vdW  Elec       q    Type
REMARK                         _______ _______ _______ _____ _____    ______ ____
ROOT
ATOM      1  N   UNL     1       2.335   5.832  20.613  0.00  0.00    +0.000 N 
ATOM      2  C   UNL     1       1.886   4.562  20.351  0.00  0.00    +0.000 C 
ATOM      3  N   UNL     1       1.259   4.178  19.301  0.00  0.00    +0.000 NA
ATOM      4  H   UNL     1       2.851   5.936  21.475  0.00  0.00    +0.000 HD
ENDROOT
BRANCH   1   9
ATOM      5  C   UNL     1       1.233   9.221  19.561  0.00  0.00    +0.000 A 
ATOM      6  C   UNL     1       1.757   9.311  18.269  0.00  0.00    +0.000 A 
ATOM      7  C   UNL     1       2.526   8.265  17.766  0.00  0.00    +0.000 A 
ATOM      8  C   UNL     1       2.744   7.120  18.537  0.00  0.00    +0.000 A 
ATOM      9  C   UNL     1       2.237   7.000  19.835  0.00  0.00    +0.000 A 
ATOM     10  C   UNL     1       1.507   8.086  20.345  0.00  0.00    +0.000 A 
BRANCH   5  12
ATOM     11  C   UNL     1      -0.927  10.620  19.364  0.00  0.00    +0.000 C 
ATOM     12  C   UNL     1       0.331  10.269  20.117  0.00  0.00    +0.000 C 
ATOM     13  O   UNL     1       0.606  10.805  21.189  0.00  0.00    +0.000 OA
ENDBRANCH   5  12
ENDBRANCH   1   9
BRANCH   2  14
ATOM     14  S   UNL     1       2.259   3.472  21.689  0.00  0.00    +0.000 S 
ATOM     15  H   UNL     1       1.381   4.004  22.551  0.00  0.00    +0.000 HD
ENDBRANCH   2  14
BRANCH   3  16
ATOM     16  C   UNL     1       0.862   2.793  19.089  0.00  0.00    +0.000 C 
BRANCH  16  17
ATOM     17  C   UNL     1       1.888   2.121  18.170  0.00  0.00    +0.000 C 
BRANCH  17  18
ATOM     18  C   UNL     1       2.638   3.140  17.304  0.00  0.00    +0.000 C 
BRANCH  18  19
ATOM     19  C   UNL     1       4.153   2.932  17.356  0.00  0.00    +0.000 C 
BRANCH  19  20
ATOM     20  C   UNL     1       4.887   4.252  17.362  0.00  0.00    +0.000 A 
ATOM     21  C   UNL     1       4.883   5.079  16.231  0.00  0.00    +0.000 A 
ATOM     22  C   UNL     1       5.587   6.285  16.234  0.00  0.00    +0.000 A 
ATOM     23  C   UNL     1       6.305   6.672  17.365  0.00  0.00    +0.000 A 
ATOM     24  C   UNL     1       6.319   5.854  18.492  0.00  0.00    +0.000 A 
ATOM     25  C   UNL     1       5.616   4.648  18.493  0.00  0.00    +0.000 A 
ENDBRANCH  19  20
ENDBRANCH  18  19
ENDBRANCH  17  18
ENDBRANCH  16  17
ENDBRANCH   3  16
TORSDOF 8
ENDMDL
MODEL 3
REMARK VINA RESULT:      -7.5      2.249      3.884
REMARK  Name = 
REMARK  9 active torsions:
REMARK  status: ('A' for Active; 'I' for Inactive)
REMARK    1  A    between atoms: C_1  and  C_2
REMARK    2  A    between atoms: C_2  and  C_4
REMARK    3  A    between atoms: C_8  and  N_9
REMARK    4  A    between atoms: C_10  and  S_11
REMARK    5  A    between atoms: N_12  and  C_13
REMARK    6  A    between atoms: C_13  and  C_14
REMARK    7  A    between atoms: C_14  and  C_15
REMARK    8  A    between atoms: C_15  and  C_16
REMARK    9  A    between atoms: C_16  and  C_17
REMARK                            x       y       z     vdW  Elec       q    Type
REMARK                         _______ _______ _______ _____ _____    ______ ____
ROOT
ATOM      1  N   UNL     1       4.162   7.287  17.340  0.00  0.00    +0.000 N 
ATOM      2  C   UNL     1       3.185   7.233  18.302  0.00  0.00    +0.000 C 
ATOM      3  N   UNL     1       3.087   6.365  19.239  0.00  0.00    +0.000 NA
ATOM      4  H   UNL     1       4.102   8.073  16.710  0.00  0.00    +0.000 HD
ENDROOT
BRANCH   1   9
ATOM      5  C   UNL     1       6.634   5.178  15.537  0.00  0.00    +0.000 A 
ATOM      6  C   UNL     1       7.323   4.570  16.589  0.00  0.00    +0.000 A 
ATOM      7  C   UNL     1       7.002   4.903  17.902  0.00  0.00    +0.000 A 
ATOM      8  C   UNL     1       5.977   5.815  18.165  0.00  0.00    +0.000 A 
ATOM      9  C   UNL     1       5.270   6.444  17.135  0.00  0.00    +0.000 A 
ATOM     10  C   UNL     1       5.641   6.135  15.816  0.00  0.00    +0.000 A 
BRANCH   5  12
ATOM     11  C   UNL     1       6.026   3.710  13.503  0.00  0.00    +0.000 C 
ATOM     12  C   UNL     1       6.874   4.796  14.116  0.00  0.00    +0.000 C 
ATOM     13  O   UNL     1       7.729   5.388  13.461  0.00  0.00    +0.000 OA
ENDBRANCH   5  12
ENDBRANCH   1   9
BRANCH   2  14
ATOM     14  S   UNL     1       2.011   8.534  18.082  0.00  0.00    +0.000 S 
ATOM     15  H   UNL     1       1.010   7.748  17.661  0.00  0.00    +0.000 HD
ENDBRANCH   2  14
BRANCH   3  16
ATOM     16  C   UNL     1       2.038   6.416  20.248  0.00  0.00    +0.000 C 
BRANCH  16  17
ATOM     17  C   UNL     1       1.951   5.051  20.939  0.00  0.00    +0.000 C 
BRANCH  17  18
ATOM     18  C   UNL     1       0.662   4.305  20.575  0.00  0.00    +0.000 C 
BRANCH  18  19
ATOM     19  C   UNL     1       0.944   2.904  20.028  0.00  0.00    +0.000 C 
BRANCH  19  20
ATOM     20  C   UNL     1       2.045   2.930  18.996  0.00  0.00    +0.000 A 
ATOM     21  C   UNL     1       1.838   3.519  17.742  0.00  0.00    +0.000 A 
ATOM     22  C   UNL     1       2.851   3.515  16.781  0.00  0.00    +0.000 A 
ATOM     23  C   UNL     1       4.078   2.918  17.064  0.00  0.00    +0.000 A 
ATOM     24  C   UNL     1       4.292   2.324  18.305  0.00  0.00    +0.000 A 
ATOM     25  C   UNL     1       3.282   2.327  19.268  0.00  0.00    +0.000 A 
ENDBRANCH  19  20
ENDBRANCH  18  19
ENDBRANCH  17  18
ENDBRANCH  16  17
ENDBRANCH   3  16
TORSDOF 8
ENDMDL
MODEL 4
REMARK VINA RESULT:      -7.5      0.741      1.390
REMARK  Name = 
REMARK  9 active torsions:
REMARK  status: ('A' for Active; 'I' for Inactive)
REMARK    1  A    between atoms: C_1  and  C_2
REMARK    2  A    between atoms: C_2  and  C_4
REMARK    3  A    between atoms: C_8  and  N_9
REMARK    4  A    between atoms: C_10  and  S_11
REMARK    5  A    between atoms: N_12  and  C_13
REMARK    6  A    between atoms: C_13  and  C_14
REMARK    7  A    between atoms: C_14  and  C_15
REMARK    8  A    between atoms: C_15  and  C_16
REMARK    9  A    between atoms: C_16  and  C_17
REMARK                            x       y       z     vdW  Elec       q    Type
REMARK                         _______ _______ _______ _____ _____    ______ ____
ROOT
ATOM      1  N   UNL     1       6.300   4.181  16.080  0.00  0.00    +0.000 N 
ATOM      2  C   UNL     1       5.761   5.073  16.973  0.00  0.00    +0.000 C 
ATOM      3  N   UNL     1       5.361   6.262  16.714  0.00  0.00    +0.000 NA
ATOM      4  H   UNL     1       6.513   3.270  16.459  0.00  0.00    +0.000 HD
ENDROOT
BRANCH   1   9
ATOM      5  C   UNL     1       6.104   3.508  12.432  0.00  0.00    +0.000 A 
ATOM      6  C   UNL     1       7.108   4.337  11.926  0.00  0.00    +0.000 A 
ATOM      7  C   UNL     1       7.816   5.164  12.794  0.00  0.00    +0.000 A 
ATOM      8  C   UNL     1       7.545   5.139  14.164  0.00  0.00    +0.000 A 
ATOM      9  C   UNL     1       6.544   4.324  14.702  0.00  0.00    +0.000 A 
ATOM     10  C   UNL     1       5.805   3.535  13.805  0.00  0.00    +0.000 A 
BRANCH   5  12
ATOM     11  C   UNL     1       6.054   1.246  11.189  0.00  0.00    +0.000 C 
ATOM     12  C   UNL     1       5.376   2.539  11.564  0.00  0.00    +0.000 C 
ATOM     13  O   UNL     1       4.230   2.791  11.196  0.00  0.00    +0.000 OA
ENDBRANCH   5  12
ENDBRANCH   1   9
BRANCH   2  14
ATOM     14  S   UNL     1       5.699   4.380  18.596  0.00  0.00    +0.000 S 
ATOM     15  H   UNL     1       7.020   4.432  18.820  0.00  0.00    +0.000 HD
ENDBRANCH   2  14
BRANCH   3  16
ATOM     16  C   UNL     1       4.756   7.123  17.721  0.00  0.00    +0.000 C 
BRANCH  16  17
ATOM     17  C   UNL     1       3.411   7.632  17.192  0.00  0.00    +0.000 C 
BRANCH  17  18
ATOM     18  C   UNL     1       2.281   7.433  18.207  0.00  0.00    +0.000 C 
BRANCH  18  19
ATOM     19  C   UNL     1       2.737   6.620  19.421  0.00  0.00    +0.000 C 
BRANCH  19  20
ATOM     20  C   UNL     1       2.081   5.260  19.446  0.00  0.00    +0.000 A 
ATOM     21  C   UNL     1       1.681   4.680  20.658  0.00  0.00    +0.000 A 
ATOM     22  C   UNL     1       1.101   3.410  20.677  0.00  0.00    +0.000 A 
ATOM     23  C   UNL     1       0.921   2.706  19.487  0.00  0.00    +0.000 A 
ATOM     24  C   UNL     1       1.321   3.271  18.279  0.00  0.00    +0.000 A 
ATOM     25  C   UNL     1       1.900   4.541  18.255  0.00  0.00    +0.000 A 
ENDBRANCH  19  20
ENDBRANCH  18  19
ENDBRANCH  17  18
ENDBRANCH  16  17
ENDBRANCH   3  16
TORSDOF 8
ENDMDL
MODEL 5
REMARK VINA RESULT:      -7.5      4.312      7.674
REMARK  Name = 
REMARK  9 active torsions:
REMARK  status: ('A' for Active; 'I' for Inactive)
REMARK    1  A    between atoms: C_1  and  C_2
REMARK    2  A    between atoms: C_2  and  C_4
REMARK    3  A    between atoms: C_8  and  N_9
REMARK    4  A    between atoms: C_10  and  S_11
REMARK    5  A    between atoms: N_12  and  C_13
REMARK    6  A    between atoms: C_13  and  C_14
REMARK    7  A    between atoms: C_14  and  C_15
REMARK    8  A    between atoms: C_15  and  C_16
REMARK    9  A    between atoms: C_16  and  C_17
REMARK                            x       y       z     vdW  Elec       q    Type
REMARK                         _______ _______ _______ _____ _____    ______ ____
ROOT
ATOM      1  N   UNL     1       2.289   5.892  20.545  0.00  0.00    +0.000 N 
ATOM      2  C   UNL     1       2.033   4.588  20.203  0.00  0.00    +0.000 C 
ATOM      3  N   UNL     1       1.676   4.160  19.050  0.00  0.00    +0.000 NA
ATOM      4  H   UNL     1       2.606   6.034  21.493  0.00  0.00    +0.000 HD
ENDROOT
BRANCH   1   9
ATOM      5  C   UNL     1       1.235   9.270  19.411  0.00  0.00    +0.000 A 
ATOM      6  C   UNL     1       1.839   9.359  18.155  0.00  0.00    +0.000 A 
ATOM      7  C   UNL     1       2.644   8.316  17.705  0.00  0.00    +0.000 A 
ATOM      8  C   UNL     1       2.820   7.176  18.493  0.00  0.00    +0.000 A 
ATOM      9  C   UNL     1       2.233   7.057  19.757  0.00  0.00    +0.000 A 
ATOM     10  C   UNL     1       1.465   8.140  20.216  0.00  0.00    +0.000 A 
BRANCH   5  12
ATOM     11  C   UNL     1       0.394  10.763  21.341  0.00  0.00    +0.000 C 
ATOM     12  C   UNL     1       0.293  10.315  19.906  0.00  0.00    +0.000 C 
ATOM     13  O   UNL     1      -0.523  10.815  19.135  0.00  0.00    +0.000 OA
ENDBRANCH   5  12
ENDBRANCH   1   9
BRANCH   2  14
ATOM     14  S   UNL     1       2.236   3.520  21.595  0.00  0.00    +0.000 S 
ATOM     15  H   UNL     1       3.555   3.338  21.440  0.00  0.00    +0.000 HD
ENDBRANCH   2  14
BRANCH   3  16
ATOM     16  C   UNL     1       1.472   2.746  18.767  0.00  0.00    +0.000 C 
BRANCH  16  17
ATOM     17  C   UNL     1       2.380   2.340  17.601  0.00  0.00    +0.000 C 
BRANCH  17  18
ATOM     18  C   UNL     1       3.829   2.789  17.818  0.00  0.00    +0.000 C 
BRANCH  18  19
ATOM     19  C   UNL     1       4.254   3.863  16.813  0.00  0.00    +0.000 C 
BRANCH  19  20
ATOM     20  C   UNL     1       5.380   4.708  17.358  0.00  0.00    +0.000 A 
ATOM     21  C   UNL     1       5.690   4.694  18.724  0.00  0.00    +0.000 A 
ATOM     22  C   UNL     1       6.714   5.499  19.226  0.00  0.00    +0.000 A 
ATOM     23  C   UNL     1       7.433   6.330  18.368  0.00  0.00    +0.000 A 
ATOM     24  C   UNL     1       7.129   6.356  17.010  0.00  0.00    +0.000 A 
ATOM     25  C   UNL     1       6.106   5.551  16.504  0.00  0.00    +0.000 A 
ENDBRANCH  19  20
ENDBRANCH  18  19
ENDBRANCH  17  18
ENDBRANCH  16  17
ENDBRANCH   3  16
TORSDOF 8
ENDMDL
MODEL 6
REMARK VINA RESULT:      -7.4      4.438      7.062
REMARK  Name = 
REMARK  9 active torsions:
REMARK  status: ('A' for Active; 'I' for Inactive)
REMARK    1  A    between atoms: C_1  and  C_2
REMARK    2  A    between atoms: C_2  and  C_4
REMARK    3  A    between atoms: C_8  and  N_9
REMARK    4  A    between atoms: C_10  and  S_11
REMARK    5  A    between atoms: N_12  and  C_13
REMARK    6  A    between atoms: C_13  and  C_14
REMARK    7  A    between atoms: C_14  and  C_15
REMARK    8  A    between atoms: C_15  and  C_16
REMARK    9  A    between atoms: C_16  and  C_17
REMARK                            x       y       z     vdW  Elec       q    Type
REMARK                         _______ _______ _______ _____ _____    ______ ____
ROOT
ATOM      1  N   UNL     1       6.124   4.597  15.983  0.00  0.00    +0.000 N 
ATOM      2  C   UNL     1       6.590   5.409  16.986  0.00  0.00    +0.000 C 
ATOM      3  N   UNL     1       7.444   6.357  16.864  0.00  0.00    +0.000 NA
ATOM      4  H   UNL     1       5.415   3.934  16.262  0.00  0.00    +0.000 HD
ENDROOT
BRANCH   1   9
ATOM      5  C   UNL     1       6.009   3.623  12.400  0.00  0.00    +0.000 A 
ATOM      6  C   UNL     1       7.122   4.287  11.880  0.00  0.00    +0.000 A 
ATOM      7  C   UNL     1       7.883   5.106  12.710  0.00  0.00    +0.000 A 
ATOM      8  C   UNL     1       7.552   5.235  14.062  0.00  0.00    +0.000 A 
ATOM      9  C   UNL     1       6.442   4.587  14.613  0.00  0.00    +0.000 A 
ATOM     10  C   UNL     1       5.657   3.807  13.749  0.00  0.00    +0.000 A 
BRANCH   5  12
ATOM     11  C   UNL     1       3.876   3.110  11.040  0.00  0.00    +0.000 C 
ATOM     12  C   UNL     1       5.212   2.667  11.580  0.00  0.00    +0.000 C 
ATOM     13  O   UNL     1       5.665   1.551  11.331  0.00  0.00    +0.000 OA
ENDBRANCH   5  12
ENDBRANCH   1   9
BRANCH   2  14
ATOM     14  S   UNL     1       5.870   4.971  18.538  0.00  0.00    +0.000 S 
ATOM     15  H   UNL     1       4.609   5.272  18.197  0.00  0.00    +0.000 HD
ENDBRANCH   2  14
BRANCH   3  16
ATOM     16  C   UNL     1       7.844   7.201  17.981  0.00  0.00    +0.000 C 
BRANCH  16  17
ATOM     17  C   UNL     1       7.386   8.636  17.704  0.00  0.00    +0.000 C 
BRANCH  17  18
ATOM     18  C   UNL     1       8.560   9.621  17.686  0.00  0.00    +0.000 C 
BRANCH  18  19
ATOM     19  C   UNL     1       9.099   9.897  19.091  0.00  0.00    +0.000 C 
BRANCH  19  20
ATOM     20  C   UNL     1      10.069  11.054  19.089  0.00  0.00    +0.000 A 
ATOM     21  C   UNL     1      10.412  11.704  20.282  0.00  0.00    +0.000 A 
ATOM     22  C   UNL     1      11.288  12.791  20.269  0.00  0.00    +0.000 A 
ATOM     23  C   UNL     1      11.824  13.242  19.063  0.00  0.00    +0.000 A 
ATOM     24  C   UNL     1      11.483  12.607  17.872  0.00  0.00    +0.000 A 
ATOM     25  C   UNL     1      10.609  11.519  17.880  0.00  0.00    +0.000 A 
ENDBRANCH  19  20
ENDBRANCH  18  19
ENDBRANCH  17  18
ENDBRANCH  16  17
ENDBRANCH   3  16
TORSDOF 8
ENDMDL
MODEL 7
REMARK VINA RESULT:      -7.3      1.100      1.403
REMARK  Name = 
REMARK  9 active torsions:
REMARK  status: ('A' for Active; 'I' for Inactive)
REMARK    1  A    between atoms: C_1  and  C_2
REMARK    2  A    between atoms: C_2  and  C_4
REMARK    3  A    between atoms: C_8  and  N_9
REMARK    4  A    between atoms: C_10  and  S_11
REMARK    5  A    between atoms: N_12  and  C_13
REMARK    6  A    between atoms: C_13  and  C_14
REMARK    7  A    between atoms: C_14  and  C_15
REMARK    8  A    between atoms: C_15  and  C_16
REMARK    9  A    between atoms: C_16  and  C_17
REMARK                            x       y       z     vdW  Elec       q    Type
REMARK                         _______ _______ _______ _____ _____    ______ ____
ROOT
ATOM      1  N   UNL     1       7.269   4.655  15.739  0.00  0.00    +0.000 N 
ATOM      2  C   UNL     1       6.661   5.452  16.676  0.00  0.00    +0.000 C 
ATOM      3  N   UNL     1       5.874   6.436  16.445  0.00  0.00    +0.000 NA
ATOM      4  H   UNL     1       7.819   3.896  16.112  0.00  0.00    +0.000 HD
ENDROOT
BRANCH   1   9
ATOM      5  C   UNL     1       6.324   3.680  12.280  0.00  0.00    +0.000 A 
ATOM      6  C   UNL     1       7.129   4.521  11.508  0.00  0.00    +0.000 A 
ATOM      7  C   UNL     1       7.949   5.454  12.138  0.00  0.00    +0.000 A 
ATOM      8  C   UNL     1       7.989   5.525  13.533  0.00  0.00    +0.000 A 
ATOM      9  C   UNL     1       7.192   4.701  14.335  0.00  0.00    +0.000 A 
ATOM     10  C   UNL     1       6.334   3.801  13.681  0.00  0.00    +0.000 A 
BRANCH   5  12
ATOM     11  C   UNL     1       6.143   1.284  11.339  0.00  0.00    +0.000 C 
ATOM     12  C   UNL     1       5.495   2.606  11.665  0.00  0.00    +0.000 C 
ATOM     13  O   UNL     1       4.297   2.799  11.463  0.00  0.00    +0.000 OA
ENDBRANCH   5  12
ENDBRANCH   1   9
BRANCH   2  14
ATOM     14  S   UNL     1       7.122   4.966  18.310  0.00  0.00    +0.000 S 
ATOM     15  H   UNL     1       8.071   5.900  18.471  0.00  0.00    +0.000 HD
ENDBRANCH   2  14
BRANCH   3  16
ATOM     16  C   UNL     1       5.236   7.197  17.510  0.00  0.00    +0.000 C 
BRANCH  16  17
ATOM     17  C   UNL     1       3.722   7.208  17.269  0.00  0.00    +0.000 C 
BRANCH  17  18
ATOM     18  C   UNL     1       2.935   6.901  18.548  0.00  0.00    +0.000 C 
BRANCH  18  19
ATOM     19  C   UNL     1       3.531   5.722  19.320  0.00  0.00    +0.000 C 
BRANCH  19  20
ATOM     20  C   UNL     1       2.704   4.472  19.135  0.00  0.00    +0.000 A 
ATOM     21  C   UNL     1       3.029   3.538  18.143  0.00  0.00    +0.000 A 
ATOM     22  C   UNL     1       2.244   2.398  17.959  0.00  0.00    +0.000 A 
ATOM     23  C   UNL     1       1.124   2.185  18.761  0.00  0.00    +0.000 A 
ATOM     24  C   UNL     1       0.788   3.111  19.745  0.00  0.00    +0.000 A 
ATOM     25  C   UNL     1       1.571   4.251  19.933  0.00  0.00    +0.000 A 
ENDBRANCH  19  20
ENDBRANCH  18  19
ENDBRANCH  17  18
ENDBRANCH  16  17
ENDBRANCH   3  16
TORSDOF 8
ENDMDL
MODEL 8
REMARK VINA RESULT:      -7.3      5.023      8.871
REMARK  Name = 
REMARK  9 active torsions:
REMARK  status: ('A' for Active; 'I' for Inactive)
REMARK    1  A    between atoms: C_1  and  C_2
REMARK    2  A    between atoms: C_2  and  C_4
REMARK    3  A    between atoms: C_8  and  N_9
REMARK    4  A    between atoms: C_10  and  S_11
REMARK    5  A    between atoms: N_12  and  C_13
REMARK    6  A    between atoms: C_13  and  C_14
REMARK    7  A    between atoms: C_14  and  C_15
REMARK    8  A    between atoms: C_15  and  C_16
REMARK    9  A    between atoms: C_16  and  C_17
REMARK                            x       y       z     vdW  Elec       q    Type
REMARK                         _______ _______ _______ _____ _____    ______ ____
ROOT
ATOM      1  N   UNL     1       4.998   4.818  17.271  0.00  0.00    +0.000 N 
ATOM      2  C   UNL     1       6.092   5.589  16.971  0.00  0.00    +0.000 C 
ATOM      3  N   UNL     1       6.454   6.663  17.569  0.00  0.00    +0.000 NA
ATOM      4  H   UNL     1       4.899   3.979  16.718  0.00  0.00    +0.000 HD
ENDROOT
BRANCH   1   9
ATOM      5  C   UNL     1       2.365   3.935  19.739  0.00  0.00    +0.000 A 
ATOM      6  C   UNL     1       1.886   5.191  20.119  0.00  0.00    +0.000 A 
ATOM      7  C   UNL     1       2.476   6.337  19.594  0.00  0.00    +0.000 A 
ATOM      8  C   UNL     1       3.519   6.230  18.670  0.00  0.00    +0.000 A 
ATOM      9  C   UNL     1       4.025   4.988  18.273  0.00  0.00    +0.000 A 
ATOM     10  C   UNL     1       3.452   3.844  18.851  0.00  0.00    +0.000 A 
BRANCH   5  12
ATOM     11  C   UNL     1       1.483   2.475  21.676  0.00  0.00    +0.000 C 
ATOM     12  C   UNL     1       1.716   2.675  20.200  0.00  0.00    +0.000 C 
ATOM     13  O   UNL     1       1.352   1.838  19.376  0.00  0.00    +0.000 OA
ENDBRANCH   5  12
ENDBRANCH   1   9
BRANCH   2  14
ATOM     14  S   UNL     1       6.973   4.925  15.591  0.00  0.00    +0.000 S 
ATOM     15  H   UNL     1       7.880   5.909  15.518  0.00  0.00    +0.000 HD
ENDBRANCH   2  14
BRANCH   3  16
ATOM     16  C   UNL     1       7.663   7.391  17.209  0.00  0.00    +0.000 C 
BRANCH  16  17
ATOM     17  C   UNL     1       8.216   8.079  18.462  0.00  0.00    +0.000 C 
BRANCH  17  18
ATOM     18  C   UNL     1       8.556   9.551  18.207  0.00  0.00    +0.000 C 
BRANCH  18  19
ATOM     19  C   UNL     1       9.285  10.186  19.392  0.00  0.00    +0.000 C 
BRANCH  19  20
ATOM     20  C   UNL     1      10.253  11.250  18.934  0.00  0.00    +0.000 A 
ATOM     21  C   UNL     1      10.040  11.945  17.737  0.00  0.00    +0.000 A 
ATOM     22  C   UNL     1      10.954  12.909  17.304  0.00  0.00    +0.000 A 
ATOM     23  C   UNL     1      12.092  13.181  18.062  0.00  0.00    +0.000 A 
ATOM     24  C   UNL     1      12.316  12.491  19.250  0.00  0.00    +0.000 A 
ATOM     25  C   UNL     1      11.404  11.528  19.686  0.00  0.00    +0.000 A 
ENDBRANCH  19  20
ENDBRANCH  18  19
ENDBRANCH  17  18
ENDBRANCH  16  17
ENDBRANCH   3  16
TORSDOF 8
ENDMDL
MODEL 9
REMARK VINA RESULT:      -7.2      5.071      8.935
REMARK  Name = 
REMARK  9 active torsions:
REMARK  status: ('A' for Active; 'I' for Inactive)
REMARK    1  A    between atoms: C_1  and  C_2
REMARK    2  A    between atoms: C_2  and  C_4
REMARK    3  A    between atoms: C_8  and  N_9
REMARK    4  A    between atoms: C_10  and  S_11
REMARK    5  A    between atoms: N_12  and  C_13
REMARK    6  A    between atoms: C_13  and  C_14
REMARK    7  A    between atoms: C_14  and  C_15
REMARK    8  A    between atoms: C_15  and  C_16
REMARK    9  A    between atoms: C_16  and  C_17
REMARK                            x       y       z     vdW  Elec       q    Type
REMARK                         _______ _______ _______ _____ _____    ______ ____
ROOT
ATOM      1  N   UNL     1       4.027   5.126  17.381  0.00  0.00    +0.000 N 
ATOM      2  C   UNL     1       5.338   5.502  17.227  0.00  0.00    +0.000 C 
ATOM      3  N   UNL     1       6.076   6.070  18.107  0.00  0.00    +0.000 NA
ATOM      4  H   UNL     1       3.621   4.648  16.590  0.00  0.00    +0.000 HD
ENDROOT
BRANCH   1   9
ATOM      5  C   UNL     1       1.951   6.756  19.997  0.00  0.00    +0.000 A 
ATOM      6  C   UNL     1       1.670   5.690  20.854  0.00  0.00    +0.000 A 
ATOM      7  C   UNL     1       2.125   4.414  20.534  0.00  0.00    +0.000 A 
ATOM      8  C   UNL     1       2.885   4.208  19.380  0.00  0.00    +0.000 A 
ATOM      9  C   UNL     1       3.181   5.253  18.498  0.00  0.00    +0.000 A 
ATOM     10  C   UNL     1       2.670   6.524  18.810  0.00  0.00    +0.000 A 
BRANCH   5  12
ATOM     11  C   UNL     1       1.343   9.138  19.210  0.00  0.00    +0.000 C 
ATOM     12  C   UNL     1       1.566   8.156  20.332  0.00  0.00    +0.000 C 
ATOM     13  O   UNL     1       1.403   8.480  21.507  0.00  0.00    +0.000 OA
ENDBRANCH   5  12
ENDBRANCH   1   9
BRANCH   2  14
ATOM     14  S   UNL     1       5.914   5.125  15.600  0.00  0.00    +0.000 S 
ATOM     15  H   UNL     1       6.605   6.261  15.430  0.00  0.00    +0.000 HD
ENDBRANCH   2  14
BRANCH   3  16
ATOM     16  C   UNL     1       7.476   6.390  17.866  0.00  0.00    +0.000 C 
BRANCH  16  17
ATOM     17  C   UNL     1       7.577   7.847  17.403  0.00  0.00    +0.000 C 
BRANCH  17  18
ATOM     18  C   UNL     1       8.409   8.700  18.367  0.00  0.00    +0.000 C 
BRANCH  18  19
ATOM     19  C   UNL     1       8.488  10.161  17.919  0.00  0.00    +0.000 C 
BRANCH  19  20
ATOM     20  C   UNL     1       9.619  10.885  18.608  0.00  0.00    +0.000 A 
ATOM     21  C   UNL     1      10.734  11.327  17.883  0.00  0.00    +0.000 A 
ATOM     22  C   UNL     1      11.790  11.971  18.531  0.00  0.00    +0.000 A 
ATOM     23  C   UNL     1      11.743  12.175  19.910  0.00  0.00    +0.000 A 
ATOM     24  C   UNL     1      10.642  11.734  20.640  0.00  0.00    +0.000 A 
ATOM     25  C   UNL     1       9.584  11.090  19.995  0.00  0.00    +0.000 A 
ENDBRANCH  19  20
ENDBRANCH  18  19
ENDBRANCH  17  18
ENDBRANCH  16  17
ENDBRANCH   3  16
TORSDOF 8
ENDMDL
