MODEL 1
REMARK VINA RESULT:      -7.3      0.000      0.000
REMARK  Name = 
REMARK  7 active torsions:
REMARK  status: ('A' for Active; 'I' for Inactive)
REMARK    1  A    between atoms: C_1  and  O_2
REMARK    2  A    between atoms: O_2  and  C_3
REMARK    3  A    between atoms: C_3  and  C_5
REMARK    4  A    between atoms: C_8  and  C_9
REMARK    5  A    between atoms: C_10  and  C_11
REMARK    6  A    between atoms: C_17  and  C_18
REMARK    7  A    between atoms: C_19  and  C_20
REMARK                            x       y       z     vdW  Elec       q    Type
REMARK                         _______ _______ _______ _____ _____    ______ ____
ROOT
ATOM      1  C   UNL     1       0.714  10.366  20.028  0.00  0.00    +0.000 A 
ATOM      2  C   UNL     1      -0.040  11.072  19.081  0.00  0.00    +0.000 A 
ATOM      3  N   UNL     1      -0.336  12.382  19.361  0.00  0.00    +0.000 N 
ATOM      4  O   UNL     1      -0.359  13.233  18.423  0.00  0.00    +0.000 OA
ATOM      5  C   UNL     1      -0.778  12.664  20.643  0.00  0.00    +0.000 A 
ATOM      6  C   UNL     1      -1.585  13.787  20.886  0.00  0.00    +0.000 A 
ATOM      7  C   UNL     1      -2.421  13.818  22.003  0.00  0.00    +0.000 A 
ATOM      8  C   UNL     1      -3.384  14.968  22.141  0.00  0.00    +0.000 C 
ATOM      9  C   UNL     1      -2.412  12.718  22.880  0.00  0.00    +0.000 A 
ATOM     10  C   UNL     1      -3.574  12.453  23.809  0.00  0.00    +0.000 C 
ATOM     11  C   UNL     1      -1.383  11.753  22.775  0.00  0.00    +0.000 A 
ATOM     12  C   UNL     1      -0.545  11.704  21.634  0.00  0.00    +0.000 A 
ATOM     13  N   UNL     1       0.433  10.684  21.365  0.00  0.00    +0.000 N 
ATOM     14  O   UNL     1       0.954  10.068  22.346  0.00  0.00    +0.000 OA
ENDROOT
BRANCH   1  18
ATOM     15  C   UNL     1       2.508   6.702  18.496  0.00  0.00    +0.000 A 
ATOM     16  C   UNL     1       2.436   7.849  17.702  0.00  0.00    +0.000 A 
ATOM     17  C   UNL     1       1.947   9.054  18.243  0.00  0.00    +0.000 A 
ATOM     18  C   UNL     1       1.465   9.155  19.574  0.00  0.00    +0.000 A 
ATOM     19  C   UNL     1       1.628   8.009  20.362  0.00  0.00    +0.000 A 
ATOM     20  C   UNL     1       2.133   6.809  19.842  0.00  0.00    +0.000 A 
BRANCH  15  21
ATOM     21  C   UNL     1       2.953   5.403  17.912  0.00  0.00    +0.000 C 
ATOM     22  O   UNL     1       4.118   5.094  17.732  0.00  0.00    +0.000 OA
BRANCH  21  24
ATOM     23  C   UNL     1       1.763   3.394  18.290  0.00  0.00    +0.000 C 
ATOM     24  O   UNL     1       1.867   4.647  17.610  0.00  0.00    +0.000 OA
ENDBRANCH  21  24
ENDBRANCH  15  21
ENDBRANCH   1  18
BRANCH   2  25
ATOM     25  C   UNL     1      -1.249  10.347  18.698  0.00  0.00    +0.000 C 
ATOM     26  N   UNL     1      -2.245   9.945  18.263  0.00  0.00    +0.000 NA
ENDBRANCH   2  25
TORSDOF 4
ENDMDL
MODEL 2
REMARK VINA RESULT:      -7.2      0.876      1.558
REMARK  Name = 
REMARK  7 active torsions:
REMARK  status: ('A' for Active; 'I' for Inactive)
REMARK    1  A    between atoms: C_1  and  O_2
REMARK    2  A    between atoms: O_2  and  C_3
REMARK    3  A    between atoms: C_3  and  C_5
REMARK    4  A    between atoms: C_8  and  C_9
REMARK    5  A    between atoms: C_10  and  C_11
REMARK    6  A    between atoms: C_17  and  C_18
REMARK    7  A    between atoms: C_19  and  C_20
REMARK                            x       y       z     vdW  Elec       q    Type
REMARK                         _______ _______ _______ _____ _____    ______ ____
ROOT
ATOM      1  C   UNL     1       0.827  10.239  19.963  0.00  0.00    +0.000 A 
ATOM      2  C   UNL     1       0.146  11.080  19.074  0.00  0.00    +0.000 A 
ATOM      3  N   UNL     1      -0.043  12.384  19.459  0.00  0.00    +0.000 N 
ATOM      4  O   UNL     1       0.015  13.307  18.594  0.00  0.00    +0.000 OA
ATOM      5  C   UNL     1      -0.475  12.596  20.758  0.00  0.00    +0.000 A 
ATOM      6  C   UNL     1      -1.188  13.760  21.088  0.00  0.00    +0.000 A 
ATOM      7  C   UNL     1      -2.032  13.771  22.200  0.00  0.00    +0.000 A 
ATOM      8  C   UNL     1      -2.897  14.981  22.428  0.00  0.00    +0.000 C 
ATOM      9  C   UNL     1      -2.124  12.606  22.984  0.00  0.00    +0.000 A 
ATOM     10  C   UNL     1      -3.315  12.364  23.883  0.00  0.00    +0.000 C 
ATOM     11  C   UNL     1      -1.178  11.569  22.805  0.00  0.00    +0.000 A 
ATOM     12  C   UNL     1      -0.334  11.543  21.668  0.00  0.00    +0.000 A 
ATOM     13  N   UNL     1       0.558  10.469  21.320  0.00  0.00    +0.000 N 
ATOM     14  O   UNL     1       1.015   9.734  22.250  0.00  0.00    +0.000 OA
ENDROOT
BRANCH   1  18
ATOM     15  C   UNL     1       3.101   6.772  18.620  0.00  0.00    +0.000 A 
ATOM     16  C   UNL     1       2.398   6.743  19.826  0.00  0.00    +0.000 A 
ATOM     17  C   UNL     1       1.586   7.832  20.199  0.00  0.00    +0.000 A 
ATOM     18  C   UNL     1       1.480   9.010  19.415  0.00  0.00    +0.000 A 
ATOM     19  C   UNL     1       2.132   8.970  18.177  0.00  0.00    +0.000 A 
ATOM     20  C   UNL     1       2.927   7.884  17.784  0.00  0.00    +0.000 A 
BRANCH  15  21
ATOM     21  C   UNL     1       4.023   5.658  18.252  0.00  0.00    +0.000 C 
ATOM     22  O   UNL     1       4.079   5.150  17.146  0.00  0.00    +0.000 OA
BRANCH  21  24
ATOM     23  C   UNL     1       6.180   5.374  19.180  0.00  0.00    +0.000 C 
ATOM     24  O   UNL     1       4.761   5.305  19.336  0.00  0.00    +0.000 OA
ENDBRANCH  21  24
ENDBRANCH  15  21
ENDBRANCH   1  18
BRANCH   2  25
ATOM     25  C   UNL     1      -1.116  10.493  18.627  0.00  0.00    +0.000 C 
ATOM     26  N   UNL     1      -2.004   9.980  18.088  0.00  0.00    +0.000 NA
ENDBRANCH   2  25
TORSDOF 4
ENDMDL
MODEL 3
REMARK VINA RESULT:      -7.2      0.542      1.030
REMARK  Name = 
REMARK  7 active torsions:
REMARK  status: ('A' for Active; 'I' for Inactive)
REMARK    1  A    between atoms: C_1  and  O_2
REMARK    2  A    between atoms: O_2  and  C_3
REMARK    3  A    between atoms: C_3  and  C_5
REMARK    4  A    between atoms: C_8  and  C_9
REMARK    5  A    between atoms: C_10  and  C_11
REMARK    6  A    between atoms: C_17  and  C_18
REMARK    7  A    between atoms: C_19  and  C_20
REMARK                            x       y       z     vdW  Elec       q    Type
REMARK                         _______ _______ _______ _____ _____    ______ ____
ROOT
ATOM      1  C   UNL     1       0.712  10.430  20.019  0.00  0.00    +0.000 A 
ATOM      2  C   UNL     1      -0.064  11.114  19.075  0.00  0.00    +0.000 A 
ATOM      3  N   UNL     1      -0.395  12.416  19.356  0.00  0.00    +0.000 N 
ATOM      4  O   UNL     1      -0.446  13.265  18.418  0.00  0.00    +0.000 OA
ATOM      5  C   UNL     1      -0.840  12.685  20.639  0.00  0.00    +0.000 A 
ATOM      6  C   UNL     1      -1.677  13.786  20.885  0.00  0.00    +0.000 A 
ATOM      7  C   UNL     1      -2.510  13.795  22.005  0.00  0.00    +0.000 A 
ATOM      8  C   UNL     1      -3.503  14.917  22.147  0.00  0.00    +0.000 C 
ATOM      9  C   UNL     1      -2.467  12.695  22.883  0.00  0.00    +0.000 A 
ATOM     10  C   UNL     1      -3.618  12.399  23.816  0.00  0.00    +0.000 C 
ATOM     11  C   UNL     1      -1.412  11.759  22.774  0.00  0.00    +0.000 A 
ATOM     12  C   UNL     1      -0.577  11.733  21.630  0.00  0.00    +0.000 A 
ATOM     13  N   UNL     1       0.427  10.739  21.357  0.00  0.00    +0.000 N 
ATOM     14  O   UNL     1       0.968  10.138  22.337  0.00  0.00    +0.000 OA
ENDROOT
BRANCH   1  18
ATOM     15  C   UNL     1       2.609   6.830  18.458  0.00  0.00    +0.000 A 
ATOM     16  C   UNL     1       2.563   8.001  17.698  0.00  0.00    +0.000 A 
ATOM     17  C   UNL     1       2.038   9.184  18.253  0.00  0.00    +0.000 A 
ATOM     18  C   UNL     1       1.494   9.239  19.563  0.00  0.00    +0.000 A 
ATOM     19  C   UNL     1       1.632   8.070  20.321  0.00  0.00    +0.000 A 
ATOM     20  C   UNL     1       2.171   6.891  19.788  0.00  0.00    +0.000 A 
BRANCH  15  21
ATOM     21  C   UNL     1       3.092   5.553  17.854  0.00  0.00    +0.000 C 
ATOM     22  O   UNL     1       2.403   4.559  17.709  0.00  0.00    +0.000 OA
BRANCH  21  24
ATOM     23  C   UNL     1       5.349   5.324  18.524  0.00  0.00    +0.000 C 
ATOM     24  O   UNL     1       4.401   5.679  17.516  0.00  0.00    +0.000 OA
ENDBRANCH  21  24
ENDBRANCH  15  21
ENDBRANCH   1  18
BRANCH   2  25
ATOM     25  C   UNL     1      -1.255  10.355  18.697  0.00  0.00    +0.000 C 
ATOM     26  N   UNL     1      -2.258   9.939  18.292  0.00  0.00    +0.000 NA
ENDBRANCH   2  25
TORSDOF 4
ENDMDL
MODEL 4
REMARK VINA RESULT:      -7.2      1.095      1.331
REMARK  Name = 
REMARK  7 active torsions:
REMARK  status: ('A' for Active; 'I' for Inactive)
REMARK    1  A    between atoms: C_1  and  O_2
REMARK    2  A    between atoms: O_2  and  C_3
REMARK    3  A    between atoms: C_3  and  C_5
REMARK    4  A    between atoms: C_8  and  C_9
REMARK    5  A    between atoms: C_10  and  C_11
REMARK    6  A    between atoms: C_17  and  C_18
REMARK    7  A    between atoms: C_19  and  C_20
REMARK                            x       y       z     vdW  Elec       q    Type
REMARK                         _______ _______ _______ _____ _____    ______ ____
ROOT
ATOM      1  C   UNL     1       1.163   9.556  20.388  0.00  0.00    +0.000 A 
ATOM      2  C   UNL     1       0.808  10.537  19.454  0.00  0.00    +0.000 A 
ATOM      3  N   UNL     1       0.766  11.838  19.891  0.00  0.00    +0.000 N 
ATOM      4  O   UNL     1       1.136  12.770  19.118  0.00  0.00    +0.000 OA
ATOM      5  C   UNL     1       0.138  12.070  21.103  0.00  0.00    +0.000 A 
ATOM      6  C   UNL     1      -0.425  13.326  21.382  0.00  0.00    +0.000 A 
ATOM      7  C   UNL     1      -1.450  13.439  22.323  0.00  0.00    +0.000 A 
ATOM      8  C   UNL     1      -2.132  14.772  22.479  0.00  0.00    +0.000 C 
ATOM      9  C   UNL     1      -1.878  12.278  22.994  0.00  0.00    +0.000 A 
ATOM     10  C   UNL     1      -3.240  12.212  23.645  0.00  0.00    +0.000 C 
ATOM     11  C   UNL     1      -1.097  11.100  22.913  0.00  0.00    +0.000 A 
ATOM     12  C   UNL     1      -0.069  10.973  21.947  0.00  0.00    +0.000 A 
ATOM     13  N   UNL     1       0.684   9.776  21.688  0.00  0.00    +0.000 N 
ATOM     14  O   UNL     1       0.831   8.936  22.630  0.00  0.00    +0.000 OA
ENDROOT
BRANCH   1  18
ATOM     15  C   UNL     1       2.327   5.730  18.658  0.00  0.00    +0.000 A 
ATOM     16  C   UNL     1       2.552   6.923  17.970  0.00  0.00    +0.000 A 
ATOM     17  C   UNL     1       2.265   8.159  18.582  0.00  0.00    +0.000 A 
ATOM     18  C   UNL     1       1.697   8.255  19.880  0.00  0.00    +0.000 A 
ATOM     19  C   UNL     1       1.562   7.044  20.569  0.00  0.00    +0.000 A 
ATOM     20  C   UNL     1       1.864   5.809  19.978  0.00  0.00    +0.000 A 
BRANCH  15  21
ATOM     21  C   UNL     1       2.556   4.415  17.990  0.00  0.00    +0.000 C 
ATOM     22  O   UNL     1       1.667   3.691  17.576  0.00  0.00    +0.000 OA
BRANCH  21  24
ATOM     23  C   UNL     1       4.437   3.438  19.039  0.00  0.00    +0.000 C 
ATOM     24  O   UNL     1       3.889   4.161  17.935  0.00  0.00    +0.000 OA
ENDBRANCH  21  24
ENDBRANCH  15  21
ENDBRANCH   1  18
BRANCH   2  25
ATOM     25  C   UNL     1      -0.425  10.196  18.748  0.00  0.00    +0.000 C 
ATOM     26  N   UNL     1      -1.452  10.140  18.213  0.00  0.00    +0.000 NA
ENDBRANCH   2  25
TORSDOF 4
ENDMDL
MODEL 5
REMARK VINA RESULT:      -7.1      0.872      1.300
REMARK  Name = 
REMARK  7 active torsions:
REMARK  status: ('A' for Active; 'I' for Inactive)
REMARK    1  A    between atoms: C_1  and  O_2
REMARK    2  A    between atoms: O_2  and  C_3
REMARK    3  A    between atoms: C_3  and  C_5
REMARK    4  A    between atoms: C_8  and  C_9
REMARK    5  A    between atoms: C_10  and  C_11
REMARK    6  A    between atoms: C_17  and  C_18
REMARK    7  A    between atoms: C_19  and  C_20
REMARK                            x       y       z     vdW  Elec       q    Type
REMARK                         _______ _______ _______ _____ _____    ______ ____
ROOT
ATOM      1  C   UNL     1       0.926   9.796  20.279  0.00  0.00    +0.000 A 
ATOM      2  C   UNL     1       0.453  10.750  19.369  0.00  0.00    +0.000 A 
ATOM      3  N   UNL     1       0.371  12.049  19.803  0.00  0.00    +0.000 N 
ATOM      4  O   UNL     1       0.635  12.995  19.003  0.00  0.00    +0.000 OA
ATOM      5  C   UNL     1      -0.182  12.256  21.056  0.00  0.00    +0.000 A 
ATOM      6  C   UNL     1      -0.792  13.482  21.370  0.00  0.00    +0.000 A 
ATOM      7  C   UNL     1      -1.752  13.546  22.380  0.00  0.00    +0.000 A 
ATOM      8  C   UNL     1      -2.494  14.841  22.579  0.00  0.00    +0.000 C 
ATOM      9  C   UNL     1      -2.068  12.368  23.083  0.00  0.00    +0.000 A 
ATOM     10  C   UNL     1      -3.376  12.233  23.829  0.00  0.00    +0.000 C 
ATOM     11  C   UNL     1      -1.233  11.234  22.951  0.00  0.00    +0.000 A 
ATOM     12  C   UNL     1      -0.270  11.156  21.915  0.00  0.00    +0.000 A 
ATOM     13  N   UNL     1       0.528   9.999  21.608  0.00  0.00    +0.000 N 
ATOM     14  O   UNL     1       0.786   9.175  22.541  0.00  0.00    +0.000 OA
ENDROOT
BRANCH   1  18
ATOM     15  C   UNL     1       2.959   6.177  18.954  0.00  0.00    +0.000 A 
ATOM     16  C   UNL     1       2.263   6.204  20.164  0.00  0.00    +0.000 A 
ATOM     17  C   UNL     1       1.526   7.346  20.532  0.00  0.00    +0.000 A 
ATOM     18  C   UNL     1       1.493   8.522  19.738  0.00  0.00    +0.000 A 
ATOM     19  C   UNL     1       2.134   8.429  18.497  0.00  0.00    +0.000 A 
ATOM     20  C   UNL     1       2.854   7.290  18.110  0.00  0.00    +0.000 A 
BRANCH  15  21
ATOM     21  C   UNL     1       3.804   5.001  18.591  0.00  0.00    +0.000 C 
ATOM     22  O   UNL     1       4.721   4.578  19.273  0.00  0.00    +0.000 OA
BRANCH  21  24
ATOM     23  C   UNL     1       2.789   3.210  17.427  0.00  0.00    +0.000 C 
ATOM     24  O   UNL     1       3.397   4.503  17.396  0.00  0.00    +0.000 OA
ENDBRANCH  21  24
ENDBRANCH  15  21
ENDBRANCH   1  18
BRANCH   2  25
ATOM     25  C   UNL     1      -0.806  10.338  18.752  0.00  0.00    +0.000 C 
ATOM     26  N   UNL     1      -1.774  10.187  18.133  0.00  0.00    +0.000 NA
ENDBRANCH   2  25
TORSDOF 4
ENDMDL
MODEL 6
REMARK VINA RESULT:      -6.9      1.276      1.615
REMARK  Name = 
REMARK  7 active torsions:
REMARK  status: ('A' for Active; 'I' for Inactive)
REMARK    1  A    between atoms: C_1  and  O_2
REMARK    2  A    between atoms: O_2  and  C_3
REMARK    3  A    between atoms: C_3  and  C_5
REMARK    4  A    between atoms: C_8  and  C_9
REMARK    5  A    between atoms: C_10  and  C_11
REMARK    6  A    between atoms: C_17  and  C_18
REMARK    7  A    between atoms: C_19  and  C_20
REMARK                            x       y       z     vdW  Elec       q    Type
REMARK                         _______ _______ _______ _____ _____    ______ ____
ROOT
ATOM      1  C   UNL     1       0.682  10.443  20.688  0.00  0.00    +0.000 A 
ATOM      2  C   UNL     1       0.616  11.699  20.071  0.00  0.00    +0.000 A 
ATOM      3  N   UNL     1       0.601  12.802  20.888  0.00  0.00    +0.000 N 
ATOM      4  O   UNL     1       1.205  13.856  20.527  0.00  0.00    +0.000 OA
ATOM      5  C   UNL     1      -0.239  12.756  21.987  0.00  0.00    +0.000 A 
ATOM      6  C   UNL     1      -0.733  13.941  22.555  0.00  0.00    +0.000 A 
ATOM      7  C   UNL     1      -1.915  13.921  23.296  0.00  0.00    +0.000 A 
ATOM      8  C   UNL     1      -2.494  15.234  23.753  0.00  0.00    +0.000 C 
ATOM      9  C   UNL     1      -2.574  12.691  23.478  0.00  0.00    +0.000 A 
ATOM     10  C   UNL     1      -4.042  12.639  23.836  0.00  0.00    +0.000 C 
ATOM     11  C   UNL     1      -1.902  11.488  23.157  0.00  0.00    +0.000 A 
ATOM     12  C   UNL     1      -0.713  11.502  22.388  0.00  0.00    +0.000 A 
ATOM     13  N   UNL     1      -0.032  10.336  21.890  0.00  0.00    +0.000 N 
ATOM     14  O   UNL     1      -0.158   9.242  22.525  0.00  0.00    +0.000 OA
ENDROOT
BRANCH   1  18
ATOM     15  C   UNL     1       2.590   7.187  18.509  0.00  0.00    +0.000 A 
ATOM     16  C   UNL     1       2.237   7.039  19.852  0.00  0.00    +0.000 A 
ATOM     17  C   UNL     1       1.530   8.060  20.515  0.00  0.00    +0.000 A 
ATOM     18  C   UNL     1       1.191   9.287  19.887  0.00  0.00    +0.000 A 
ATOM     19  C   UNL     1       1.489   9.367  18.521  0.00  0.00    +0.000 A 
ATOM     20  C   UNL     1       2.173   8.348  17.844  0.00  0.00    +0.000 A 
BRANCH  15  21
ATOM     21  C   UNL     1       3.404   6.144  17.819  0.00  0.00    +0.000 C 
ATOM     22  O   UNL     1       4.290   6.384  17.018  0.00  0.00    +0.000 OA
BRANCH  21  24
ATOM     23  C   UNL     1       3.355   3.823  17.364  0.00  0.00    +0.000 C 
ATOM     24  O   UNL     1       2.992   4.912  18.215  0.00  0.00    +0.000 OA
ENDBRANCH  21  24
ENDBRANCH  15  21
ENDBRANCH   1  18
BRANCH   2  25
ATOM     25  C   UNL     1      -0.470  11.771  19.097  0.00  0.00    +0.000 C 
ATOM     26  N   UNL     1      -1.423  11.970  18.467  0.00  0.00    +0.000 NA
ENDBRANCH   2  25
TORSDOF 4
ENDMDL
MODEL 7
REMARK VINA RESULT:      -6.7      3.179      5.238
REMARK  Name = 
REMARK  7 active torsions:
REMARK  status: ('A' for Active; 'I' for Inactive)
REMARK    1  A    between atoms: C_1  and  O_2
REMARK    2  A    between atoms: O_2  and  C_3
REMARK    3  A    between atoms: C_3  and  C_5
REMARK    4  A    between atoms: C_8  and  C_9
REMARK    5  A    between atoms: C_10  and  C_11
REMARK    6  A    between atoms: C_17  and  C_18
REMARK    7  A    between atoms: C_19  and  C_20
REMARK                            x       y       z     vdW  Elec       q    Type
REMARK                         _______ _______ _______ _____ _____    ______ ____
ROOT
ATOM      1  C   UNL     1      -2.022  12.846  23.174  0.00  0.00    +0.000 A 
ATOM      2  C   UNL     1      -1.235  13.969  23.460  0.00  0.00    +0.000 A 
ATOM      3  N   UNL     1      -1.624  14.760  24.512  0.00  0.00    +0.000 N 
ATOM      4  O   UNL     1      -0.746  15.299  25.249  0.00  0.00    +0.000 OA
ATOM      5  C   UNL     1      -2.970  15.076  24.593  0.00  0.00    +0.000 A 
ATOM      6  C   UNL     1      -3.388  16.244  25.251  0.00  0.00    +0.000 A 
ATOM      7  C   UNL     1      -4.616  16.825  24.931  0.00  0.00    +0.000 A 
ATOM      8  C   UNL     1      -4.955  18.159  25.543  0.00  0.00    +0.000 C 
ATOM      9  C   UNL     1      -5.423  16.200  23.963  0.00  0.00    +0.000 A 
ATOM     10  C   UNL     1      -6.498  16.970  23.230  0.00  0.00    +0.000 C 
ATOM     11  C   UNL     1      -5.117  14.884  23.546  0.00  0.00    +0.000 A 
ATOM     12  C   UNL     1      -3.865  14.297  23.851  0.00  0.00    +0.000 A 
ATOM     13  N   UNL     1      -3.401  13.027  23.359  0.00  0.00    +0.000 N 
ATOM     14  O   UNL     1      -4.261  12.143  23.052  0.00  0.00    +0.000 OA
ENDROOT
BRANCH   1  18
ATOM     15  C   UNL     1       0.202   9.774  21.028  0.00  0.00    +0.000 A 
ATOM     16  C   UNL     1       0.046   9.707  22.413  0.00  0.00    +0.000 A 
ATOM     17  C   UNL     1      -0.760  10.650  23.082  0.00  0.00    +0.000 A 
ATOM     18  C   UNL     1      -1.400  11.723  22.408  0.00  0.00    +0.000 A 
ATOM     19  C   UNL     1      -1.287  11.710  21.013  0.00  0.00    +0.000 A 
ATOM     20  C   UNL     1      -0.505  10.765  20.333  0.00  0.00    +0.000 A 
BRANCH  15  21
ATOM     21  C   UNL     1       1.113   8.828  20.320  0.00  0.00    +0.000 C 
ATOM     22  O   UNL     1       1.501   7.770  20.787  0.00  0.00    +0.000 OA
BRANCH  21  24
ATOM     23  C   UNL     1       2.072   8.435  18.194  0.00  0.00    +0.000 C 
ATOM     24  O   UNL     1       1.441   9.337  19.105  0.00  0.00    +0.000 OA
ENDBRANCH  21  24
ENDBRANCH  15  21
ENDBRANCH   1  18
BRANCH   2  25
ATOM     25  C   UNL     1      -0.997  14.784  22.270  0.00  0.00    +0.000 C 
ATOM     26  N   UNL     1      -0.941  15.285  21.226  0.00  0.00    +0.000 NA
ENDBRANCH   2  25
TORSDOF 4
ENDMDL
MODEL 8
REMARK VINA RESULT:      -6.6      2.411      3.421
REMARK  Name = 
REMARK  7 active torsions:
REMARK  status: ('A' for Active; 'I' for Inactive)
REMARK    1  A    between atoms: C_1  and  O_2
REMARK    2  A    between atoms: O_2  and  C_3
REMARK    3  A    between atoms: C_3  and  C_5
REMARK    4  A    between atoms: C_8  and  C_9
REMARK    5  A    between atoms: C_10  and  C_11
REMARK    6  A    between atoms: C_17  and  C_18
REMARK    7  A    between atoms: C_19  and  C_20
REMARK                            x       y       z     vdW  Elec       q    Type
REMARK                         _______ _______ _______ _____ _____    ______ ____
ROOT
ATOM      1  C   UNL     1       1.234   9.800  18.916  0.00  0.00    +0.000 A 
ATOM      2  C   UNL     1       0.157  10.169  19.733  0.00  0.00    +0.000 A 
ATOM      3  N   UNL     1      -0.630  11.208  19.305  0.00  0.00    +0.000 N 
ATOM      4  O   UNL     1      -1.879  11.176  19.518  0.00  0.00    +0.000 OA
ATOM      5  C   UNL     1       0.022  12.330  18.824  0.00  0.00    +0.000 A 
ATOM      6  C   UNL     1      -0.601  13.588  18.869  0.00  0.00    +0.000 A 
ATOM      7  C   UNL     1       0.171  14.751  18.866  0.00  0.00    +0.000 A 
ATOM      8  C   UNL     1      -0.524  16.070  19.074  0.00  0.00    +0.000 C 
ATOM      9  C   UNL     1       1.571  14.628  18.792  0.00  0.00    +0.000 A 
ATOM     10  C   UNL     1       2.477  15.748  19.247  0.00  0.00    +0.000 C 
ATOM     11  C   UNL     1       2.142  13.380  18.447  0.00  0.00    +0.000 A 
ATOM     12  C   UNL     1       1.368  12.195  18.467  0.00  0.00    +0.000 A 
ATOM     13  N   UNL     1       1.880  10.864  18.271  0.00  0.00    +0.000 N 
ATOM     14  O   UNL     1       2.933  10.715  17.575  0.00  0.00    +0.000 OA
ENDROOT
BRANCH   1  18
ATOM     15  C   UNL     1       2.461   5.625  19.165  0.00  0.00    +0.000 A 
ATOM     16  C   UNL     1       2.608   6.344  17.978  0.00  0.00    +0.000 A 
ATOM     17  C   UNL     1       2.303   7.719  17.939  0.00  0.00    +0.000 A 
ATOM     18  C   UNL     1       1.793   8.420  19.063  0.00  0.00    +0.000 A 
ATOM     19  C   UNL     1       1.736   7.687  20.255  0.00  0.00    +0.000 A 
ATOM     20  C   UNL     1       2.057   6.324  20.311  0.00  0.00    +0.000 A 
BRANCH  15  21
ATOM     21  C   UNL     1       2.709   4.154  19.197  0.00  0.00    +0.000 C 
ATOM     22  O   UNL     1       3.589   3.620  19.849  0.00  0.00    +0.000 OA
BRANCH  21  24
ATOM     23  C   UNL     1       0.867   2.679  19.032  0.00  0.00    +0.000 C 
ATOM     24  O   UNL     1       1.818   3.527  18.386  0.00  0.00    +0.000 OA
ENDBRANCH  21  24
ENDBRANCH  15  21
ENDBRANCH   1  18
BRANCH   2  25
ATOM     25  C   UNL     1       0.571  10.379  21.118  0.00  0.00    +0.000 C 
ATOM     26  N   UNL     1       0.692  10.616  22.246  0.00  0.00    +0.000 NA
ENDBRANCH   2  25
TORSDOF 4
ENDMDL
MODEL 9
REMARK VINA RESULT:      -6.6      4.189      5.622
REMARK  Name = 
REMARK  7 active torsions:
REMARK  status: ('A' for Active; 'I' for Inactive)
REMARK    1  A    between atoms: C_1  and  O_2
REMARK    2  A    between atoms: O_2  and  C_3
REMARK    3  A    between atoms: C_3  and  C_5
REMARK    4  A    between atoms: C_8  and  C_9
REMARK    5  A    between atoms: C_10  and  C_11
REMARK    6  A    between atoms: C_17  and  C_18
REMARK    7  A    between atoms: C_19  and  C_20
REMARK                            x       y       z     vdW  Elec       q    Type
REMARK                         _______ _______ _______ _____ _____    ______ ____
ROOT
ATOM      1  C   UNL     1      -2.724  11.599  19.198  0.00  0.00    +0.000 A 
ATOM      2  C   UNL     1      -1.384  11.717  19.590  0.00  0.00    +0.000 A 
ATOM      3  N   UNL     1      -1.125  11.792  20.935  0.00  0.00    +0.000 N 
ATOM      4  O   UNL     1      -0.090  11.235  21.406  0.00  0.00    +0.000 OA
ATOM      5  C   UNL     1      -1.926  12.642  21.680  0.00  0.00    +0.000 A 
ATOM      6  C   UNL     1      -1.451  13.197  22.879  0.00  0.00    +0.000 A 
ATOM      7  C   UNL     1      -2.000  14.385  23.365  0.00  0.00    +0.000 A 
ATOM      8  C   UNL     1      -1.358  15.028  24.566  0.00  0.00    +0.000 C 
ATOM      9  C   UNL     1      -3.046  14.987  22.642  0.00  0.00    +0.000 A 
ATOM     10  C   UNL     1      -3.366  16.454  22.812  0.00  0.00    +0.000 C 
ATOM     11  C   UNL     1      -3.695  14.257  21.619  0.00  0.00    +0.000 A 
ATOM     12  C   UNL     1      -3.133  13.061  21.109  0.00  0.00    +0.000 A 
ATOM     13  N   UNL     1      -3.635  12.322  19.982  0.00  0.00    +0.000 N 
ATOM     14  O   UNL     1      -4.873  12.404  19.705  0.00  0.00    +0.000 OA
ENDROOT
BRANCH   1  18
ATOM     15  C   UNL     1      -3.218  10.181  15.107  0.00  0.00    +0.000 A 
ATOM     16  C   UNL     1      -2.318   9.561  15.975  0.00  0.00    +0.000 A 
ATOM     17  C   UNL     1      -2.242   9.963  17.322  0.00  0.00    +0.000 A 
ATOM     18  C   UNL     1      -3.019  11.029  17.847  0.00  0.00    +0.000 A 
ATOM     19  C   UNL     1      -3.966  11.572  16.971  0.00  0.00    +0.000 A 
ATOM     20  C   UNL     1      -4.066  11.166  15.633  0.00  0.00    +0.000 A 
BRANCH  15  21
ATOM     21  C   UNL     1      -3.253   9.815  13.661  0.00  0.00    +0.000 C 
ATOM     22  O   UNL     1      -2.264   9.585  12.987  0.00  0.00    +0.000 OA
BRANCH  21  24
ATOM     23  C   UNL     1      -4.730   9.812  11.813  0.00  0.00    +0.000 C 
ATOM     24  O   UNL     1      -4.540   9.794  13.229  0.00  0.00    +0.000 OA
ENDBRANCH  21  24
ENDBRANCH  15  21
ENDBRANCH   1  18
BRANCH   2  25
ATOM     25  C   UNL     1      -0.701  12.796  18.878  0.00  0.00    +0.000 C 
ATOM     26  N   UNL     1      -0.289  13.784  18.435  0.00  0.00    +0.000 NA
ENDBRANCH   2  25
TORSDOF 4
ENDMDL
