MODEL 1
REMARK VINA RESULT:      -7.2      0.000      0.000
REMARK  Name = 
REMARK  8 active torsions:
REMARK  status: ('A' for Active; 'I' for Inactive)
REMARK    1  A    between atoms: C_1  and  C_2
REMARK    2  A    between atoms: C_2  and  C_3
REMARK    3  A    between atoms: C_8  and  C_9
REMARK    4  A    between atoms: C_13  and  N_14
REMARK    5  A    between atoms: N_14  and  C_15
REMARK    6  A    between atoms: N_14  and  C_18
REMARK    7  A    between atoms: C_15  and  C_16
REMARK    8  A    between atoms: C_24  and  O_25
REMARK                            x       y       z     vdW  Elec       q    Type
REMARK                         _______ _______ _______ _____ _____    ______ ____
ROOT
ATOM      1  C   UNL     1       8.281   6.849  18.582  0.00  0.00    +0.000 C 
ATOM      2  C   UNL     1       7.202   6.296  17.630  0.00  0.00    +0.000 C 
ATOM      3  C   UNL     1       6.054   7.317  17.643  0.00  0.00    +0.000 C 
ATOM      4  O   UNL     1       7.765   6.267  16.298  0.00  0.00    +0.000 OA
ATOM      5  C   UNL     1       7.154   5.449  15.380  0.00  0.00    +0.000 A 
ATOM      6  C   UNL     1       7.547   5.629  14.052  0.00  0.00    +0.000 A 
ATOM      7  C   UNL     1       7.026   4.813  13.041  0.00  0.00    +0.000 A 
ATOM      8  C   UNL     1       6.122   3.798  13.346  0.00  0.00    +0.000 A 
ATOM      9  C   UNL     1       5.732   3.609  14.678  0.00  0.00    +0.000 A 
ATOM     10  C   UNL     1       6.231   4.444  15.702  0.00  0.00    +0.000 A 
ATOM     11  C   UNL     1       5.792   4.214  17.134  0.00  0.00    +0.000 C 
ATOM     12  C   UNL     1       6.826   4.865  18.082  0.00  0.00    +0.000 C 
ENDROOT
BRANCH   8  13
ATOM     13  C   UNL     1       5.610   2.938  12.317  0.00  0.00    +0.000 C 
ATOM     14  N   UNL     1       5.205   2.239  11.486  0.00  0.00    +0.000 NA
ENDBRANCH   8  13
BRANCH  12  15
ATOM     15  O   UNL     1       8.017   4.037  18.116  0.00  0.00    +0.000 OA
ATOM     16  H   UNL     1       8.107   3.630  17.233  0.00  0.00    +0.000 HD
ENDBRANCH  12  15
BRANCH  11  17
ATOM     17  N   UNL     1       4.410   4.667  17.433  0.00  0.00    +0.000 N 
BRANCH  17  18
ATOM     18  C   UNL     1       3.553   3.833  18.159  0.00  0.00    +0.000 A 
ATOM     19  C   UNL     1       3.780   3.561  19.519  0.00  0.00    +0.000 A 
ATOM     20  C   UNL     1       2.932   2.726  20.255  0.00  0.00    +0.000 A 
ATOM     21  C   UNL     1       1.821   2.149  19.647  0.00  0.00    +0.000 A 
ATOM     22  C   UNL     1       1.569   2.404  18.307  0.00  0.00    +0.000 A 
ATOM     23  C   UNL     1       2.427   3.233  17.575  0.00  0.00    +0.000 A 
ENDBRANCH  17  18
BRANCH  17  24
ATOM     24  C   UNL     1       3.834   5.900  16.855  0.00  0.00    +0.000 C 
BRANCH  24  25
ATOM     25  C   UNL     1       3.023   6.691  17.803  0.00  0.00    +0.000 C 
ATOM     26  N   UNL     1       2.428   7.330  18.567  0.00  0.00    +0.000 NA
ENDBRANCH  24  25
ENDBRANCH  17  24
ENDBRANCH  11  17
TORSDOF 6
ENDMDL
MODEL 2
REMARK VINA RESULT:      -6.3     11.012     14.506
REMARK  Name = 
REMARK  8 active torsions:
REMARK  status: ('A' for Active; 'I' for Inactive)
REMARK    1  A    between atoms: C_1  and  C_2
REMARK    2  A    between atoms: C_2  and  C_3
REMARK    3  A    between atoms: C_8  and  C_9
REMARK    4  A    between atoms: C_13  and  N_14
REMARK    5  A    between atoms: N_14  and  C_15
REMARK    6  A    between atoms: N_14  and  C_18
REMARK    7  A    between atoms: C_15  and  C_16
REMARK    8  A    between atoms: C_24  and  O_25
REMARK                            x       y       z     vdW  Elec       q    Type
REMARK                         _______ _______ _______ _____ _____    ______ ____
ROOT
ATOM      1  C   UNL     1      -6.210  12.798  22.209  0.00  0.00    +0.000 C 
ATOM      2  C   UNL     1      -4.815  13.402  22.465  0.00  0.00    +0.000 C 
ATOM      3  C   UNL     1      -4.269  13.818  21.091  0.00  0.00    +0.000 C 
ATOM      4  O   UNL     1      -4.995  14.597  23.259  0.00  0.00    +0.000 OA
ATOM      5  C   UNL     1      -3.898  15.062  23.943  0.00  0.00    +0.000 A 
ATOM      6  C   UNL     1      -4.022  16.343  24.487  0.00  0.00    +0.000 A 
ATOM      7  C   UNL     1      -2.983  16.894  25.247  0.00  0.00    +0.000 A 
ATOM      8  C   UNL     1      -1.819  16.168  25.488  0.00  0.00    +0.000 A 
ATOM      9  C   UNL     1      -1.695  14.880  24.950  0.00  0.00    +0.000 A 
ATOM     10  C   UNL     1      -2.725  14.326  24.159  0.00  0.00    +0.000 A 
ATOM     11  C   UNL     1      -2.563  12.930  23.593  0.00  0.00    +0.000 C 
ATOM     12  C   UNL     1      -3.960  12.370  23.239  0.00  0.00    +0.000 C 
ENDROOT
BRANCH   8  13
ATOM     13  C   UNL     1      -0.766  16.717  26.293  0.00  0.00    +0.000 C 
ATOM     14  N   UNL     1       0.079  17.168  26.946  0.00  0.00    +0.000 NA
ENDBRANCH   8  13
BRANCH  12  15
ATOM     15  O   UNL     1      -4.640  11.996  24.465  0.00  0.00    +0.000 OA
ATOM     16  H   UNL     1      -4.167  11.224  24.829  0.00  0.00    +0.000 HD
ENDBRANCH  12  15
BRANCH  11  17
ATOM     17  N   UNL     1      -1.626  12.837  22.444  0.00  0.00    +0.000 N 
BRANCH  17  18
ATOM     18  C   UNL     1      -1.082  11.597  22.096  0.00  0.00    +0.000 A 
ATOM     19  C   UNL     1      -0.791  10.630  23.073  0.00  0.00    +0.000 A 
ATOM     20  C   UNL     1      -0.244   9.385  22.738  0.00  0.00    +0.000 A 
ATOM     21  C   UNL     1       0.017   9.073  21.407  0.00  0.00    +0.000 A 
ATOM     22  C   UNL     1      -0.266  10.007  20.421  0.00  0.00    +0.000 A 
ATOM     23  C   UNL     1      -0.805  11.252  20.764  0.00  0.00    +0.000 A 
ENDBRANCH  17  18
BRANCH  17  24
ATOM     24  C   UNL     1      -1.106  14.031  21.743  0.00  0.00    +0.000 C 
BRANCH  24  25
ATOM     25  C   UNL     1       0.333  14.281  21.960  0.00  0.00    +0.000 C 
ATOM     26  N   UNL     1       1.452  14.507  22.168  0.00  0.00    +0.000 NA
ENDBRANCH  24  25
ENDBRANCH  17  24
ENDBRANCH  11  17
TORSDOF 6
ENDMDL
MODEL 3
REMARK VINA RESULT:      -6.1     11.100     14.671
REMARK  Name = 
REMARK  8 active torsions:
REMARK  status: ('A' for Active; 'I' for Inactive)
REMARK    1  A    between atoms: C_1  and  C_2
REMARK    2  A    between atoms: C_2  and  C_3
REMARK    3  A    between atoms: C_8  and  C_9
REMARK    4  A    between atoms: C_13  and  N_14
REMARK    5  A    between atoms: N_14  and  C_15
REMARK    6  A    between atoms: N_14  and  C_18
REMARK    7  A    between atoms: C_15  and  C_16
REMARK    8  A    between atoms: C_24  and  O_25
REMARK                            x       y       z     vdW  Elec       q    Type
REMARK                         _______ _______ _______ _____ _____    ______ ____
ROOT
ATOM      1  C   UNL     1      -6.067  12.860  21.984  0.00  0.00    +0.000 C 
ATOM      2  C   UNL     1      -4.729  13.553  22.309  0.00  0.00    +0.000 C 
ATOM      3  C   UNL     1      -4.188  14.088  20.974  0.00  0.00    +0.000 C 
ATOM      4  O   UNL     1      -5.018  14.684  23.163  0.00  0.00    +0.000 OA
ATOM      5  C   UNL     1      -3.976  15.192  23.899  0.00  0.00    +0.000 A 
ATOM      6  C   UNL     1      -4.210  16.426  24.509  0.00  0.00    +0.000 A 
ATOM      7  C   UNL     1      -3.234  17.011  25.325  0.00  0.00    +0.000 A 
ATOM      8  C   UNL     1      -2.022  16.364  25.555  0.00  0.00    +0.000 A 
ATOM      9  C   UNL     1      -1.787  15.122  24.949  0.00  0.00    +0.000 A 
ATOM     10  C   UNL     1      -2.754  14.537  24.103  0.00  0.00    +0.000 A 
ATOM     11  C   UNL     1      -2.471  13.192  23.465  0.00  0.00    +0.000 C 
ATOM     12  C   UNL     1      -3.813  12.548  23.045  0.00  0.00    +0.000 C 
ENDROOT
BRANCH   8  13
ATOM     13  C   UNL     1      -1.032  16.945  26.415  0.00  0.00    +0.000 C 
ATOM     14  N   UNL     1      -0.235  17.424  27.108  0.00  0.00    +0.000 NA
ENDBRANCH   8  13
BRANCH  12  15
ATOM     15  O   UNL     1      -4.487  12.053  24.231  0.00  0.00    +0.000 OA
ATOM     16  H   UNL     1      -3.978  11.282  24.547  0.00  0.00    +0.000 HD
ENDBRANCH  12  15
BRANCH  11  17
ATOM     17  N   UNL     1      -1.507  13.238  22.337  0.00  0.00    +0.000 N 
BRANCH  17  18
ATOM     18  C   UNL     1      -1.063  12.043  21.760  0.00  0.00    +0.000 A 
ATOM     19  C   UNL     1      -1.170  11.819  20.377  0.00  0.00    +0.000 A 
ATOM     20  C   UNL     1      -0.731  10.627  19.788  0.00  0.00    +0.000 A 
ATOM     21  C   UNL     1      -0.162   9.629  20.572  0.00  0.00    +0.000 A 
ATOM     22  C   UNL     1      -0.039   9.826  21.939  0.00  0.00    +0.000 A 
ATOM     23  C   UNL     1      -0.487  11.016  22.523  0.00  0.00    +0.000 A 
ENDBRANCH  17  18
BRANCH  17  24
ATOM     24  C   UNL     1      -0.857  14.490  21.895  0.00  0.00    +0.000 C 
BRANCH  24  25
ATOM     25  C   UNL     1       0.615  14.482  22.011  0.00  0.00    +0.000 C 
ATOM     26  N   UNL     1       1.769  14.512  22.136  0.00  0.00    +0.000 NA
ENDBRANCH  24  25
ENDBRANCH  17  24
ENDBRANCH  11  17
TORSDOF 6
ENDMDL
MODEL 4
REMARK VINA RESULT:      -6.1      1.246      1.453
REMARK  Name = 
REMARK  8 active torsions:
REMARK  status: ('A' for Active; 'I' for Inactive)
REMARK    1  A    between atoms: C_1  and  C_2
REMARK    2  A    between atoms: C_2  and  C_3
REMARK    3  A    between atoms: C_8  and  C_9
REMARK    4  A    between atoms: C_13  and  N_14
REMARK    5  A    between atoms: N_14  and  C_15
REMARK    6  A    between atoms: N_14  and  C_18
REMARK    7  A    between atoms: C_15  and  C_16
REMARK    8  A    between atoms: C_24  and  O_25
REMARK                            x       y       z     vdW  Elec       q    Type
REMARK                         _______ _______ _______ _____ _____    ______ ____
ROOT
ATOM      1  C   UNL     1       8.018   6.893  18.577  0.00  0.00    +0.000 C 
ATOM      2  C   UNL     1       7.012   6.187  17.647  0.00  0.00    +0.000 C 
ATOM      3  C   UNL     1       5.714   7.006  17.718  0.00  0.00    +0.000 C 
ATOM      4  O   UNL     1       7.526   6.275  16.298  0.00  0.00    +0.000 OA
ATOM      5  C   UNL     1       7.026   5.383  15.381  0.00  0.00    +0.000 A 
ATOM      6  C   UNL     1       7.338   5.649  14.046  0.00  0.00    +0.000 A 
ATOM      7  C   UNL     1       6.923   4.776  13.032  0.00  0.00    +0.000 A 
ATOM      8  C   UNL     1       6.208   3.621  13.342  0.00  0.00    +0.000 A 
ATOM      9  C   UNL     1       5.900   3.347  14.681  0.00  0.00    +0.000 A 
ATOM     10  C   UNL     1       6.291   4.235  15.707  0.00  0.00    +0.000 A 
ATOM     11  C   UNL     1       5.945   3.911  17.147  0.00  0.00    +0.000 C 
ATOM     12  C   UNL     1       6.890   4.706  18.077  0.00  0.00    +0.000 C 
ENDROOT
BRANCH   8  13
ATOM     13  C   UNL     1       5.808   2.707  12.310  0.00  0.00    +0.000 C 
ATOM     14  N   UNL     1       5.488   1.962  11.483  0.00  0.00    +0.000 NA
ENDBRANCH   8  13
BRANCH  12  15
ATOM     15  O   UNL     1       8.201   4.084  18.056  0.00  0.00    +0.000 OA
ATOM     16  H   UNL     1       8.444   3.898  18.983  0.00  0.00    +0.000 HD
ENDBRANCH  12  15
BRANCH  11  17
ATOM     17  N   UNL     1       4.519   4.126  17.499  0.00  0.00    +0.000 N 
BRANCH  17  18
ATOM     18  C   UNL     1       4.063   3.776  18.775  0.00  0.00    +0.000 A 
ATOM     19  C   UNL     1       3.433   4.716  19.606  0.00  0.00    +0.000 A 
ATOM     20  C   UNL     1       2.975   4.379  20.885  0.00  0.00    +0.000 A 
ATOM     21  C   UNL     1       3.128   3.080  21.361  0.00  0.00    +0.000 A 
ATOM     22  C   UNL     1       3.742   2.130  20.560  0.00  0.00    +0.000 A 
ATOM     23  C   UNL     1       4.205   2.476  19.285  0.00  0.00    +0.000 A 
ENDBRANCH  17  18
BRANCH  17  24
ATOM     24  C   UNL     1       3.507   4.542  16.505  0.00  0.00    +0.000 C 
BRANCH  24  25
ATOM     25  C   UNL     1       2.113   4.262  16.905  0.00  0.00    +0.000 C 
ATOM     26  N   UNL     1       1.035   4.031  17.265  0.00  0.00    +0.000 NA
ENDBRANCH  24  25
ENDBRANCH  17  24
ENDBRANCH  11  17
TORSDOF 6
ENDMDL
MODEL 5
REMARK VINA RESULT:      -6.1      8.369     11.287
REMARK  Name = 
REMARK  8 active torsions:
REMARK  status: ('A' for Active; 'I' for Inactive)
REMARK    1  A    between atoms: C_1  and  C_2
REMARK    2  A    between atoms: C_2  and  C_3
REMARK    3  A    between atoms: C_8  and  C_9
REMARK    4  A    between atoms: C_13  and  N_14
REMARK    5  A    between atoms: N_14  and  C_15
REMARK    6  A    between atoms: N_14  and  C_18
REMARK    7  A    between atoms: C_15  and  C_16
REMARK    8  A    between atoms: C_24  and  O_25
REMARK                            x       y       z     vdW  Elec       q    Type
REMARK                         _______ _______ _______ _____ _____    ______ ____
ROOT
ATOM      1  C   UNL     1      -2.664  13.873  22.433  0.00  0.00    +0.000 C 
ATOM      2  C   UNL     1      -2.123  13.004  21.281  0.00  0.00    +0.000 C 
ATOM      3  C   UNL     1      -1.318  11.872  21.940  0.00  0.00    +0.000 C 
ATOM      4  O   UNL     1      -3.258  12.415  20.606  0.00  0.00    +0.000 OA
ATOM      5  C   UNL     1      -3.052  11.949  19.331  0.00  0.00    +0.000 A 
ATOM      6  C   UNL     1      -4.076  11.162  18.801  0.00  0.00    +0.000 A 
ATOM      7  C   UNL     1      -3.993  10.677  17.490  0.00  0.00    +0.000 A 
ATOM      8  C   UNL     1      -2.896  10.987  16.689  0.00  0.00    +0.000 A 
ATOM      9  C   UNL     1      -1.870  11.783  17.215  0.00  0.00    +0.000 A 
ATOM     10  C   UNL     1      -1.932  12.254  18.545  0.00  0.00    +0.000 A 
ATOM     11  C   UNL     1      -0.808  13.115  19.085  0.00  0.00    +0.000 C 
ATOM     12  C   UNL     1      -1.330  13.906  20.307  0.00  0.00    +0.000 C 
ENDROOT
BRANCH   8  13
ATOM     13  C   UNL     1      -2.822  10.519  15.334  0.00  0.00    +0.000 C 
ATOM     14  N   UNL     1      -2.769  10.133  14.242  0.00  0.00    +0.000 NA
ENDBRANCH   8  13
BRANCH  12  15
ATOM     15  O   UNL     1      -2.181  14.983  19.839  0.00  0.00    +0.000 OA
ATOM     16  H   UNL     1      -2.950  15.021  20.440  0.00  0.00    +0.000 HD
ENDBRANCH  12  15
BRANCH  11  17
ATOM     17  N   UNL     1       0.437  12.371  19.403  0.00  0.00    +0.000 N 
BRANCH  17  18
ATOM     18  C   UNL     1       1.649  13.063  19.498  0.00  0.00    +0.000 A 
ATOM     19  C   UNL     1       2.252  13.307  20.743  0.00  0.00    +0.000 A 
ATOM     20  C   UNL     1       3.463  14.000  20.852  0.00  0.00    +0.000 A 
ATOM     21  C   UNL     1       4.109  14.460  19.709  0.00  0.00    +0.000 A 
ATOM     22  C   UNL     1       3.539  14.229  18.466  0.00  0.00    +0.000 A 
ATOM     23  C   UNL     1       2.325  13.542  18.365  0.00  0.00    +0.000 A 
ENDBRANCH  17  18
BRANCH  17  24
ATOM     24  C   UNL     1       0.489  10.894  19.461  0.00  0.00    +0.000 C 
BRANCH  24  25
ATOM     25  C   UNL     1       1.360  10.278  18.439  0.00  0.00    +0.000 C 
ATOM     26  N   UNL     1       2.011   9.808  17.602  0.00  0.00    +0.000 NA
ENDBRANCH  24  25
ENDBRANCH  17  24
ENDBRANCH  11  17
TORSDOF 6
ENDMDL
MODEL 6
REMARK VINA RESULT:      -6.0      9.160     11.770
REMARK  Name = 
REMARK  8 active torsions:
REMARK  status: ('A' for Active; 'I' for Inactive)
REMARK    1  A    between atoms: C_1  and  C_2
REMARK    2  A    between atoms: C_2  and  C_3
REMARK    3  A    between atoms: C_8  and  C_9
REMARK    4  A    between atoms: C_13  and  N_14
REMARK    5  A    between atoms: N_14  and  C_15
REMARK    6  A    between atoms: N_14  and  C_18
REMARK    7  A    between atoms: C_15  and  C_16
REMARK    8  A    between atoms: C_24  and  O_25
REMARK                            x       y       z     vdW  Elec       q    Type
REMARK                         _______ _______ _______ _____ _____    ______ ____
ROOT
ATOM      1  C   UNL     1      -0.983   9.927  18.081  0.00  0.00    +0.000 C 
ATOM      2  C   UNL     1      -0.391  11.110  18.872  0.00  0.00    +0.000 C 
ATOM      3  C   UNL     1      -0.200  10.611  20.312  0.00  0.00    +0.000 C 
ATOM      4  O   UNL     1       0.915  11.397  18.318  0.00  0.00    +0.000 OA
ATOM      5  C   UNL     1       1.442  12.638  18.576  0.00  0.00    +0.000 A 
ATOM      6  C   UNL     1       2.793  12.800  18.258  0.00  0.00    +0.000 A 
ATOM      7  C   UNL     1       3.419  14.040  18.432  0.00  0.00    +0.000 A 
ATOM      8  C   UNL     1       2.701  15.135  18.909  0.00  0.00    +0.000 A 
ATOM      9  C   UNL     1       1.345  14.978  19.222  0.00  0.00    +0.000 A 
ATOM     10  C   UNL     1       0.711  13.725  19.075  0.00  0.00    +0.000 A 
ATOM     11  C   UNL     1      -0.758  13.586  19.420  0.00  0.00    +0.000 C 
ATOM     12  C   UNL     1      -1.321  12.335  18.707  0.00  0.00    +0.000 C 
ENDROOT
BRANCH   8  13
ATOM     13  C   UNL     1       3.332  16.415  19.059  0.00  0.00    +0.000 C 
ATOM     14  N   UNL     1       3.836  17.451  19.189  0.00  0.00    +0.000 NA
ENDBRANCH   8  13
BRANCH  12  15
ATOM     15  O   UNL     1      -1.488  12.633  17.297  0.00  0.00    +0.000 OA
ATOM     16  H   UNL     1      -0.638  12.997  16.980  0.00  0.00    +0.000 HD
ENDBRANCH  12  15
BRANCH  11  17
ATOM     17  N   UNL     1      -1.049  13.566  20.876  0.00  0.00    +0.000 N 
BRANCH  17  18
ATOM     18  C   UNL     1      -2.373  13.652  21.316  0.00  0.00    +0.000 A 
ATOM     19  C   UNL     1      -2.924  12.676  22.164  0.00  0.00    +0.000 A 
ATOM     20  C   UNL     1      -4.249  12.749  22.610  0.00  0.00    +0.000 A 
ATOM     21  C   UNL     1      -5.057  13.814  22.224  0.00  0.00    +0.000 A 
ATOM     22  C   UNL     1      -4.538  14.795  21.392  0.00  0.00    +0.000 A 
ATOM     23  C   UNL     1      -3.216  14.711  20.944  0.00  0.00    +0.000 A 
ENDBRANCH  17  18
BRANCH  17  24
ATOM     24  C   UNL     1       0.016  13.628  21.901  0.00  0.00    +0.000 C 
BRANCH  24  25
ATOM     25  C   UNL     1       0.011  14.868  22.704  0.00  0.00    +0.000 C 
ATOM     26  N   UNL     1       0.043  15.860  23.305  0.00  0.00    +0.000 NA
ENDBRANCH  24  25
ENDBRANCH  17  24
ENDBRANCH  11  17
TORSDOF 6
ENDMDL
MODEL 7
REMARK VINA RESULT:      -6.0      9.686     12.241
REMARK  Name = 
REMARK  8 active torsions:
REMARK  status: ('A' for Active; 'I' for Inactive)
REMARK    1  A    between atoms: C_1  and  C_2
REMARK    2  A    between atoms: C_2  and  C_3
REMARK    3  A    between atoms: C_8  and  C_9
REMARK    4  A    between atoms: C_13  and  N_14
REMARK    5  A    between atoms: N_14  and  C_15
REMARK    6  A    between atoms: N_14  and  C_18
REMARK    7  A    between atoms: C_15  and  C_16
REMARK    8  A    between atoms: C_24  and  O_25
REMARK                            x       y       z     vdW  Elec       q    Type
REMARK                         _______ _______ _______ _____ _____    ______ ____
ROOT
ATOM      1  C   UNL     1       9.815  17.354  17.427  0.00  0.00    +0.000 C 
ATOM      2  C   UNL     1       9.103  16.666  18.608  0.00  0.00    +0.000 C 
ATOM      3  C   UNL     1      10.090  16.702  19.785  0.00  0.00    +0.000 C 
ATOM      4  O   UNL     1       7.955  17.473  18.958  0.00  0.00    +0.000 OA
ATOM      5  C   UNL     1       6.962  16.863  19.686  0.00  0.00    +0.000 A 
ATOM      6  C   UNL     1       5.998  17.716  20.228  0.00  0.00    +0.000 A 
ATOM      7  C   UNL     1       4.913  17.196  20.945  0.00  0.00    +0.000 A 
ATOM      8  C   UNL     1       4.769  15.820  21.111  0.00  0.00    +0.000 A 
ATOM      9  C   UNL     1       5.730  14.962  20.561  0.00  0.00    +0.000 A 
ATOM     10  C   UNL     1       6.842  15.478  19.861  0.00  0.00    +0.000 A 
ATOM     11  C   UNL     1       7.864  14.524  19.276  0.00  0.00    +0.000 C 
ATOM     12  C   UNL     1       8.648  15.256  18.162  0.00  0.00    +0.000 C 
ENDROOT
BRANCH   8  13
ATOM     13  C   UNL     1       3.641  15.281  21.817  0.00  0.00    +0.000 C 
ATOM     14  N   UNL     1       2.730  14.838  22.380  0.00  0.00    +0.000 NA
ENDBRANCH   8  13
BRANCH  12  15
ATOM     15  O   UNL     1       7.802  15.366  16.988  0.00  0.00    +0.000 OA
ATOM     16  H   UNL     1       8.392  15.511  16.224  0.00  0.00    +0.000 HD
ENDBRANCH  12  15
BRANCH  11  17
ATOM     17  N   UNL     1       8.774  13.909  20.276  0.00  0.00    +0.000 N 
BRANCH  17  18
ATOM     18  C   UNL     1       9.811  13.076  19.844  0.00  0.00    +0.000 A 
ATOM     19  C   UNL     1       9.561  11.980  19.000  0.00  0.00    +0.000 A 
ATOM     20  C   UNL     1      10.589  11.137  18.563  0.00  0.00    +0.000 A 
ATOM     21  C   UNL     1      11.903  11.379  18.952  0.00  0.00    +0.000 A 
ATOM     22  C   UNL     1      12.180  12.457  19.779  0.00  0.00    +0.000 A 
ATOM     23  C   UNL     1      11.146  13.291  20.220  0.00  0.00    +0.000 A 
ENDBRANCH  17  18
BRANCH  17  24
ATOM     24  C   UNL     1       8.537  14.003  21.732  0.00  0.00    +0.000 C 
BRANCH  24  25
ATOM     25  C   UNL     1       8.147  12.726  22.365  0.00  0.00    +0.000 C 
ATOM     26  N   UNL     1       7.872  11.734  22.900  0.00  0.00    +0.000 NA
ENDBRANCH  24  25
ENDBRANCH  17  24
ENDBRANCH  11  17
TORSDOF 6
ENDMDL
MODEL 8
REMARK VINA RESULT:      -5.9      8.717     11.923
REMARK  Name = 
REMARK  8 active torsions:
REMARK  status: ('A' for Active; 'I' for Inactive)
REMARK    1  A    between atoms: C_1  and  C_2
REMARK    2  A    between atoms: C_2  and  C_3
REMARK    3  A    between atoms: C_8  and  C_9
REMARK    4  A    between atoms: C_13  and  N_14
REMARK    5  A    between atoms: N_14  and  C_15
REMARK    6  A    between atoms: N_14  and  C_18
REMARK    7  A    between atoms: C_15  and  C_16
REMARK    8  A    between atoms: C_24  and  O_25
REMARK                            x       y       z     vdW  Elec       q    Type
REMARK                         _______ _______ _______ _____ _____    ______ ____
ROOT
ATOM      1  C   UNL     1      -3.150  13.384  22.718  0.00  0.00    +0.000 C 
ATOM      2  C   UNL     1      -1.828  13.122  21.968  0.00  0.00    +0.000 C 
ATOM      3  C   UNL     1      -0.721  13.772  22.812  0.00  0.00    +0.000 C 
ATOM      4  O   UNL     1      -1.607  11.692  21.960  0.00  0.00    +0.000 OA
ATOM      5  C   UNL     1      -0.735  11.203  21.018  0.00  0.00    +0.000 A 
ATOM      6  C   UNL     1      -0.341   9.874  21.191  0.00  0.00    +0.000 A 
ATOM      7  C   UNL     1       0.505   9.258  20.261  0.00  0.00    +0.000 A 
ATOM      8  C   UNL     1       0.952   9.955  19.140  0.00  0.00    +0.000 A 
ATOM      9  C   UNL     1       0.552  11.285  18.960  0.00  0.00    +0.000 A 
ATOM     10  C   UNL     1      -0.279  11.924  19.906  0.00  0.00    +0.000 A 
ATOM     11  C   UNL     1      -0.695  13.363  19.683  0.00  0.00    +0.000 C 
ATOM     12  C   UNL     1      -1.963  13.651  20.521  0.00  0.00    +0.000 C 
ENDROOT
BRANCH   8  13
ATOM     13  C   UNL     1       1.793   9.317  18.168  0.00  0.00    +0.000 C 
ATOM     14  N   UNL     1       2.479   8.799  17.391  0.00  0.00    +0.000 NA
ENDBRANCH   8  13
BRANCH  12  15
ATOM     15  O   UNL     1      -3.103  13.024  19.878  0.00  0.00    +0.000 OA
ATOM     16  H   UNL     1      -3.838  13.042  20.520  0.00  0.00    +0.000 HD
ENDBRANCH  12  15
BRANCH  11  17
ATOM     17  N   UNL     1       0.374  14.361  19.944  0.00  0.00    +0.000 N 
BRANCH  17  18
ATOM     18  C   UNL     1       0.145  15.709  19.650  0.00  0.00    +0.000 A 
ATOM     19  C   UNL     1      -0.305  16.111  18.381  0.00  0.00    +0.000 A 
ATOM     20  C   UNL     1      -0.536  17.458  18.074  0.00  0.00    +0.000 A 
ATOM     21  C   UNL     1      -0.330  18.439  19.039  0.00  0.00    +0.000 A 
ATOM     22  C   UNL     1       0.109  18.069  20.302  0.00  0.00    +0.000 A 
ATOM     23  C   UNL     1       0.345  16.723  20.599  0.00  0.00    +0.000 A 
ENDBRANCH  17  18
BRANCH  17  24
ATOM     24  C   UNL     1       1.742  13.973  20.348  0.00  0.00    +0.000 C 
BRANCH  24  25
ATOM     25  C   UNL     1       2.757  14.142  19.289  0.00  0.00    +0.000 C 
ATOM     26  N   UNL     1       3.530  14.240  18.429  0.00  0.00    +0.000 NA
ENDBRANCH  24  25
ENDBRANCH  17  24
ENDBRANCH  11  17
TORSDOF 6
ENDMDL
MODEL 9
REMARK VINA RESULT:      -5.8     10.906     13.970
REMARK  Name = 
REMARK  8 active torsions:
REMARK  status: ('A' for Active; 'I' for Inactive)
REMARK    1  A    between atoms: C_1  and  C_2
REMARK    2  A    between atoms: C_2  and  C_3
REMARK    3  A    between atoms: C_8  and  C_9
REMARK    4  A    between atoms: C_13  and  N_14
REMARK    5  A    between atoms: N_14  and  C_15
REMARK    6  A    between atoms: N_14  and  C_18
REMARK    7  A    between atoms: C_15  and  C_16
REMARK    8  A    between atoms: C_24  and  O_25
REMARK                            x       y       z     vdW  Elec       q    Type
REMARK                         _______ _______ _______ _____ _____    ______ ____
ROOT
ATOM      1  C   UNL     1      -6.793  15.687  21.605  0.00  0.00    +0.000 C 
ATOM      2  C   UNL     1      -5.740  14.565  21.517  0.00  0.00    +0.000 C 
ATOM      3  C   UNL     1      -5.952  13.681  22.756  0.00  0.00    +0.000 C 
ATOM      4  O   UNL     1      -6.040  13.775  20.344  0.00  0.00    +0.000 OA
ATOM      5  C   UNL     1      -5.027  12.995  19.842  0.00  0.00    +0.000 A 
ATOM      6  C   UNL     1      -5.405  12.056  18.880  0.00  0.00    +0.000 A 
ATOM      7  C   UNL     1      -4.445  11.244  18.264  0.00  0.00    +0.000 A 
ATOM      8  C   UNL     1      -3.095  11.373  18.588  0.00  0.00    +0.000 A 
ATOM      9  C   UNL     1      -2.712  12.319  19.548  0.00  0.00    +0.000 A 
ATOM     10  C   UNL     1      -3.676  13.124  20.194  0.00  0.00    +0.000 A 
ATOM     11  C   UNL     1      -3.230  14.139  21.226  0.00  0.00    +0.000 C 
ATOM     12  C   UNL     1      -4.339  15.206  21.387  0.00  0.00    +0.000 C 
ENDROOT
BRANCH   8  13
ATOM     13  C   UNL     1      -2.105  10.565  17.937  0.00  0.00    +0.000 C 
ATOM     14  N   UNL     1      -1.307   9.905  17.416  0.00  0.00    +0.000 NA
ENDBRANCH   8  13
BRANCH  12  15
ATOM     15  O   UNL     1      -4.312  16.087  20.234  0.00  0.00    +0.000 OA
ATOM     16  H   UNL     1      -4.977  16.784  20.392  0.00  0.00    +0.000 HD
ENDBRANCH  12  15
BRANCH  11  17
ATOM     17  N   UNL     1      -2.836  13.555  22.533  0.00  0.00    +0.000 N 
BRANCH  17  18
ATOM     18  C   UNL     1      -2.292  14.382  23.522  0.00  0.00    +0.000 A 
ATOM     19  C   UNL     1      -1.123  15.125  23.288  0.00  0.00    +0.000 A 
ATOM     20  C   UNL     1      -0.568  15.954  24.269  0.00  0.00    +0.000 A 
ATOM     21  C   UNL     1      -1.179  16.069  25.514  0.00  0.00    +0.000 A 
ATOM     22  C   UNL     1      -2.338  15.351  25.771  0.00  0.00    +0.000 A 
ATOM     23  C   UNL     1      -2.883  14.518  24.788  0.00  0.00    +0.000 A 
ENDBRANCH  17  18
BRANCH  17  24
ATOM     24  C   UNL     1      -2.837  12.099  22.787  0.00  0.00    +0.000 C 
BRANCH  24  25
ATOM     25  C   UNL     1      -1.491  11.514  22.963  0.00  0.00    +0.000 C 
ATOM     26  N   UNL     1      -0.427  11.061  23.052  0.00  0.00    +0.000 NA
ENDBRANCH  24  25
ENDBRANCH  17  24
ENDBRANCH  11  17
TORSDOF 6
ENDMDL
