MODEL 1
REMARK VINA RESULT:      -7.5      0.000      0.000
REMARK  Name = 
REMARK  2 active torsions:
REMARK  status: ('A' for Active; 'I' for Inactive)
REMARK    1  A    between atoms: C_17  and  O_18
REMARK    2  A    between atoms: N_22  and  O_23
REMARK                            x       y       z     vdW  Elec       q    Type
REMARK                         _______ _______ _______ _____ _____    ______ ____
ROOT
ATOM      1  O   UNL     1       4.851   6.932  16.024  0.00  0.00    +0.000 OA
ATOM      2  C   UNL     1       4.387   6.067  16.745  0.00  0.00    +0.000 C 
ATOM      3  N   UNL     1       4.783   4.732  16.824  0.00  0.00    +0.000 N 
ATOM      4  C   UNL     1       3.966   4.022  17.703  0.00  0.00    +0.000 A 
ATOM      5  C   UNL     1       4.066   2.696  18.079  0.00  0.00    +0.000 A 
ATOM      6  C   UNL     1       3.112   2.213  18.985  0.00  0.00    +0.000 A 
ATOM      7  C   UNL     1       2.035   3.018  19.382  0.00  0.00    +0.000 A 
ATOM      8 CL   UNL     1       0.905   2.438  20.544  0.00  0.00    +0.000 Cl
ATOM      9  C   UNL     1       1.906   4.319  18.910  0.00  0.00    +0.000 A 
ATOM     10  C   UNL     1       2.956   4.853  18.190  0.00  0.00    +0.000 A 
ATOM     11  C   UNL     1       3.282   6.210  17.756  0.00  0.00    +0.000 C 
ATOM     12  C   UNL     1       2.874   7.404  18.219  0.00  0.00    +0.000 C 
ATOM     13  N   UNL     1       3.124   8.674  17.687  0.00  0.00    +0.000 N 
ATOM     14  C   UNL     1       2.191   9.579  18.189  0.00  0.00    +0.000 A 
ATOM     15  C   UNL     1       2.073  10.937  17.974  0.00  0.00    +0.000 A 
ATOM     16  C   UNL     1       1.156  11.667  18.763  0.00  0.00    +0.000 A 
ATOM     17  C   UNL     1       0.385  11.024  19.748  0.00  0.00    +0.000 A 
ATOM     18  C   UNL     1       0.501   9.666  19.973  0.00  0.00    +0.000 A 
ATOM     19  C   UNL     1       1.417   8.989  19.192  0.00  0.00    +0.000 A 
ATOM     20  C   UNL     1       1.930   7.631  19.405  0.00  0.00    +0.000 C 
ATOM     21  N   UNL     1       1.627   7.073  20.527  0.00  0.00    +0.000 NA
ATOM     22  H   UNL     1       5.541   4.346  16.282  0.00  0.00    +0.000 HD
ATOM     23  H   UNL     1       3.524   8.747  16.753  0.00  0.00    +0.000 HD
ENDROOT
BRANCH  17  24
ATOM     24  O   UNL     1      -0.470  11.708  20.553  0.00  0.00    +0.000 OA
ATOM     25  H   UNL     1      -1.141  12.151  20.009  0.00  0.00    +0.000 HD
ENDBRANCH  17  24
BRANCH  21  26
ATOM     26  O   UNL     1       2.472   6.023  20.876  0.00  0.00    +0.000 OA
ATOM     27  H   UNL     1       2.025   5.264  20.456  0.00  0.00    +0.000 HD
ENDBRANCH  21  26
TORSDOF 2
ENDMDL
MODEL 2
REMARK VINA RESULT:      -7.1      2.382      3.661
REMARK  Name = 
REMARK  2 active torsions:
REMARK  status: ('A' for Active; 'I' for Inactive)
REMARK    1  A    between atoms: C_17  and  O_18
REMARK    2  A    between atoms: N_22  and  O_23
REMARK                            x       y       z     vdW  Elec       q    Type
REMARK                         _______ _______ _______ _____ _____    ______ ____
ROOT
ATOM      1  O   UNL     1       2.178   4.296  21.691  0.00  0.00    +0.000 OA
ATOM      2  C   UNL     1       2.664   4.502  20.592  0.00  0.00    +0.000 C 
ATOM      3  N   UNL     1       3.257   3.567  19.744  0.00  0.00    +0.000 N 
ATOM      4  C   UNL     1       3.774   4.186  18.607  0.00  0.00    +0.000 A 
ATOM      5  C   UNL     1       4.393   3.596  17.520  0.00  0.00    +0.000 A 
ATOM      6  C   UNL     1       4.829   4.444  16.493  0.00  0.00    +0.000 A 
ATOM      7  C   UNL     1       4.750   5.836  16.636  0.00  0.00    +0.000 A 
ATOM      8 CL   UNL     1       5.230   6.866  15.344  0.00  0.00    +0.000 Cl
ATOM      9  C   UNL     1       4.212   6.404  17.785  0.00  0.00    +0.000 A 
ATOM     10  C   UNL     1       3.595   5.567  18.693  0.00  0.00    +0.000 A 
ATOM     11  C   UNL     1       2.734   5.808  19.849  0.00  0.00    +0.000 C 
ATOM     12  C   UNL     1       1.976   6.868  20.176  0.00  0.00    +0.000 C 
ATOM     13  N   UNL     1       1.264   7.096  21.358  0.00  0.00    +0.000 N 
ATOM     14  C   UNL     1       0.984   8.455  21.478  0.00  0.00    +0.000 A 
ATOM     15  C   UNL     1       0.277   9.130  22.453  0.00  0.00    +0.000 A 
ATOM     16  C   UNL     1      -0.037  10.491  22.238  0.00  0.00    +0.000 A 
ATOM     17  C   UNL     1       0.358  11.140  21.055  0.00  0.00    +0.000 A 
ATOM     18  C   UNL     1       1.061  10.471  20.072  0.00  0.00    +0.000 A 
ATOM     19  C   UNL     1       1.337   9.140  20.312  0.00  0.00    +0.000 A 
ATOM     20  C   UNL     1       1.813   8.145  19.343  0.00  0.00    +0.000 C 
ATOM     21  N   UNL     1       1.810   8.504  18.105  0.00  0.00    +0.000 NA
ATOM     22  H   UNL     1       3.323   2.585  19.962  0.00  0.00    +0.000 HD
ATOM     23  H   UNL     1       1.431   6.490  22.160  0.00  0.00    +0.000 HD
ENDROOT
BRANCH  17  24
ATOM     24  O   UNL     1       0.029  12.434  20.800  0.00  0.00    +0.000 OA
ATOM     25  H   UNL     1       0.765  12.870  20.341  0.00  0.00    +0.000 HD
ENDBRANCH  17  24
BRANCH  21  26
ATOM     26  O   UNL     1       1.824   7.436  17.213  0.00  0.00    +0.000 OA
ATOM     27  H   UNL     1       2.325   6.765  17.717  0.00  0.00    +0.000 HD
ENDBRANCH  21  26
TORSDOF 2
ENDMDL
MODEL 3
REMARK VINA RESULT:      -7.1      4.444      5.906
REMARK  Name = 
REMARK  2 active torsions:
REMARK  status: ('A' for Active; 'I' for Inactive)
REMARK    1  A    between atoms: C_17  and  O_18
REMARK    2  A    between atoms: N_22  and  O_23
REMARK                            x       y       z     vdW  Elec       q    Type
REMARK                         _______ _______ _______ _____ _____    ______ ____
ROOT
ATOM      1  O   UNL     1       6.858   7.059  18.158  0.00  0.00    +0.000 OA
ATOM      2  C   UNL     1       6.789   6.383  17.147  0.00  0.00    +0.000 C 
ATOM      3  N   UNL     1       7.713   6.328  16.104  0.00  0.00    +0.000 N 
ATOM      4  C   UNL     1       7.255   5.504  15.077  0.00  0.00    +0.000 A 
ATOM      5  C   UNL     1       7.900   5.165  13.902  0.00  0.00    +0.000 A 
ATOM      6  C   UNL     1       7.222   4.311  13.021  0.00  0.00    +0.000 A 
ATOM      7  C   UNL     1       5.896   3.933  13.276  0.00  0.00    +0.000 A 
ATOM      8 CL   UNL     1       5.093   2.835  12.221  0.00  0.00    +0.000 Cl
ATOM      9  C   UNL     1       5.237   4.371  14.419  0.00  0.00    +0.000 A 
ATOM     10  C   UNL     1       5.977   5.032  15.379  0.00  0.00    +0.000 A 
ATOM     11  C   UNL     1       5.705   5.413  16.763  0.00  0.00    +0.000 C 
ATOM     12  C   UNL     1       4.818   4.931  17.651  0.00  0.00    +0.000 C 
ATOM     13  N   UNL     1       4.516   5.414  18.928  0.00  0.00    +0.000 N 
ATOM     14  C   UNL     1       3.276   4.922  19.330  0.00  0.00    +0.000 A 
ATOM     15  C   UNL     1       2.597   5.101  20.518  0.00  0.00    +0.000 A 
ATOM     16  C   UNL     1       1.438   4.327  20.755  0.00  0.00    +0.000 A 
ATOM     17  C   UNL     1       0.992   3.394  19.803  0.00  0.00    +0.000 A 
ATOM     18  C   UNL     1       1.669   3.205  18.614  0.00  0.00    +0.000 A 
ATOM     19  C   UNL     1       2.803   3.969  18.424  0.00  0.00    +0.000 A 
ATOM     20  C   UNL     1       3.840   3.777  17.403  0.00  0.00    +0.000 C 
ATOM     21  N   UNL     1       3.777   2.684  16.721  0.00  0.00    +0.000 NA
ATOM     22  H   UNL     1       8.575   6.851  16.099  0.00  0.00    +0.000 HD
ATOM     23  H   UNL     1       4.869   6.328  19.206  0.00  0.00    +0.000 HD
ENDROOT
BRANCH  17  24
ATOM     24  O   UNL     1      -0.091   2.603  20.024  0.00  0.00    +0.000 OA
ATOM     25  H   UNL     1      -0.809   2.863  19.425  0.00  0.00    +0.000 HD
ENDBRANCH  17  24
BRANCH  21  26
ATOM     26  O   UNL     1       4.980   2.334  16.114  0.00  0.00    +0.000 OA
ATOM     27  H   UNL     1       5.447   1.889  16.847  0.00  0.00    +0.000 HD
ENDBRANCH  21  26
TORSDOF 2
ENDMDL
MODEL 4
REMARK VINA RESULT:      -6.9      3.119      7.186
REMARK  Name = 
REMARK  2 active torsions:
REMARK  status: ('A' for Active; 'I' for Inactive)
REMARK    1  A    between atoms: C_17  and  O_18
REMARK    2  A    between atoms: N_22  and  O_23
REMARK                            x       y       z     vdW  Elec       q    Type
REMARK                         _______ _______ _______ _____ _____    ______ ____
ROOT
ATOM      1  O   UNL     1       0.945   9.088  22.898  0.00  0.00    +0.000 OA
ATOM      2  C   UNL     1       0.429   9.667  21.958  0.00  0.00    +0.000 C 
ATOM      3  N   UNL     1      -0.345  10.825  22.003  0.00  0.00    +0.000 N 
ATOM      4  C   UNL     1      -0.834  11.147  20.738  0.00  0.00    +0.000 A 
ATOM      5  C   UNL     1      -1.598  12.238  20.370  0.00  0.00    +0.000 A 
ATOM      6  C   UNL     1      -1.967  12.337  19.021  0.00  0.00    +0.000 A 
ATOM      7  C   UNL     1      -1.675  11.299  18.125  0.00  0.00    +0.000 A 
ATOM      8 CL   UNL     1      -2.077  11.457  16.459  0.00  0.00    +0.000 Cl
ATOM      9  C   UNL     1      -0.990  10.165  18.547  0.00  0.00    +0.000 A 
ATOM     10  C   UNL     1      -0.449  10.172  19.817  0.00  0.00    +0.000 A 
ATOM     11  C   UNL     1       0.507   9.302  20.500  0.00  0.00    +0.000 C 
ATOM     12  C   UNL     1       1.430   8.456  20.014  0.00  0.00    +0.000 C 
ATOM     13  N   UNL     1       2.239   7.555  20.715  0.00  0.00    +0.000 N 
ATOM     14  C   UNL     1       2.723   6.586  19.840  0.00  0.00    +0.000 A 
ATOM     15  C   UNL     1       3.579   5.529  20.075  0.00  0.00    +0.000 A 
ATOM     16  C   UNL     1       4.075   4.803  18.969  0.00  0.00    +0.000 A 
ATOM     17  C   UNL     1       3.708   5.154  17.658  0.00  0.00    +0.000 A 
ATOM     18  C   UNL     1       2.857   6.214  17.413  0.00  0.00    +0.000 A 
ATOM     19  C   UNL     1       2.403   6.907  18.517  0.00  0.00    +0.000 A 
ATOM     20  C   UNL     1       1.728   8.210  18.530  0.00  0.00    +0.000 C 
ATOM     21  N   UNL     1       1.708   8.856  17.415  0.00  0.00    +0.000 NA
ATOM     22  H   UNL     1      -0.541  11.328  22.856  0.00  0.00    +0.000 HD
ATOM     23  H   UNL     1       2.033   7.368  21.695  0.00  0.00    +0.000 HD
ENDROOT
BRANCH  17  24
ATOM     24  O   UNL     1       4.207   4.506  16.573  0.00  0.00    +0.000 OA
ATOM     25  H   UNL     1       3.811   3.621  16.515  0.00  0.00    +0.000 HD
ENDBRANCH  17  24
BRANCH  21  26
ATOM     26  O   UNL     1       1.483  10.222  17.563  0.00  0.00    +0.000 OA
ATOM     27  H   UNL     1       2.135  10.597  16.940  0.00  0.00    +0.000 HD
ENDBRANCH  21  26
TORSDOF 2
ENDMDL
MODEL 5
REMARK VINA RESULT:      -6.7      7.150      9.573
REMARK  Name = 
REMARK  2 active torsions:
REMARK  status: ('A' for Active; 'I' for Inactive)
REMARK    1  A    between atoms: C_17  and  O_18
REMARK    2  A    between atoms: N_22  and  O_23
REMARK                            x       y       z     vdW  Elec       q    Type
REMARK                         _______ _______ _______ _____ _____    ______ ____
ROOT
ATOM      1  O   UNL     1      -7.311  12.522  18.133  0.00  0.00    +0.000 OA
ATOM      2  C   UNL     1      -6.191  12.115  17.876  0.00  0.00    +0.000 C 
ATOM      3  N   UNL     1      -5.745  11.576  16.670  0.00  0.00    +0.000 N 
ATOM      4  C   UNL     1      -4.424  11.145  16.777  0.00  0.00    +0.000 A 
ATOM      5  C   UNL     1      -3.621  10.599  15.793  0.00  0.00    +0.000 A 
ATOM      6  C   UNL     1      -2.315  10.241  16.156  0.00  0.00    +0.000 A 
ATOM      7  C   UNL     1      -1.900  10.320  17.492  0.00  0.00    +0.000 A 
ATOM      8 CL   UNL     1      -0.277   9.938  17.917  0.00  0.00    +0.000 Cl
ATOM      9  C   UNL     1      -2.763  10.781  18.480  0.00  0.00    +0.000 A 
ATOM     10  C   UNL     1      -3.967  11.327  18.083  0.00  0.00    +0.000 A 
ATOM     11  C   UNL     1      -4.989  12.107  18.780  0.00  0.00    +0.000 C 
ATOM     12  C   UNL     1      -4.919  12.847  19.900  0.00  0.00    +0.000 C 
ATOM     13  N   UNL     1      -5.959  13.477  20.591  0.00  0.00    +0.000 N 
ATOM     14  C   UNL     1      -5.549  13.757  21.893  0.00  0.00    +0.000 A 
ATOM     15  C   UNL     1      -6.222  14.399  22.913  0.00  0.00    +0.000 A 
ATOM     16  C   UNL     1      -5.507  14.736  24.084  0.00  0.00    +0.000 A 
ATOM     17  C   UNL     1      -4.140  14.429  24.204  0.00  0.00    +0.000 A 
ATOM     18  C   UNL     1      -3.458  13.792  23.186  0.00  0.00    +0.000 A 
ATOM     19  C   UNL     1      -4.187  13.491  22.052  0.00  0.00    +0.000 A 
ATOM     20  C   UNL     1      -3.662  13.077  20.746  0.00  0.00    +0.000 C 
ATOM     21  N   UNL     1      -2.386  13.169  20.586  0.00  0.00    +0.000 NA
ATOM     22  H   UNL     1      -6.329  11.489  15.853  0.00  0.00    +0.000 HD
ATOM     23  H   UNL     1      -6.922  13.249  20.348  0.00  0.00    +0.000 HD
ENDROOT
BRANCH  17  24
ATOM     24  O   UNL     1      -3.417  14.783  25.298  0.00  0.00    +0.000 OA
ATOM     25  H   UNL     1      -2.775  15.469  25.053  0.00  0.00    +0.000 HD
ENDBRANCH  17  24
BRANCH  21  26
ATOM     26  O   UNL     1      -1.991  13.210  19.252  0.00  0.00    +0.000 OA
ATOM     27  H   UNL     1      -1.056  12.935  19.315  0.00  0.00    +0.000 HD
ENDBRANCH  21  26
TORSDOF 2
ENDMDL
MODEL 6
REMARK VINA RESULT:      -6.6      1.421      1.718
REMARK  Name = 
REMARK  2 active torsions:
REMARK  status: ('A' for Active; 'I' for Inactive)
REMARK    1  A    between atoms: C_17  and  O_18
REMARK    2  A    between atoms: N_22  and  O_23
REMARK                            x       y       z     vdW  Elec       q    Type
REMARK                         _______ _______ _______ _____ _____    ______ ____
ROOT
ATOM      1  O   UNL     1       3.931   8.153  16.760  0.00  0.00    +0.000 OA
ATOM      2  C   UNL     1       3.734   7.018  17.159  0.00  0.00    +0.000 C 
ATOM      3  N   UNL     1       4.340   5.848  16.705  0.00  0.00    +0.000 N 
ATOM      4  C   UNL     1       3.802   4.730  17.342  0.00  0.00    +0.000 A 
ATOM      5  C   UNL     1       4.168   3.405  17.196  0.00  0.00    +0.000 A 
ATOM      6  C   UNL     1       3.466   2.458  17.955  0.00  0.00    +0.000 A 
ATOM      7  C   UNL     1       2.359   2.842  18.724  0.00  0.00    +0.000 A 
ATOM      8 CL   UNL     1       1.543   1.683  19.701  0.00  0.00    +0.000 Cl
ATOM      9  C   UNL     1       1.952   4.170  18.775  0.00  0.00    +0.000 A 
ATOM     10  C   UNL     1       2.771   5.120  18.198  0.00  0.00    +0.000 A 
ATOM     11  C   UNL     1       2.804   6.580  18.258  0.00  0.00    +0.000 C 
ATOM     12  C   UNL     1       2.300   7.435  19.164  0.00  0.00    +0.000 C 
ATOM     13  N   UNL     1       2.256   8.832  19.110  0.00  0.00    +0.000 N 
ATOM     14  C   UNL     1       1.292   9.302  19.998  0.00  0.00    +0.000 A 
ATOM     15  C   UNL     1       0.930  10.597  20.307  0.00  0.00    +0.000 A 
ATOM     16  C   UNL     1       0.055  10.812  21.396  0.00  0.00    +0.000 A 
ATOM     17  C   UNL     1      -0.431   9.729  22.150  0.00  0.00    +0.000 A 
ATOM     18  C   UNL     1      -0.069   8.430  21.851  0.00  0.00    +0.000 A 
ATOM     19  C   UNL     1       0.797   8.261  20.790  0.00  0.00    +0.000 A 
ATOM     20  C   UNL     1       1.543   7.047  20.439  0.00  0.00    +0.000 C 
ATOM     21  N   UNL     1       1.523   6.092  21.305  0.00  0.00    +0.000 NA
ATOM     22  H   UNL     1       5.047   5.833  15.986  0.00  0.00    +0.000 HD
ATOM     23  H   UNL     1       2.478   9.299  18.232  0.00  0.00    +0.000 HD
ENDROOT
BRANCH  17  24
ATOM     24  O   UNL     1      -1.235   9.908  23.230  0.00  0.00    +0.000 OA
ATOM     25  H   UNL     1      -0.907  10.654  23.758  0.00  0.00    +0.000 HD
ENDBRANCH  17  24
BRANCH  21  26
ATOM     26  O   UNL     1       2.567   5.183  21.160  0.00  0.00    +0.000 OA
ATOM     27  H   UNL     1       3.334   5.718  21.441  0.00  0.00    +0.000 HD
ENDBRANCH  21  26
TORSDOF 2
ENDMDL
MODEL 7
REMARK VINA RESULT:      -6.5      9.648     11.045
REMARK  Name = 
REMARK  2 active torsions:
REMARK  status: ('A' for Active; 'I' for Inactive)
REMARK    1  A    between atoms: C_17  and  O_18
REMARK    2  A    between atoms: N_22  and  O_23
REMARK                            x       y       z     vdW  Elec       q    Type
REMARK                         _______ _______ _______ _____ _____    ______ ____
ROOT
ATOM      1  O   UNL     1       9.363   9.950  19.526  0.00  0.00    +0.000 OA
ATOM      2  C   UNL     1       9.819  11.019  19.160  0.00  0.00    +0.000 C 
ATOM      3  N   UNL     1      10.316  11.337  17.896  0.00  0.00    +0.000 N 
ATOM      4  C   UNL     1      10.828  12.633  17.875  0.00  0.00    +0.000 A 
ATOM      5  C   UNL     1      11.364  13.321  16.802  0.00  0.00    +0.000 A 
ATOM      6  C   UNL     1      11.816  14.627  17.040  0.00  0.00    +0.000 A 
ATOM      7  C   UNL     1      11.835  15.148  18.341  0.00  0.00    +0.000 A 
ATOM      8 CL   UNL     1      12.333  16.773  18.613  0.00  0.00    +0.000 Cl
ATOM      9  C   UNL     1      11.381  14.395  19.417  0.00  0.00    +0.000 A 
ATOM     10  C   UNL     1      10.745  13.199  19.147  0.00  0.00    +0.000 A 
ATOM     11  C   UNL     1       9.947  12.286  19.962  0.00  0.00    +0.000 C 
ATOM     12  C   UNL     1       9.275  12.488  21.108  0.00  0.00    +0.000 C 
ATOM     13  N   UNL     1       8.625  11.545  21.913  0.00  0.00    +0.000 N 
ATOM     14  C   UNL     1       8.441  12.071  23.189  0.00  0.00    +0.000 A 
ATOM     15  C   UNL     1       7.819  11.521  24.291  0.00  0.00    +0.000 A 
ATOM     16  C   UNL     1       7.589  12.344  25.416  0.00  0.00    +0.000 A 
ATOM     17  C   UNL     1       7.980  13.694  25.410  0.00  0.00    +0.000 A 
ATOM     18  C   UNL     1       8.598  14.255  24.309  0.00  0.00    +0.000 A 
ATOM     19  C   UNL     1       8.794  13.423  23.224  0.00  0.00    +0.000 A 
ATOM     20  C   UNL     1       9.165  13.819  21.860  0.00  0.00    +0.000 C 
ATOM     21  N   UNL     1       9.138  15.082  21.603  0.00  0.00    +0.000 NA
ATOM     22  H   UNL     1      10.324  10.686  17.125  0.00  0.00    +0.000 HD
ATOM     23  H   UNL     1       8.783  10.554  21.736  0.00  0.00    +0.000 HD
ENDROOT
BRANCH  17  24
ATOM     24  O   UNL     1       7.729  14.521  26.458  0.00  0.00    +0.000 OA
ATOM     25  H   UNL     1       7.557  13.992  27.254  0.00  0.00    +0.000 HD
ENDBRANCH  17  24
BRANCH  21  26
ATOM     26  O   UNL     1       9.047  15.374  20.245  0.00  0.00    +0.000 OA
ATOM     27  H   UNL     1       9.701  16.093  20.154  0.00  0.00    +0.000 HD
ENDBRANCH  21  26
TORSDOF 2
ENDMDL
MODEL 8
REMARK VINA RESULT:      -6.5      5.081      7.570
REMARK  Name = 
REMARK  2 active torsions:
REMARK  status: ('A' for Active; 'I' for Inactive)
REMARK    1  A    between atoms: C_17  and  O_18
REMARK    2  A    between atoms: N_22  and  O_23
REMARK                            x       y       z     vdW  Elec       q    Type
REMARK                         _______ _______ _______ _____ _____    ______ ____
ROOT
ATOM      1  O   UNL     1      -3.282  11.538  16.807  0.00  0.00    +0.000 OA
ATOM      2  C   UNL     1      -2.352  11.137  17.484  0.00  0.00    +0.000 C 
ATOM      3  N   UNL     1      -1.217  10.457  17.042  0.00  0.00    +0.000 N 
ATOM      4  C   UNL     1      -0.410  10.085  18.116  0.00  0.00    +0.000 A 
ATOM      5  C   UNL     1       0.811   9.440  18.083  0.00  0.00    +0.000 A 
ATOM      6  C   UNL     1       1.430   9.174  19.313  0.00  0.00    +0.000 A 
ATOM      7  C   UNL     1       0.765   9.442  20.517  0.00  0.00    +0.000 A 
ATOM      8 CL   UNL     1       1.557   9.171  22.021  0.00  0.00    +0.000 Cl
ATOM      9  C   UNL     1      -0.507  10.002  20.519  0.00  0.00    +0.000 A 
ATOM     10  C   UNL     1      -1.017  10.453  19.318  0.00  0.00    +0.000 A 
ATOM     11  C   UNL     1      -2.167  11.286  18.970  0.00  0.00    +0.000 C 
ATOM     12  C   UNL     1      -2.867  12.169  19.702  0.00  0.00    +0.000 C 
ATOM     13  N   UNL     1      -4.037  12.852  19.354  0.00  0.00    +0.000 N 
ATOM     14  C   UNL     1      -4.666  13.315  20.508  0.00  0.00    +0.000 A 
ATOM     15  C   UNL     1      -5.816  14.065  20.648  0.00  0.00    +0.000 A 
ATOM     16  C   UNL     1      -6.135  14.576  21.926  0.00  0.00    +0.000 A 
ATOM     17  C   UNL     1      -5.297  14.331  23.027  0.00  0.00    +0.000 A 
ATOM     18  C   UNL     1      -4.141  13.587  22.894  0.00  0.00    +0.000 A 
ATOM     19  C   UNL     1      -3.855  13.115  21.628  0.00  0.00    +0.000 A 
ATOM     20  C   UNL     1      -2.585  12.549  21.160  0.00  0.00    +0.000 C 
ATOM     21  N   UNL     1      -1.579  12.659  21.959  0.00  0.00    +0.000 NA
ATOM     22  H   UNL     1      -1.042  10.244  16.072  0.00  0.00    +0.000 HD
ATOM     23  H   UNL     1      -4.547  12.565  18.520  0.00  0.00    +0.000 HD
ENDROOT
BRANCH  17  24
ATOM     24  O   UNL     1      -5.554  14.850  24.256  0.00  0.00    +0.000 OA
ATOM     25  H   UNL     1      -6.411  14.522  24.574  0.00  0.00    +0.000 HD
ENDBRANCH  17  24
BRANCH  21  26
ATOM     26  O   UNL     1      -0.346  12.535  21.326  0.00  0.00    +0.000 OA
ATOM     27  H   UNL     1      -0.595  12.081  20.498  0.00  0.00    +0.000 HD
ENDBRANCH  21  26
TORSDOF 2
ENDMDL
MODEL 9
REMARK VINA RESULT:      -6.4      4.446      6.903
REMARK  Name = 
REMARK  2 active torsions:
REMARK  status: ('A' for Active; 'I' for Inactive)
REMARK    1  A    between atoms: C_17  and  O_18
REMARK    2  A    between atoms: N_22  and  O_23
REMARK                            x       y       z     vdW  Elec       q    Type
REMARK                         _______ _______ _______ _____ _____    ______ ____
ROOT
ATOM      1  O   UNL     1      -0.524  13.905  18.422  0.00  0.00    +0.000 OA
ATOM      2  C   UNL     1      -0.046  12.822  18.709  0.00  0.00    +0.000 C 
ATOM      3  N   UNL     1       0.980  12.150  18.045  0.00  0.00    +0.000 N 
ATOM      4  C   UNL     1       1.203  10.897  18.613  0.00  0.00    +0.000 A 
ATOM      5  C   UNL     1       2.158   9.960  18.266  0.00  0.00    +0.000 A 
ATOM      6  C   UNL     1       2.178   8.764  18.997  0.00  0.00    +0.000 A 
ATOM      7  C   UNL     1       1.184   8.493  19.947  0.00  0.00    +0.000 A 
ATOM      8 CL   UNL     1       1.252   7.050  20.882  0.00  0.00    +0.000 Cl
ATOM      9  C   UNL     1       0.175   9.415  20.205  0.00  0.00    +0.000 A 
ATOM     10  C   UNL     1       0.285  10.669  19.639  0.00  0.00    +0.000 A 
ATOM     11  C   UNL     1      -0.416  11.931  19.864  0.00  0.00    +0.000 C 
ATOM     12  C   UNL     1      -1.118  12.372  20.922  0.00  0.00    +0.000 C 
ATOM     13  N   UNL     1      -1.872  13.544  21.037  0.00  0.00    +0.000 N 
ATOM     14  C   UNL     1      -2.769  13.418  22.096  0.00  0.00    +0.000 A 
ATOM     15  C   UNL     1      -3.677  14.327  22.599  0.00  0.00    +0.000 A 
ATOM     16  C   UNL     1      -4.334  14.022  23.812  0.00  0.00    +0.000 A 
ATOM     17  C   UNL     1      -4.064  12.823  24.493  0.00  0.00    +0.000 A 
ATOM     18  C   UNL     1      -3.152  11.910  23.999  0.00  0.00    +0.000 A 
ATOM     19  C   UNL     1      -2.521  12.248  22.819  0.00  0.00    +0.000 A 
ATOM     20  C   UNL     1      -1.337  11.609  22.233  0.00  0.00    +0.000 C 
ATOM     21  N   UNL     1      -0.719  10.756  22.977  0.00  0.00    +0.000 NA
ATOM     22  H   UNL     1       1.459  12.527  17.241  0.00  0.00    +0.000 HD
ATOM     23  H   UNL     1      -2.074  14.085  20.198  0.00  0.00    +0.000 HD
ENDROOT
BRANCH  17  24
ATOM     24  O   UNL     1      -4.645  12.525  25.685  0.00  0.00    +0.000 OA
ATOM     25  H   UNL     1      -5.087  11.663  25.623  0.00  0.00    +0.000 HD
ENDBRANCH  17  24
BRANCH  21  26
ATOM     26  O   UNL     1       0.598  10.526  22.588  0.00  0.00    +0.000 OA
ATOM     27  H   UNL     1       0.667   9.557  22.692  0.00  0.00    +0.000 HD
ENDBRANCH  21  26
TORSDOF 2
ENDMDL
