MODEL 1
REMARK VINA RESULT:      -7.5      0.000      0.000
REMARK  Name = 
REMARK  17 active torsions:
REMARK  status: ('A' for Active; 'I' for Inactive)
REMARK    1  A    between atoms: C_1  and  O_2
REMARK    2  A    between atoms: O_2  and  C_3
REMARK    3  A    between atoms: C_6  and  C_7
REMARK    4  A    between atoms: C_7  and  C_8
REMARK    5  A    between atoms: C_8  and  C_9
REMARK    6  A    between atoms: C_9  and  C_10
REMARK    7  A    between atoms: C_9  and  C_11
REMARK    8  A    between atoms: C_9  and  C_12
REMARK    9  A    between atoms: C_13  and  N_14
REMARK   10  A    between atoms: C_17  and  C_18
REMARK   11  A    between atoms: C_18  and  O_19
REMARK   12  A    between atoms: O_19  and  C_20
REMARK   13  A    between atoms: C_24  and  C_25
REMARK   14  A    between atoms: C_25  and  C_26
REMARK   15  A    between atoms: C_25  and  C_30
REMARK   16  A    between atoms: C_26  and  C_27
REMARK   17  A    between atoms: C_27  and  O_29
REMARK                            x       y       z     vdW  Elec       q    Type
REMARK                         _______ _______ _______ _____ _____    ______ ____
ROOT
ATOM      1  N   UNL     1       0.783  11.351  19.572  0.00  0.00    +0.000 N 
ATOM      2  C   UNL     1       1.968  11.426  18.722  0.00  0.00    +0.000 C 
ATOM      3  C   UNL     1       1.802  10.368  17.641  0.00  0.00    +0.000 C 
ATOM      4  C   UNL     1       1.499   8.957  18.195  0.00  0.00    +0.000 C 
ATOM      5  C   UNL     1       0.600   8.941  19.450  0.00  0.00    +0.000 C 
ATOM      6  C   UNL     1       0.758  10.141  20.392  0.00  0.00    +0.000 C 
ENDROOT
BRANCH   1  11
ATOM      7  C   UNL     1       0.605  14.711  21.166  0.00  0.00    +0.000 A 
ATOM      8  C   UNL     1      -0.754  14.982  21.075  0.00  0.00    +0.000 A 
ATOM      9  C   UNL     1      -1.616  14.047  20.507  0.00  0.00    +0.000 A 
ATOM     10  C   UNL     1      -1.136  12.833  19.978  0.00  0.00    +0.000 A 
ATOM     11  C   UNL     1       0.244  12.525  20.100  0.00  0.00    +0.000 A 
ATOM     12  C   UNL     1       1.084  13.486  20.701  0.00  0.00    +0.000 A 
BRANCH   7  14
ATOM     13  C   UNL     1       2.221  16.418  20.843  0.00  0.00    +0.000 C 
ATOM     14  O   UNL     1       1.358  15.709  21.722  0.00  0.00    +0.000 OA
ENDBRANCH   7  14
BRANCH  10  15
ATOM     15  C   UNL     1      -2.129  11.921  19.281  0.00  0.00    +0.000 C 
BRANCH  15  16
ATOM     16  C   UNL     1      -2.153  11.938  17.737  0.00  0.00    +0.000 C 
BRANCH  16  17
ATOM     17  C   UNL     1      -3.194  11.051  16.995  0.00  0.00    +0.000 C 
ATOM     18  C   UNL     1      -2.769  10.797  15.539  0.00  0.00    +0.000 C 
ATOM     19  C   UNL     1      -3.254   9.694  17.731  0.00  0.00    +0.000 C 
ATOM     20  C   UNL     1      -4.608  11.648  17.002  0.00  0.00    +0.000 C 
ENDBRANCH  16  17
ENDBRANCH  15  16
ENDBRANCH  10  15
ENDBRANCH   1  11
BRANCH   4  21
ATOM     21  C   UNL     1       2.798   8.153  18.366  0.00  0.00    +0.000 C 
BRANCH  21  22
ATOM     22  O   UNL     1       2.390   6.903  18.933  0.00  0.00    +0.000 OA
BRANCH  22  23
ATOM     23  C   UNL     1       2.852   5.750  18.382  0.00  0.00    +0.000 A 
ATOM     24  C   UNL     1       2.184   4.537  18.354  0.00  0.00    +0.000 A 
ATOM     25  C   UNL     1       2.827   3.416  17.821  0.00  0.00    +0.000 A 
ATOM     26  C   UNL     1       4.130   3.510  17.317  0.00  0.00    +0.000 A 
ATOM     27  C   UNL     1       4.816   4.728  17.327  0.00  0.00    +0.000 A 
ATOM     28  C   UNL     1       4.152   5.842  17.875  0.00  0.00    +0.000 A 
BRANCH  27  29
ATOM     29  C   UNL     1       6.220   4.927  16.772  0.00  0.00    +0.000 C 
BRANCH  29  30
ATOM     30  C   UNL     1       6.510   4.182  15.483  0.00  0.00    +0.000 C 
ATOM     31  C   UNL     1       5.622   4.254  14.262  0.00  0.00    +0.000 C 
ATOM     32  C   UNL     1       6.929   4.988  14.270  0.00  0.00    +0.000 C 
ENDBRANCH  29  30
BRANCH  29  33
ATOM     33  C   UNL     1       7.315   4.651  17.821  0.00  0.00    +0.000 C 
BRANCH  33  34
ATOM     34  C   UNL     1       7.691   5.859  18.644  0.00  0.00    +0.000 C 
ATOM     35  O   UNL     1       7.704   6.998  18.217  0.00  0.00    +0.000 OA
BRANCH  34  36
ATOM     36  O   UNL     1       8.002   5.573  19.929  0.00  0.00    +0.000 OA
ATOM     37  H   UNL     1       7.460   6.044  20.591  0.00  0.00    +0.000 HD
ENDBRANCH  34  36
ENDBRANCH  33  34
ENDBRANCH  29  33
ENDBRANCH  27  29
ENDBRANCH  22  23
ENDBRANCH  21  22
ENDBRANCH   4  21
TORSDOF 13
ENDMDL
MODEL 2
REMARK VINA RESULT:      -7.5      1.797      2.575
REMARK  Name = 
REMARK  17 active torsions:
REMARK  status: ('A' for Active; 'I' for Inactive)
REMARK    1  A    between atoms: C_1  and  O_2
REMARK    2  A    between atoms: O_2  and  C_3
REMARK    3  A    between atoms: C_6  and  C_7
REMARK    4  A    between atoms: C_7  and  C_8
REMARK    5  A    between atoms: C_8  and  C_9
REMARK    6  A    between atoms: C_9  and  C_10
REMARK    7  A    between atoms: C_9  and  C_11
REMARK    8  A    between atoms: C_9  and  C_12
REMARK    9  A    between atoms: C_13  and  N_14
REMARK   10  A    between atoms: C_17  and  C_18
REMARK   11  A    between atoms: C_18  and  O_19
REMARK   12  A    between atoms: O_19  and  C_20
REMARK   13  A    between atoms: C_24  and  C_25
REMARK   14  A    between atoms: C_25  and  C_26
REMARK   15  A    between atoms: C_25  and  C_30
REMARK   16  A    between atoms: C_26  and  C_27
REMARK   17  A    between atoms: C_27  and  O_29
REMARK                            x       y       z     vdW  Elec       q    Type
REMARK                         _______ _______ _______ _____ _____    ______ ____
ROOT
ATOM      1  N   UNL     1       1.050  10.290  19.674  0.00  0.00    +0.000 N 
ATOM      2  C   UNL     1       0.425   9.632  20.817  0.00  0.00    +0.000 C 
ATOM      3  C   UNL     1       1.435   8.629  21.354  0.00  0.00    +0.000 C 
ATOM      4  C   UNL     1       1.982   7.662  20.278  0.00  0.00    +0.000 C 
ATOM      5  C   UNL     1       2.176   8.299  18.884  0.00  0.00    +0.000 C 
ATOM      6  C   UNL     1       1.177   9.404  18.518  0.00  0.00    +0.000 C 
ENDROOT
BRANCH   1  11
ATOM      7  C   UNL     1       1.664  13.952  19.385  0.00  0.00    +0.000 A 
ATOM      8  C   UNL     1       0.442  14.393  18.899  0.00  0.00    +0.000 A 
ATOM      9  C   UNL     1      -0.595  13.487  18.686  0.00  0.00    +0.000 A 
ATOM     10  C   UNL     1      -0.421  12.108  18.916  0.00  0.00    +0.000 A 
ATOM     11  C   UNL     1       0.810  11.647  19.450  0.00  0.00    +0.000 A 
ATOM     12  C   UNL     1       1.829  12.596  19.674  0.00  0.00    +0.000 A 
BRANCH   7  14
ATOM     13  C   UNL     1       3.739  14.854  18.667  0.00  0.00    +0.000 C 
ATOM     14  O   UNL     1       2.614  14.925  19.534  0.00  0.00    +0.000 OA
ENDBRANCH   7  14
BRANCH  10  15
ATOM     15  C   UNL     1      -1.567  11.180  18.556  0.00  0.00    +0.000 C 
BRANCH  15  16
ATOM     16  C   UNL     1      -1.937  11.047  17.063  0.00  0.00    +0.000 C 
BRANCH  16  17
ATOM     17  C   UNL     1      -3.342  10.494  16.686  0.00  0.00    +0.000 C 
ATOM     18  C   UNL     1      -3.341   9.897  15.268  0.00  0.00    +0.000 C 
ATOM     19  C   UNL     1      -3.680   9.370  17.690  0.00  0.00    +0.000 C 
ATOM     20  C   UNL     1      -4.450  11.551  16.779  0.00  0.00    +0.000 C 
ENDBRANCH  16  17
ENDBRANCH  15  16
ENDBRANCH  10  15
ENDBRANCH   1  11
BRANCH   4  21
ATOM     21  C   UNL     1       1.157   6.366  20.247  0.00  0.00    +0.000 C 
BRANCH  21  22
ATOM     22  O   UNL     1       2.117   5.311  20.381  0.00  0.00    +0.000 OA
BRANCH  22  23
ATOM     23  C   UNL     1       2.521   4.647  19.267  0.00  0.00    +0.000 A 
ATOM     24  C   UNL     1       1.877   3.568  18.684  0.00  0.00    +0.000 A 
ATOM     25  C   UNL     1       2.463   2.938  17.583  0.00  0.00    +0.000 A 
ATOM     26  C   UNL     1       3.685   3.385  17.067  0.00  0.00    +0.000 A 
ATOM     27  C   UNL     1       4.345   4.478  17.636  0.00  0.00    +0.000 A 
ATOM     28  C   UNL     1       3.741   5.094  18.748  0.00  0.00    +0.000 A 
BRANCH  27  29
ATOM     29  C   UNL     1       5.660   5.051  17.122  0.00  0.00    +0.000 C 
BRANCH  29  30
ATOM     30  C   UNL     1       6.248   6.163  17.969  0.00  0.00    +0.000 C 
ATOM     31  C   UNL     1       7.425   5.971  18.896  0.00  0.00    +0.000 C 
ATOM     32  C   UNL     1       7.617   6.696  17.599  0.00  0.00    +0.000 C 
ENDBRANCH  29  30
BRANCH  29  33
ATOM     33  C   UNL     1       5.582   5.471  15.642  0.00  0.00    +0.000 C 
BRANCH  33  34
ATOM     34  C   UNL     1       6.605   4.797  14.760  0.00  0.00    +0.000 C 
ATOM     35  O   UNL     1       7.643   5.318  14.399  0.00  0.00    +0.000 OA
BRANCH  34  36
ATOM     36  O   UNL     1       6.278   3.533  14.408  0.00  0.00    +0.000 OA
ATOM     37  H   UNL     1       6.871   2.846  14.769  0.00  0.00    +0.000 HD
ENDBRANCH  34  36
ENDBRANCH  33  34
ENDBRANCH  29  33
ENDBRANCH  27  29
ENDBRANCH  22  23
ENDBRANCH  21  22
ENDBRANCH   4  21
TORSDOF 13
ENDMDL
MODEL 3
REMARK VINA RESULT:      -7.4      1.439      1.793
REMARK  Name = 
REMARK  17 active torsions:
REMARK  status: ('A' for Active; 'I' for Inactive)
REMARK    1  A    between atoms: C_1  and  O_2
REMARK    2  A    between atoms: O_2  and  C_3
REMARK    3  A    between atoms: C_6  and  C_7
REMARK    4  A    between atoms: C_7  and  C_8
REMARK    5  A    between atoms: C_8  and  C_9
REMARK    6  A    between atoms: C_9  and  C_10
REMARK    7  A    between atoms: C_9  and  C_11
REMARK    8  A    between atoms: C_9  and  C_12
REMARK    9  A    between atoms: C_13  and  N_14
REMARK   10  A    between atoms: C_17  and  C_18
REMARK   11  A    between atoms: C_18  and  O_19
REMARK   12  A    between atoms: O_19  and  C_20
REMARK   13  A    between atoms: C_24  and  C_25
REMARK   14  A    between atoms: C_25  and  C_26
REMARK   15  A    between atoms: C_25  and  C_30
REMARK   16  A    between atoms: C_26  and  C_27
REMARK   17  A    between atoms: C_27  and  O_29
REMARK                            x       y       z     vdW  Elec       q    Type
REMARK                         _______ _______ _______ _____ _____    ______ ____
ROOT
ATOM      1  N   UNL     1      -0.322  11.534  20.045  0.00  0.00    +0.000 N 
ATOM      2  C   UNL     1       0.008  11.574  18.623  0.00  0.00    +0.000 C 
ATOM      3  C   UNL     1      -0.157  10.157  18.094  0.00  0.00    +0.000 C 
ATOM      4  C   UNL     1       0.625   9.097  18.904  0.00  0.00    +0.000 C 
ATOM      5  C   UNL     1       0.678   9.363  20.424  0.00  0.00    +0.000 C 
ATOM      6  C   UNL     1       0.694  10.840  20.836  0.00  0.00    +0.000 C 
ENDROOT
BRANCH   1  11
ATOM      7  C   UNL     1      -0.919  14.631  22.025  0.00  0.00    +0.000 A 
ATOM      8  C   UNL     1      -2.250  14.889  21.728  0.00  0.00    +0.000 A 
ATOM      9  C   UNL     1      -2.959  14.031  20.891  0.00  0.00    +0.000 A 
ATOM     10  C   UNL     1      -2.342  12.912  20.296  0.00  0.00    +0.000 A 
ATOM     11  C   UNL     1      -0.994  12.612  20.622  0.00  0.00    +0.000 A 
ATOM     12  C   UNL     1      -0.314  13.492  21.491  0.00  0.00    +0.000 A 
BRANCH   7  14
ATOM     13  C   UNL     1      -1.136  16.614  23.311  0.00  0.00    +0.000 C 
ATOM     14  O   UNL     1      -0.318  15.552  22.838  0.00  0.00    +0.000 OA
ENDBRANCH   7  14
BRANCH  10  15
ATOM     15  C   UNL     1      -3.158  12.091  19.314  0.00  0.00    +0.000 C 
BRANCH  15  16
ATOM     16  C   UNL     1      -4.696  12.191  19.405  0.00  0.00    +0.000 C 
BRANCH  16  17
ATOM     17  C   UNL     1      -5.537  11.977  18.113  0.00  0.00    +0.000 C 
ATOM     18  C   UNL     1      -4.645  11.565  16.931  0.00  0.00    +0.000 C 
ATOM     19  C   UNL     1      -6.534  10.830  18.396  0.00  0.00    +0.000 C 
ATOM     20  C   UNL     1      -6.352  13.214  17.713  0.00  0.00    +0.000 C 
ENDBRANCH  16  17
ENDBRANCH  15  16
ENDBRANCH  10  15
ENDBRANCH   1  11
BRANCH   4  21
ATOM     21  C   UNL     1       2.008   8.852  18.279  0.00  0.00    +0.000 C 
BRANCH  21  22
ATOM     22  O   UNL     1       2.566   7.764  19.025  0.00  0.00    +0.000 OA
BRANCH  22  23
ATOM     23  C   UNL     1       2.843   6.601  18.381  0.00  0.00    +0.000 A 
ATOM     24  C   UNL     1       2.100   5.433  18.455  0.00  0.00    +0.000 A 
ATOM     25  C   UNL     1       2.559   4.290  17.797  0.00  0.00    +0.000 A 
ATOM     26  C   UNL     1       3.754   4.314  17.067  0.00  0.00    +0.000 A 
ATOM     27  C   UNL     1       4.512   5.485  16.972  0.00  0.00    +0.000 A 
ATOM     28  C   UNL     1       4.034   6.623  17.649  0.00  0.00    +0.000 A 
BRANCH  27  29
ATOM     29  C   UNL     1       5.804   5.609  16.176  0.00  0.00    +0.000 C 
BRANCH  29  30
ATOM     30  C   UNL     1       6.137   4.412  15.306  0.00  0.00    +0.000 C 
ATOM     31  C   UNL     1       5.516   4.168  13.951  0.00  0.00    +0.000 C 
ATOM     32  C   UNL     1       6.933   4.648  14.039  0.00  0.00    +0.000 C 
ENDBRANCH  29  30
BRANCH  29  33
ATOM     33  C   UNL     1       7.007   5.997  17.058  0.00  0.00    +0.000 C 
BRANCH  33  34
ATOM     34  C   UNL     1       7.380   4.949  18.078  0.00  0.00    +0.000 C 
ATOM     35  O   UNL     1       6.906   4.887  19.196  0.00  0.00    +0.000 OA
BRANCH  34  36
ATOM     36  O   UNL     1       8.291   4.053  17.635  0.00  0.00    +0.000 OA
ATOM     37  H   UNL     1       8.532   3.366  18.286  0.00  0.00    +0.000 HD
ENDBRANCH  34  36
ENDBRANCH  33  34
ENDBRANCH  29  33
ENDBRANCH  27  29
ENDBRANCH  22  23
ENDBRANCH  21  22
ENDBRANCH   4  21
TORSDOF 13
ENDMDL
MODEL 4
REMARK VINA RESULT:      -7.3      1.716      3.888
REMARK  Name = 
REMARK  17 active torsions:
REMARK  status: ('A' for Active; 'I' for Inactive)
REMARK    1  A    between atoms: C_1  and  O_2
REMARK    2  A    between atoms: O_2  and  C_3
REMARK    3  A    between atoms: C_6  and  C_7
REMARK    4  A    between atoms: C_7  and  C_8
REMARK    5  A    between atoms: C_8  and  C_9
REMARK    6  A    between atoms: C_9  and  C_10
REMARK    7  A    between atoms: C_9  and  C_11
REMARK    8  A    between atoms: C_9  and  C_12
REMARK    9  A    between atoms: C_13  and  N_14
REMARK   10  A    between atoms: C_17  and  C_18
REMARK   11  A    between atoms: C_18  and  O_19
REMARK   12  A    between atoms: O_19  and  C_20
REMARK   13  A    between atoms: C_24  and  C_25
REMARK   14  A    between atoms: C_25  and  C_26
REMARK   15  A    between atoms: C_25  and  C_30
REMARK   16  A    between atoms: C_26  and  C_27
REMARK   17  A    between atoms: C_27  and  O_29
REMARK                            x       y       z     vdW  Elec       q    Type
REMARK                         _______ _______ _______ _____ _____    ______ ____
ROOT
ATOM      1  N   UNL     1      -0.277  10.207  19.706  0.00  0.00    +0.000 N 
ATOM      2  C   UNL     1      -0.291   9.210  20.773  0.00  0.00    +0.000 C 
ATOM      3  C   UNL     1       1.161   8.907  21.112  0.00  0.00    +0.000 C 
ATOM      4  C   UNL     1       2.017   8.520  19.883  0.00  0.00    +0.000 C 
ATOM      5  C   UNL     1       1.657   9.277  18.587  0.00  0.00    +0.000 C 
ATOM      6  C   UNL     1       0.179   9.655  18.431  0.00  0.00    +0.000 C 
ENDROOT
BRANCH   1  11
ATOM      7  C   UNL     1      -3.492  11.947  19.000  0.00  0.00    +0.000 A 
ATOM      8  C   UNL     1      -3.324  13.125  19.714  0.00  0.00    +0.000 A 
ATOM      9  C   UNL     1      -2.141  13.358  20.412  0.00  0.00    +0.000 A 
ATOM     10  C   UNL     1      -1.111  12.397  20.447  0.00  0.00    +0.000 A 
ATOM     11  C   UNL     1      -1.252  11.205  19.690  0.00  0.00    +0.000 A 
ATOM     12  C   UNL     1      -2.454  11.015  18.977  0.00  0.00    +0.000 A 
BRANCH   7  14
ATOM     13  C   UNL     1      -4.667  11.567  16.973  0.00  0.00    +0.000 C 
ATOM     14  O   UNL     1      -4.701  11.817  18.372  0.00  0.00    +0.000 OA
ENDBRANCH   7  14
BRANCH  10  15
ATOM     15  C   UNL     1       0.098  12.686  21.318  0.00  0.00    +0.000 C 
BRANCH  15  16
ATOM     16  C   UNL     1       0.778  14.064  21.162  0.00  0.00    +0.000 C 
BRANCH  16  17
ATOM     17  C   UNL     1       2.074  14.167  20.307  0.00  0.00    +0.000 C 
ATOM     18  C   UNL     1       3.329  14.135  21.195  0.00  0.00    +0.000 C 
ATOM     19  C   UNL     1       2.107  12.940  19.368  0.00  0.00    +0.000 C 
ATOM     20  C   UNL     1       2.118  15.426  19.430  0.00  0.00    +0.000 C 
ENDBRANCH  16  17
ENDBRANCH  15  16
ENDBRANCH  10  15
ENDBRANCH   1  11
BRANCH   4  21
ATOM     21  C   UNL     1       2.050   6.993  19.709  0.00  0.00    +0.000 C 
BRANCH  21  22
ATOM     22  O   UNL     1       2.263   6.783  18.308  0.00  0.00    +0.000 OA
BRANCH  22  23
ATOM     23  C   UNL     1       2.817   5.613  17.897  0.00  0.00    +0.000 A 
ATOM     24  C   UNL     1       2.219   4.364  17.959  0.00  0.00    +0.000 A 
ATOM     25  C   UNL     1       2.950   3.239  17.570  0.00  0.00    +0.000 A 
ATOM     26  C   UNL     1       4.271   3.361  17.121  0.00  0.00    +0.000 A 
ATOM     27  C   UNL     1       4.887   4.614  17.043  0.00  0.00    +0.000 A 
ATOM     28  C   UNL     1       4.135   5.733  17.445  0.00  0.00    +0.000 A 
BRANCH  27  29
ATOM     29  C   UNL     1       6.306   4.842  16.538  0.00  0.00    +0.000 C 
BRANCH  29  30
ATOM     30  C   UNL     1       6.651   4.118  15.250  0.00  0.00    +0.000 C 
ATOM     31  C   UNL     1       5.816   4.210  13.994  0.00  0.00    +0.000 C 
ATOM     32  C   UNL     1       7.120   4.943  14.070  0.00  0.00    +0.000 C 
ENDBRANCH  29  30
BRANCH  29  33
ATOM     33  C   UNL     1       7.369   4.572  17.620  0.00  0.00    +0.000 C 
BRANCH  33  34
ATOM     34  C   UNL     1       7.395   5.603  18.722  0.00  0.00    +0.000 C 
ATOM     35  O   UNL     1       7.076   5.378  19.873  0.00  0.00    +0.000 OA
BRANCH  34  36
ATOM     36  O   UNL     1       7.829   6.821  18.324  0.00  0.00    +0.000 OA
ATOM     37  H   UNL     1       7.123   7.489  18.225  0.00  0.00    +0.000 HD
ENDBRANCH  34  36
ENDBRANCH  33  34
ENDBRANCH  29  33
ENDBRANCH  27  29
ENDBRANCH  22  23
ENDBRANCH  21  22
ENDBRANCH   4  21
TORSDOF 13
ENDMDL
MODEL 5
REMARK VINA RESULT:      -7.3      1.228      1.858
REMARK  Name = 
REMARK  17 active torsions:
REMARK  status: ('A' for Active; 'I' for Inactive)
REMARK    1  A    between atoms: C_1  and  O_2
REMARK    2  A    between atoms: O_2  and  C_3
REMARK    3  A    between atoms: C_6  and  C_7
REMARK    4  A    between atoms: C_7  and  C_8
REMARK    5  A    between atoms: C_8  and  C_9
REMARK    6  A    between atoms: C_9  and  C_10
REMARK    7  A    between atoms: C_9  and  C_11
REMARK    8  A    between atoms: C_9  and  C_12
REMARK    9  A    between atoms: C_13  and  N_14
REMARK   10  A    between atoms: C_17  and  C_18
REMARK   11  A    between atoms: C_18  and  O_19
REMARK   12  A    between atoms: O_19  and  C_20
REMARK   13  A    between atoms: C_24  and  C_25
REMARK   14  A    between atoms: C_25  and  C_26
REMARK   15  A    between atoms: C_25  and  C_30
REMARK   16  A    between atoms: C_26  and  C_27
REMARK   17  A    between atoms: C_27  and  O_29
REMARK                            x       y       z     vdW  Elec       q    Type
REMARK                         _______ _______ _______ _____ _____    ______ ____
ROOT
ATOM      1  N   UNL     1       0.984  10.247  19.937  0.00  0.00    +0.000 N 
ATOM      2  C   UNL     1       0.412   9.463  21.029  0.00  0.00    +0.000 C 
ATOM      3  C   UNL     1       1.469   8.451  21.445  0.00  0.00    +0.000 C 
ATOM      4  C   UNL     1       2.019   7.609  20.271  0.00  0.00    +0.000 C 
ATOM      5  C   UNL     1       2.155   8.378  18.939  0.00  0.00    +0.000 C 
ATOM      6  C   UNL     1       1.110   9.476  18.701  0.00  0.00    +0.000 C 
ENDROOT
BRANCH   1  11
ATOM      7  C   UNL     1       1.442  13.939  20.076  0.00  0.00    +0.000 A 
ATOM      8  C   UNL     1       0.226  14.382  19.574  0.00  0.00    +0.000 A 
ATOM      9  C   UNL     1      -0.755  13.463  19.208  0.00  0.00    +0.000 A 
ATOM     10  C   UNL     1      -0.529  12.075  19.298  0.00  0.00    +0.000 A 
ATOM     11  C   UNL     1       0.693  11.609  19.847  0.00  0.00    +0.000 A 
ATOM     12  C   UNL     1       1.654  12.568  20.227  0.00  0.00    +0.000 A 
BRANCH   7  14
ATOM     13  C   UNL     1       3.488  14.539  21.119  0.00  0.00    +0.000 C 
ATOM     14  O   UNL     1       2.337  14.928  20.381  0.00  0.00    +0.000 OA
ENDBRANCH   7  14
BRANCH  10  15
ATOM     15  C   UNL     1      -1.611  11.146  18.779  0.00  0.00    +0.000 C 
BRANCH  15  16
ATOM     16  C   UNL     1      -1.964  11.230  17.278  0.00  0.00    +0.000 C 
BRANCH  16  17
ATOM     17  C   UNL     1      -3.246  10.508  16.769  0.00  0.00    +0.000 C 
ATOM     18  C   UNL     1      -3.625   9.336  17.688  0.00  0.00    +0.000 C 
ATOM     19  C   UNL     1      -4.396  11.540  16.790  0.00  0.00    +0.000 C 
ATOM     20  C   UNL     1      -3.113   9.988  15.331  0.00  0.00    +0.000 C 
ENDBRANCH  16  17
ENDBRANCH  15  16
ENDBRANCH  10  15
ENDBRANCH   1  11
BRANCH   4  21
ATOM     21  C   UNL     1       1.238   6.292  20.138  0.00  0.00    +0.000 C 
BRANCH  21  22
ATOM     22  O   UNL     1       2.222   5.260  20.268  0.00  0.00    +0.000 OA
BRANCH  22  23
ATOM     23  C   UNL     1       2.565   4.539  19.170  0.00  0.00    +0.000 A 
ATOM     24  C   UNL     1       1.885   3.437  18.675  0.00  0.00    +0.000 A 
ATOM     25  C   UNL     1       2.410   2.748  17.579  0.00  0.00    +0.000 A 
ATOM     26  C   UNL     1       3.607   3.159  16.980  0.00  0.00    +0.000 A 
ATOM     27  C   UNL     1       4.302   4.273  17.459  0.00  0.00    +0.000 A 
ATOM     28  C   UNL     1       3.759   4.948  18.568  0.00  0.00    +0.000 A 
BRANCH  27  29
ATOM     29  C   UNL     1       5.592   4.808  16.850  0.00  0.00    +0.000 C 
BRANCH  29  30
ATOM     30  C   UNL     1       6.101   4.033  15.649  0.00  0.00    +0.000 C 
ATOM     31  C   UNL     1       5.574   4.229  14.247  0.00  0.00    +0.000 C 
ATOM     32  C   UNL     1       6.920   4.777  14.614  0.00  0.00    +0.000 C 
ENDBRANCH  29  30
BRANCH  29  33
ATOM     33  C   UNL     1       6.708   4.991  17.897  0.00  0.00    +0.000 C 
BRANCH  33  34
ATOM     34  C   UNL     1       7.276   6.389  17.945  0.00  0.00    +0.000 C 
ATOM     35  O   UNL     1       8.088   6.766  18.768  0.00  0.00    +0.000 OA
BRANCH  34  36
ATOM     36  O   UNL     1       6.815   7.203  16.969  0.00  0.00    +0.000 OA
ATOM     37  H   UNL     1       5.981   7.663  17.186  0.00  0.00    +0.000 HD
ENDBRANCH  34  36
ENDBRANCH  33  34
ENDBRANCH  29  33
ENDBRANCH  27  29
ENDBRANCH  22  23
ENDBRANCH  21  22
ENDBRANCH   4  21
TORSDOF 13
ENDMDL
MODEL 6
REMARK VINA RESULT:      -7.2      1.837      2.771
REMARK  Name = 
REMARK  17 active torsions:
REMARK  status: ('A' for Active; 'I' for Inactive)
REMARK    1  A    between atoms: C_1  and  O_2
REMARK    2  A    between atoms: O_2  and  C_3
REMARK    3  A    between atoms: C_6  and  C_7
REMARK    4  A    between atoms: C_7  and  C_8
REMARK    5  A    between atoms: C_8  and  C_9
REMARK    6  A    between atoms: C_9  and  C_10
REMARK    7  A    between atoms: C_9  and  C_11
REMARK    8  A    between atoms: C_9  and  C_12
REMARK    9  A    between atoms: C_13  and  N_14
REMARK   10  A    between atoms: C_17  and  C_18
REMARK   11  A    between atoms: C_18  and  O_19
REMARK   12  A    between atoms: O_19  and  C_20
REMARK   13  A    between atoms: C_24  and  C_25
REMARK   14  A    between atoms: C_25  and  C_26
REMARK   15  A    between atoms: C_25  and  C_30
REMARK   16  A    between atoms: C_26  and  C_27
REMARK   17  A    between atoms: C_27  and  O_29
REMARK                            x       y       z     vdW  Elec       q    Type
REMARK                         _______ _______ _______ _____ _____    ______ ____
ROOT
ATOM      1  N   UNL     1       0.859  11.471  19.482  0.00  0.00    +0.000 N 
ATOM      2  C   UNL     1       1.639  10.902  18.387  0.00  0.00    +0.000 C 
ATOM      3  C   UNL     1       1.093   9.505  18.137  0.00  0.00    +0.000 C 
ATOM      4  C   UNL     1       1.034   8.625  19.407  0.00  0.00    +0.000 C 
ATOM      5  C   UNL     1       0.669   9.388  20.698  0.00  0.00    +0.000 C 
ATOM      6  C   UNL     1       1.155  10.841  20.767  0.00  0.00    +0.000 C 
ENDROOT
BRANCH   1  11
ATOM      7  C   UNL     1       1.181  15.130  18.868  0.00  0.00    +0.000 A 
ATOM      8  C   UNL     1      -0.066  15.583  19.275  0.00  0.00    +0.000 A 
ATOM      9  C   UNL     1      -1.009  14.686  19.772  0.00  0.00    +0.000 A 
ATOM     10  C   UNL     1      -0.741  13.304  19.838  0.00  0.00    +0.000 A 
ATOM     11  C   UNL     1       0.544  12.831  19.463  0.00  0.00    +0.000 A 
ATOM     12  C   UNL     1       1.480  13.772  18.986  0.00  0.00    +0.000 A 
BRANCH   7  14
ATOM     13  C   UNL     1       3.054  16.539  19.242  0.00  0.00    +0.000 C 
ATOM     14  O   UNL     1       2.016  16.095  18.377  0.00  0.00    +0.000 OA
ENDBRANCH   7  14
BRANCH  10  15
ATOM     15  C   UNL     1      -1.861  12.386  20.292  0.00  0.00    +0.000 C 
BRANCH  15  16
ATOM     16  C   UNL     1      -2.749  12.866  21.461  0.00  0.00    +0.000 C 
BRANCH  16  17
ATOM     17  C   UNL     1      -2.282  12.589  22.919  0.00  0.00    +0.000 C 
ATOM     18  C   UNL     1      -1.378  13.719  23.437  0.00  0.00    +0.000 C 
ATOM     19  C   UNL     1      -3.546  12.528  23.805  0.00  0.00    +0.000 C 
ATOM     20  C   UNL     1      -1.542  11.253  23.071  0.00  0.00    +0.000 C 
ENDBRANCH  16  17
ENDBRANCH  15  16
ENDBRANCH  10  15
ENDBRANCH   1  11
BRANCH   4  21
ATOM     21  C   UNL     1       2.311   7.780  19.538  0.00  0.00    +0.000 C 
BRANCH  21  22
ATOM     22  O   UNL     1       1.854   6.425  19.622  0.00  0.00    +0.000 OA
BRANCH  22  23
ATOM     23  C   UNL     1       2.329   5.516  18.732  0.00  0.00    +0.000 A 
ATOM     24  C   UNL     1       1.776   4.273  18.465  0.00  0.00    +0.000 A 
ATOM     25  C   UNL     1       2.428   3.413  17.578  0.00  0.00    +0.000 A 
ATOM     26  C   UNL     1       3.626   3.794  16.961  0.00  0.00    +0.000 A 
ATOM     27  C   UNL     1       4.193   5.047  17.210  0.00  0.00    +0.000 A 
ATOM     28  C   UNL     1       3.523   5.895  18.112  0.00  0.00    +0.000 A 
BRANCH  27  29
ATOM     29  C   UNL     1       5.474   5.554  16.560  0.00  0.00    +0.000 C 
BRANCH  29  30
ATOM     30  C   UNL     1       6.346   4.479  15.941  0.00  0.00    +0.000 C 
ATOM     31  C   UNL     1       6.128   3.925  14.552  0.00  0.00    +0.000 C 
ATOM     32  C   UNL     1       7.264   4.871  14.801  0.00  0.00    +0.000 C 
ENDBRANCH  29  30
BRANCH  29  33
ATOM     33  C   UNL     1       6.298   6.455  17.500  0.00  0.00    +0.000 C 
BRANCH  33  34
ATOM     34  C   UNL     1       7.046   5.698  18.570  0.00  0.00    +0.000 C 
ATOM     35  O   UNL     1       6.715   4.607  18.992  0.00  0.00    +0.000 OA
BRANCH  34  36
ATOM     36  O   UNL     1       8.151   6.335  19.021  0.00  0.00    +0.000 OA
ATOM     37  H   UNL     1       8.530   6.981  18.395  0.00  0.00    +0.000 HD
ENDBRANCH  34  36
ENDBRANCH  33  34
ENDBRANCH  29  33
ENDBRANCH  27  29
ENDBRANCH  22  23
ENDBRANCH  21  22
ENDBRANCH   4  21
TORSDOF 13
ENDMDL
MODEL 7
REMARK VINA RESULT:      -7.2      1.972      3.998
REMARK  Name = 
REMARK  17 active torsions:
REMARK  status: ('A' for Active; 'I' for Inactive)
REMARK    1  A    between atoms: C_1  and  O_2
REMARK    2  A    between atoms: O_2  and  C_3
REMARK    3  A    between atoms: C_6  and  C_7
REMARK    4  A    between atoms: C_7  and  C_8
REMARK    5  A    between atoms: C_8  and  C_9
REMARK    6  A    between atoms: C_9  and  C_10
REMARK    7  A    between atoms: C_9  and  C_11
REMARK    8  A    between atoms: C_9  and  C_12
REMARK    9  A    between atoms: C_13  and  N_14
REMARK   10  A    between atoms: C_17  and  C_18
REMARK   11  A    between atoms: C_18  and  O_19
REMARK   12  A    between atoms: O_19  and  C_20
REMARK   13  A    between atoms: C_24  and  C_25
REMARK   14  A    between atoms: C_25  and  C_26
REMARK   15  A    between atoms: C_25  and  C_30
REMARK   16  A    between atoms: C_26  and  C_27
REMARK   17  A    between atoms: C_27  and  O_29
REMARK                            x       y       z     vdW  Elec       q    Type
REMARK                         _______ _______ _______ _____ _____    ______ ____
ROOT
ATOM      1  N   UNL     1      -0.625  11.384  19.746  0.00  0.00    +0.000 N 
ATOM      2  C   UNL     1      -0.735   9.961  20.057  0.00  0.00    +0.000 C 
ATOM      3  C   UNL     1       0.674   9.462  20.339  0.00  0.00    +0.000 C 
ATOM      4  C   UNL     1       1.687   9.798  19.220  0.00  0.00    +0.000 C 
ATOM      5  C   UNL     1       1.463  11.167  18.542  0.00  0.00    +0.000 C 
ATOM      6  C   UNL     1       0.002  11.626  18.449  0.00  0.00    +0.000 C 
ENDROOT
BRANCH   1  11
ATOM      7  C   UNL     1      -3.982  12.956  20.107  0.00  0.00    +0.000 A 
ATOM      8  C   UNL     1      -3.732  13.904  21.090  0.00  0.00    +0.000 A 
ATOM      9  C   UNL     1      -2.451  14.041  21.620  0.00  0.00    +0.000 A 
ATOM     10  C   UNL     1      -1.395  13.204  21.209  0.00  0.00    +0.000 A 
ATOM     11  C   UNL     1      -1.625  12.257  20.177  0.00  0.00    +0.000 A 
ATOM     12  C   UNL     1      -2.929  12.163  19.648  0.00  0.00    +0.000 A 
BRANCH   7  14
ATOM     13  C   UNL     1      -5.960  11.664  19.880  0.00  0.00    +0.000 C 
ATOM     14  O   UNL     1      -5.279  12.896  19.677  0.00  0.00    +0.000 OA
ENDBRANCH   7  14
BRANCH  10  15
ATOM     15  C   UNL     1      -0.059  13.350  21.915  0.00  0.00    +0.000 C 
BRANCH  15  16
ATOM     16  C   UNL     1       0.655  14.715  21.817  0.00  0.00    +0.000 C 
BRANCH  16  17
ATOM     17  C   UNL     1       1.817  14.881  20.795  0.00  0.00    +0.000 C 
ATOM     18  C   UNL     1       2.741  13.652  20.800  0.00  0.00    +0.000 C 
ATOM     19  C   UNL     1       1.183  15.011  19.391  0.00  0.00    +0.000 C 
ATOM     20  C   UNL     1       2.662  16.138  21.042  0.00  0.00    +0.000 C 
ENDBRANCH  16  17
ENDBRANCH  15  16
ENDBRANCH  10  15
ENDBRANCH   1  11
BRANCH   4  21
ATOM     21  C   UNL     1       1.794   8.634  18.222  0.00  0.00    +0.000 C 
BRANCH  21  22
ATOM     22  O   UNL     1       2.359   7.552  18.972  0.00  0.00    +0.000 OA
BRANCH  22  23
ATOM     23  C   UNL     1       2.709   6.413  18.319  0.00  0.00    +0.000 A 
ATOM     24  C   UNL     1       2.018   5.213  18.350  0.00  0.00    +0.000 A 
ATOM     25  C   UNL     1       2.550   4.103  17.689  0.00  0.00    +0.000 A 
ATOM     26  C   UNL     1       3.765   4.193  17.000  0.00  0.00    +0.000 A 
ATOM     27  C   UNL     1       4.472   5.399  16.950  0.00  0.00    +0.000 A 
ATOM     28  C   UNL     1       3.921   6.502  17.628  0.00  0.00    +0.000 A 
BRANCH  27  29
ATOM     29  C   UNL     1       5.782   5.595  16.199  0.00  0.00    +0.000 C 
BRANCH  29  30
ATOM     30  C   UNL     1       6.188   4.438  15.306  0.00  0.00    +0.000 C 
ATOM     31  C   UNL     1       5.615   4.209  13.926  0.00  0.00    +0.000 C 
ATOM     32  C   UNL     1       7.008   4.742  14.069  0.00  0.00    +0.000 C 
ENDBRANCH  29  30
BRANCH  29  33
ATOM     33  C   UNL     1       6.942   6.001  17.129  0.00  0.00    +0.000 C 
BRANCH  33  34
ATOM     34  C   UNL     1       7.309   4.945  18.144  0.00  0.00    +0.000 C 
ATOM     35  O   UNL     1       6.823   4.870  19.256  0.00  0.00    +0.000 OA
BRANCH  34  36
ATOM     36  O   UNL     1       8.229   4.058  17.703  0.00  0.00    +0.000 OA
ATOM     37  H   UNL     1       7.869   3.349  17.136  0.00  0.00    +0.000 HD
ENDBRANCH  34  36
ENDBRANCH  33  34
ENDBRANCH  29  33
ENDBRANCH  27  29
ENDBRANCH  22  23
ENDBRANCH  21  22
ENDBRANCH   4  21
TORSDOF 13
ENDMDL
MODEL 8
REMARK VINA RESULT:      -7.2      3.139     10.951
REMARK  Name = 
REMARK  17 active torsions:
REMARK  status: ('A' for Active; 'I' for Inactive)
REMARK    1  A    between atoms: C_1  and  O_2
REMARK    2  A    between atoms: O_2  and  C_3
REMARK    3  A    between atoms: C_6  and  C_7
REMARK    4  A    between atoms: C_7  and  C_8
REMARK    5  A    between atoms: C_8  and  C_9
REMARK    6  A    between atoms: C_9  and  C_10
REMARK    7  A    between atoms: C_9  and  C_11
REMARK    8  A    between atoms: C_9  and  C_12
REMARK    9  A    between atoms: C_13  and  N_14
REMARK   10  A    between atoms: C_17  and  C_18
REMARK   11  A    between atoms: C_18  and  O_19
REMARK   12  A    between atoms: O_19  and  C_20
REMARK   13  A    between atoms: C_24  and  C_25
REMARK   14  A    between atoms: C_25  and  C_26
REMARK   15  A    between atoms: C_25  and  C_30
REMARK   16  A    between atoms: C_26  and  C_27
REMARK   17  A    between atoms: C_27  and  O_29
REMARK                            x       y       z     vdW  Elec       q    Type
REMARK                         _______ _______ _______ _____ _____    ______ ____
ROOT
ATOM      1  N   UNL     1       2.623   7.332  18.297  0.00  0.00    +0.000 N 
ATOM      2  C   UNL     1       2.689   7.553  19.739  0.00  0.00    +0.000 C 
ATOM      3  C   UNL     1       1.309   8.022  20.176  0.00  0.00    +0.000 C 
ATOM      4  C   UNL     1       0.779   9.228  19.366  0.00  0.00    +0.000 C 
ATOM      5  C   UNL     1       1.163   9.215  17.871  0.00  0.00    +0.000 C 
ATOM      6  C   UNL     1       2.521   8.581  17.544  0.00  0.00    +0.000 C 
ENDROOT
BRANCH   1  11
ATOM      7  C   UNL     1       5.398   5.438  16.690  0.00  0.00    +0.000 A 
ATOM      8  C   UNL     1       4.883   4.150  16.694  0.00  0.00    +0.000 A 
ATOM      9  C   UNL     1       3.611   3.906  17.207  0.00  0.00    +0.000 A 
ATOM     10  C   UNL     1       2.836   4.941  17.767  0.00  0.00    +0.000 A 
ATOM     11  C   UNL     1       3.333   6.270  17.735  0.00  0.00    +0.000 A 
ATOM     12  C   UNL     1       4.615   6.482  17.187  0.00  0.00    +0.000 A 
BRANCH   7  14
ATOM     13  C   UNL     1       6.913   4.907  14.943  0.00  0.00    +0.000 C 
ATOM     14  O   UNL     1       6.663   5.556  16.183  0.00  0.00    +0.000 OA
ENDBRANCH   7  14
BRANCH  10  15
ATOM     15  C   UNL     1       1.508   4.569  18.400  0.00  0.00    +0.000 C 
BRANCH  15  16
ATOM     16  C   UNL     1       1.451   3.269  19.231  0.00  0.00    +0.000 C 
BRANCH  16  17
ATOM     17  C   UNL     1       2.113   3.252  20.640  0.00  0.00    +0.000 C 
ATOM     18  C   UNL     1       1.293   2.405  21.628  0.00  0.00    +0.000 C 
ATOM     19  C   UNL     1       3.510   2.610  20.486  0.00  0.00    +0.000 C 
ATOM     20  C   UNL     1       2.308   4.655  21.231  0.00  0.00    +0.000 C 
ENDBRANCH  16  17
ENDBRANCH  15  16
ENDBRANCH  10  15
ENDBRANCH   1  11
BRANCH   4  21
ATOM     21  C   UNL     1       1.125  10.548  20.073  0.00  0.00    +0.000 C 
BRANCH  21  22
ATOM     22  O   UNL     1      -0.030  11.378  19.899  0.00  0.00    +0.000 OA
BRANCH  22  23
ATOM     23  C   UNL     1      -0.832  11.618  20.969  0.00  0.00    +0.000 A 
ATOM     24  C   UNL     1      -0.655  11.114  22.247  0.00  0.00    +0.000 A 
ATOM     25  C   UNL     1      -1.615  11.388  23.226  0.00  0.00    +0.000 A 
ATOM     26  C   UNL     1      -2.743  12.161  22.928  0.00  0.00    +0.000 A 
ATOM     27  C   UNL     1      -2.933  12.686  21.646  0.00  0.00    +0.000 A 
ATOM     28  C   UNL     1      -1.958  12.393  20.674  0.00  0.00    +0.000 A 
BRANCH  27  29
ATOM     29  C   UNL     1      -4.112  13.562  21.243  0.00  0.00    +0.000 C 
BRANCH  29  30
ATOM     30  C   UNL     1      -4.250  14.851  22.030  0.00  0.00    +0.000 C 
ATOM     31  C   UNL     1      -3.099  15.795  22.291  0.00  0.00    +0.000 C 
ATOM     32  C   UNL     1      -4.142  16.162  21.280  0.00  0.00    +0.000 C 
ENDBRANCH  29  30
BRANCH  29  33
ATOM     33  C   UNL     1      -5.444  12.787  21.223  0.00  0.00    +0.000 C 
BRANCH  33  34
ATOM     34  C   UNL     1      -5.968  12.508  19.835  0.00  0.00    +0.000 C 
ATOM     35  O   UNL     1      -7.003  11.913  19.604  0.00  0.00    +0.000 OA
BRANCH  34  36
ATOM     36  O   UNL     1      -5.188  13.000  18.845  0.00  0.00    +0.000 OA
ATOM     37  H   UNL     1      -4.821  12.323  18.245  0.00  0.00    +0.000 HD
ENDBRANCH  34  36
ENDBRANCH  33  34
ENDBRANCH  29  33
ENDBRANCH  27  29
ENDBRANCH  22  23
ENDBRANCH  21  22
ENDBRANCH   4  21
TORSDOF 13
ENDMDL
MODEL 9
REMARK VINA RESULT:      -7.1      3.355     11.058
REMARK  Name = 
REMARK  17 active torsions:
REMARK  status: ('A' for Active; 'I' for Inactive)
REMARK    1  A    between atoms: C_1  and  O_2
REMARK    2  A    between atoms: O_2  and  C_3
REMARK    3  A    between atoms: C_6  and  C_7
REMARK    4  A    between atoms: C_7  and  C_8
REMARK    5  A    between atoms: C_8  and  C_9
REMARK    6  A    between atoms: C_9  and  C_10
REMARK    7  A    between atoms: C_9  and  C_11
REMARK    8  A    between atoms: C_9  and  C_12
REMARK    9  A    between atoms: C_13  and  N_14
REMARK   10  A    between atoms: C_17  and  C_18
REMARK   11  A    between atoms: C_18  and  O_19
REMARK   12  A    between atoms: O_19  and  C_20
REMARK   13  A    between atoms: C_24  and  C_25
REMARK   14  A    between atoms: C_25  and  C_26
REMARK   15  A    between atoms: C_25  and  C_30
REMARK   16  A    between atoms: C_26  and  C_27
REMARK   17  A    between atoms: C_27  and  O_29
REMARK                            x       y       z     vdW  Elec       q    Type
REMARK                         _______ _______ _______ _____ _____    ______ ____
ROOT
ATOM      1  N   UNL     1       1.945   8.109  18.749  0.00  0.00    +0.000 N 
ATOM      2  C   UNL     1       2.015   8.342  20.189  0.00  0.00    +0.000 C 
ATOM      3  C   UNL     1       0.603   8.664  20.653  0.00  0.00    +0.000 C 
ATOM      4  C   UNL     1      -0.070   9.803  19.851  0.00  0.00    +0.000 C 
ATOM      5  C   UNL     1       0.285   9.823  18.348  0.00  0.00    +0.000 C 
ATOM      6  C   UNL     1       1.695   9.336  17.995  0.00  0.00    +0.000 C 
ENDROOT
BRANCH   1  11
ATOM      7  C   UNL     1       4.769   6.544  16.894  0.00  0.00    +0.000 A 
ATOM      8  C   UNL     1       4.506   5.196  17.088  0.00  0.00    +0.000 A 
ATOM      9  C   UNL     1       3.385   4.799  17.814  0.00  0.00    +0.000 A 
ATOM     10  C   UNL     1       2.519   5.745  18.399  0.00  0.00    +0.000 A 
ATOM     11  C   UNL     1       2.752   7.126  18.175  0.00  0.00    +0.000 A 
ATOM     12  C   UNL     1       3.884   7.489  17.416  0.00  0.00    +0.000 A 
BRANCH   7  14
ATOM     13  C   UNL     1       6.971   5.881  16.308  0.00  0.00    +0.000 C 
ATOM     14  O   UNL     1       5.907   6.816  16.186  0.00  0.00    +0.000 OA
ENDBRANCH   7  14
BRANCH  10  15
ATOM     15  C   UNL     1       1.383   5.227  19.262  0.00  0.00    +0.000 C 
BRANCH  15  16
ATOM     16  C   UNL     1       1.754   4.540  20.594  0.00  0.00    +0.000 C 
BRANCH  16  17
ATOM     17  C   UNL     1       1.940   2.995  20.614  0.00  0.00    +0.000 C 
ATOM     18  C   UNL     1       3.430   2.616  20.635  0.00  0.00    +0.000 C 
ATOM     19  C   UNL     1       1.283   2.467  21.910  0.00  0.00    +0.000 C 
ATOM     20  C   UNL     1       1.265   2.292  19.429  0.00  0.00    +0.000 C 
ENDBRANCH  16  17
ENDBRANCH  15  16
ENDBRANCH  10  15
ENDBRANCH   1  11
BRANCH   4  21
ATOM     21  C   UNL     1       0.148  11.155  20.548  0.00  0.00    +0.000 C 
BRANCH  21  22
ATOM     22  O   UNL     1      -0.501  12.116  19.707  0.00  0.00    +0.000 OA
BRANCH  22  23
ATOM     23  C   UNL     1      -1.312  13.045  20.277  0.00  0.00    +0.000 A 
ATOM     24  C   UNL     1      -1.040  14.398  20.395  0.00  0.00    +0.000 A 
ATOM     25  C   UNL     1      -1.940  15.217  21.082  0.00  0.00    +0.000 A 
ATOM     26  C   UNL     1      -3.106  14.685  21.646  0.00  0.00    +0.000 A 
ATOM     27  C   UNL     1      -3.402  13.324  21.528  0.00  0.00    +0.000 A 
ATOM     28  C   UNL     1      -2.478  12.517  20.838  0.00  0.00    +0.000 A 
BRANCH  27  29
ATOM     29  C   UNL     1      -4.660  12.668  22.082  0.00  0.00    +0.000 C 
BRANCH  29  30
ATOM     30  C   UNL     1      -5.931  12.972  21.312  0.00  0.00    +0.000 C 
ATOM     31  C   UNL     1      -5.998  13.035  19.804  0.00  0.00    +0.000 C 
ATOM     32  C   UNL     1      -6.574  11.852  20.521  0.00  0.00    +0.000 C 
ENDBRANCH  29  30
BRANCH  29  33
ATOM     33  C   UNL     1      -4.853  12.936  23.587  0.00  0.00    +0.000 C 
BRANCH  33  34
ATOM     34  C   UNL     1      -6.283  12.809  24.052  0.00  0.00    +0.000 C 
ATOM     35  O   UNL     1      -6.878  11.753  24.146  0.00  0.00    +0.000 OA
BRANCH  34  36
ATOM     36  O   UNL     1      -6.860  13.988  24.380  0.00  0.00    +0.000 OA
ATOM     37  H   UNL     1      -7.788  13.916  24.677  0.00  0.00    +0.000 HD
ENDBRANCH  34  36
ENDBRANCH  33  34
ENDBRANCH  29  33
ENDBRANCH  27  29
ENDBRANCH  22  23
ENDBRANCH  21  22
ENDBRANCH   4  21
TORSDOF 13
ENDMDL
