MODEL 1
REMARK VINA RESULT:      -8.0      0.000      0.000
REMARK  Name = 
REMARK  6 active torsions:
REMARK  status: ('A' for Active; 'I' for Inactive)
REMARK    1  A    between atoms: C_1  and  C_2
REMARK    2  A    between atoms: C_3  and  C_4
REMARK    3  A    between atoms: C_4  and  C_10
REMARK    4  A    between atoms: N_5  and  N_6
REMARK    5  A    between atoms: C_20  and  C_21
REMARK    6  A    between atoms: C_27  and  C_28
REMARK                            x       y       z     vdW  Elec       q    Type
REMARK                         _______ _______ _______ _____ _____    ______ ____
ROOT
ATOM      1  C   UNL     1       2.416   5.677  20.832  0.00  0.00    +0.000 C 
ATOM      2  C   UNL     1       2.193   7.012  20.182  0.00  0.00    +0.000 A 
ATOM      3  C   UNL     1       2.553   7.413  18.932  0.00  0.00    +0.000 A 
ATOM      4  N   UNL     1       2.366   8.722  18.551  0.00  0.00    +0.000 NA
ATOM      5  N   UNL     1       1.773   9.573  19.240  0.00  0.00    +0.000 NA
ATOM      6  C   UNL     1       1.227   9.225  20.428  0.00  0.00    +0.000 A 
ATOM      7  C   UNL     1       0.359   9.853  21.290  0.00  0.00    +0.000 A 
ATOM      8  C   UNL     1      -0.292  11.093  21.118  0.00  0.00    +0.000 A 
ATOM      9  C   UNL     1      -1.037  11.381  22.294  0.00  0.00    +0.000 A 
ATOM     10  N   UNL     1      -1.062  10.554  23.403  0.00  0.00    +0.000 NA
ATOM     11  N   UNL     1      -0.418   9.334  23.506  0.00  0.00    +0.000 NA
ATOM     12  C   UNL     1       0.301   8.981  22.409  0.00  0.00    +0.000 A 
ATOM     13  N   UNL     1       0.992   7.851  22.218  0.00  0.00    +0.000 NA
ATOM     14  N   UNL     1       1.502   7.971  20.961  0.00  0.00    +0.000 N 
ENDROOT
BRANCH   8  15
ATOM     15  C   UNL     1      -0.231  11.904  19.884  0.00  0.00    +0.000 A 
ATOM     16  C   UNL     1      -1.148  11.707  18.832  0.00  0.00    +0.000 A 
ATOM     17  C   UNL     1      -1.141  12.510  17.688  0.00  0.00    +0.000 A 
ATOM     18  C   UNL     1      -0.281  13.597  17.610  0.00  0.00    +0.000 A 
ATOM     19  C   UNL     1       0.615  13.839  18.644  0.00  0.00    +0.000 A 
ATOM     20  C   UNL     1       0.676  12.970  19.740  0.00  0.00    +0.000 A 
ENDBRANCH   8  15
BRANCH   9  21
ATOM     21  C   UNL     1      -1.842  12.625  22.470  0.00  0.00    +0.000 A 
ATOM     22  C   UNL     1      -1.381  13.712  23.242  0.00  0.00    +0.000 A 
ATOM     23  C   UNL     1      -2.230  14.761  23.612  0.00  0.00    +0.000 A 
ATOM     24  C   UNL     1      -3.535  14.799  23.135  0.00  0.00    +0.000 A 
ATOM     25  C   UNL     1      -3.979  13.804  22.268  0.00  0.00    +0.000 A 
ATOM     26  C   UNL     1      -3.142  12.728  21.943  0.00  0.00    +0.000 A 
ENDBRANCH   9  21
BRANCH   3  27
ATOM     27  C   UNL     1       3.259   6.540  17.878  0.00  0.00    +0.000 C 
ATOM     28  N   UNL     1       4.127   7.129  17.086  0.00  0.00    +0.000 NA
BRANCH  28  29
ATOM     29  N   UNL     1       4.636   6.434  16.012  0.00  0.00    +0.000 N 
ATOM     30  C   UNL     1       5.980   6.273  15.813  0.00  0.00    +0.000 C 
ATOM     31  N   UNL     1       6.769   6.797  16.782  0.00  0.00    +0.000 N 
ATOM     32  O   UNL     1       6.443   5.655  14.861  0.00  0.00    +0.000 OA
ATOM     33  H   UNL     1       4.015   6.019  15.330  0.00  0.00    +0.000 HD
ATOM     34  H   UNL     1       6.343   7.539  17.317  0.00  0.00    +0.000 HD
ATOM     35  H   UNL     1       7.764   6.823  16.608  0.00  0.00    +0.000 HD
ENDBRANCH  28  29
BRANCH  27  36
ATOM     36  C   UNL     1       2.921   5.042  17.853  0.00  0.00    +0.000 A 
ATOM     37  C   UNL     1       1.614   4.536  17.717  0.00  0.00    +0.000 A 
ATOM     38  C   UNL     1       1.344   3.159  17.734  0.00  0.00    +0.000 A 
ATOM     39  C   UNL     1       2.383   2.245  17.819  0.00  0.00    +0.000 A 
ATOM     40  C   UNL     1       3.688   2.708  17.924  0.00  0.00    +0.000 A 
ATOM     41  C   UNL     1       3.949   4.087  17.980  0.00  0.00    +0.000 A 
ENDBRANCH  27  36
ENDBRANCH   3  27
TORSDOF 5
ENDMDL
MODEL 2
REMARK VINA RESULT:      -7.9      0.201      1.115
REMARK  Name = 
REMARK  6 active torsions:
REMARK  status: ('A' for Active; 'I' for Inactive)
REMARK    1  A    between atoms: C_1  and  C_2
REMARK    2  A    between atoms: C_3  and  C_4
REMARK    3  A    between atoms: C_4  and  C_10
REMARK    4  A    between atoms: N_5  and  N_6
REMARK    5  A    between atoms: C_20  and  C_21
REMARK    6  A    between atoms: C_27  and  C_28
REMARK                            x       y       z     vdW  Elec       q    Type
REMARK                         _______ _______ _______ _____ _____    ______ ____
ROOT
ATOM      1  C   UNL     1       2.391   5.681  20.823  0.00  0.00    +0.000 C 
ATOM      2  C   UNL     1       2.184   7.023  20.182  0.00  0.00    +0.000 A 
ATOM      3  C   UNL     1       2.561   7.432  18.940  0.00  0.00    +0.000 A 
ATOM      4  N   UNL     1       2.386   8.745  18.567  0.00  0.00    +0.000 NA
ATOM      5  N   UNL     1       1.790   9.594  19.256  0.00  0.00    +0.000 NA
ATOM      6  C   UNL     1       1.227   9.240  20.435  0.00  0.00    +0.000 A 
ATOM      7  C   UNL     1       0.353   9.865  21.291  0.00  0.00    +0.000 A 
ATOM      8  C   UNL     1      -0.288  11.110  21.122  0.00  0.00    +0.000 A 
ATOM      9  C   UNL     1      -1.046  11.393  22.292  0.00  0.00    +0.000 A 
ATOM     10  N   UNL     1      -1.089  10.557  23.392  0.00  0.00    +0.000 NA
ATOM     11  N   UNL     1      -0.453   9.332  23.493  0.00  0.00    +0.000 NA
ATOM     12  C   UNL     1       0.277   8.985  22.402  0.00  0.00    +0.000 A 
ATOM     13  N   UNL     1       0.963   7.852  22.210  0.00  0.00    +0.000 NA
ATOM     14  N   UNL     1       1.489   7.980  20.961  0.00  0.00    +0.000 N 
ENDROOT
BRANCH   8  15
ATOM     15  C   UNL     1      -0.208  11.931  19.896  0.00  0.00    +0.000 A 
ATOM     16  C   UNL     1      -1.121  11.757  18.837  0.00  0.00    +0.000 A 
ATOM     17  C   UNL     1      -1.096  12.570  17.700  0.00  0.00    +0.000 A 
ATOM     18  C   UNL     1      -0.219  13.645  17.636  0.00  0.00    +0.000 A 
ATOM     19  C   UNL     1       0.675  13.864  18.678  0.00  0.00    +0.000 A 
ATOM     20  C   UNL     1       0.716  12.985  19.766  0.00  0.00    +0.000 A 
ENDBRANCH   8  15
BRANCH   9  21
ATOM     21  C   UNL     1      -1.845  12.641  22.468  0.00  0.00    +0.000 A 
ATOM     22  C   UNL     1      -3.182  12.741  22.030  0.00  0.00    +0.000 A 
ATOM     23  C   UNL     1      -3.842  13.973  21.966  0.00  0.00    +0.000 A 
ATOM     24  C   UNL     1      -3.216  15.122  22.434  0.00  0.00    +0.000 A 
ATOM     25  C   UNL     1      -1.941  15.032  22.989  0.00  0.00    +0.000 A 
ATOM     26  C   UNL     1      -1.263  13.805  23.002  0.00  0.00    +0.000 A 
ENDBRANCH   9  21
BRANCH   3  27
ATOM     27  C   UNL     1       3.274   6.563  17.887  0.00  0.00    +0.000 C 
ATOM     28  N   UNL     1       4.116   7.164  17.075  0.00  0.00    +0.000 NA
BRANCH  28  29
ATOM     29  N   UNL     1       4.628   6.468  16.003  0.00  0.00    +0.000 N 
ATOM     30  C   UNL     1       5.971   6.276  15.827  0.00  0.00    +0.000 C 
ATOM     31  N   UNL     1       6.754   6.770  16.815  0.00  0.00    +0.000 N 
ATOM     32  O   UNL     1       6.436   5.657  14.876  0.00  0.00    +0.000 OA
ATOM     33  H   UNL     1       4.010   6.075  15.305  0.00  0.00    +0.000 HD
ATOM     34  H   UNL     1       6.336   7.517  17.351  0.00  0.00    +0.000 HD
ATOM     35  H   UNL     1       7.753   6.774  16.660  0.00  0.00    +0.000 HD
ENDBRANCH  28  29
BRANCH  27  36
ATOM     36  C   UNL     1       2.974   5.057  17.885  0.00  0.00    +0.000 A 
ATOM     37  C   UNL     1       3.963   4.061  18.002  0.00  0.00    +0.000 A 
ATOM     38  C   UNL     1       3.650   2.694  17.961  0.00  0.00    +0.000 A 
ATOM     39  C   UNL     1       2.329   2.282  17.866  0.00  0.00    +0.000 A 
ATOM     40  C   UNL     1       1.325   3.238  17.779  0.00  0.00    +0.000 A 
ATOM     41  C   UNL     1       1.647   4.604  17.748  0.00  0.00    +0.000 A 
ENDBRANCH  27  36
ENDBRANCH   3  27
TORSDOF 5
ENDMDL
MODEL 3
REMARK VINA RESULT:      -7.5      1.774      2.703
REMARK  Name = 
REMARK  6 active torsions:
REMARK  status: ('A' for Active; 'I' for Inactive)
REMARK    1  A    between atoms: C_1  and  C_2
REMARK    2  A    between atoms: C_3  and  C_4
REMARK    3  A    between atoms: C_4  and  C_10
REMARK    4  A    between atoms: N_5  and  N_6
REMARK    5  A    between atoms: C_20  and  C_21
REMARK    6  A    between atoms: C_27  and  C_28
REMARK                            x       y       z     vdW  Elec       q    Type
REMARK                         _______ _______ _______ _____ _____    ______ ____
ROOT
ATOM      1  C   UNL     1       2.528   5.758  21.412  0.00  0.00    +0.000 C 
ATOM      2  C   UNL     1       2.075   6.871  20.511  0.00  0.00    +0.000 A 
ATOM      3  C   UNL     1       2.153   6.944  19.154  0.00  0.00    +0.000 A 
ATOM      4  N   UNL     1       1.788   8.101  18.506  0.00  0.00    +0.000 NA
ATOM      5  N   UNL     1       1.270   9.084  19.070  0.00  0.00    +0.000 NA
ATOM      6  C   UNL     1       0.994   9.041  20.394  0.00  0.00    +0.000 A 
ATOM      7  C   UNL     1       0.260   9.845  21.233  0.00  0.00    +0.000 A 
ATOM      8  C   UNL     1      -0.512  10.977  20.897  0.00  0.00    +0.000 A 
ATOM      9  C   UNL     1      -1.038  11.539  22.093  0.00  0.00    +0.000 A 
ATOM     10  N   UNL     1      -0.781  11.028  23.352  0.00  0.00    +0.000 NA
ATOM     11  N   UNL     1      -0.030   9.897  23.620  0.00  0.00    +0.000 NA
ATOM     12  C   UNL     1       0.491   9.293  22.521  0.00  0.00    +0.000 A 
ATOM     13  N   UNL     1       1.222   8.174  22.478  0.00  0.00    +0.000 NA
ATOM     14  N   UNL     1       1.470   7.978  21.153  0.00  0.00    +0.000 N 
ENDROOT
BRANCH   8  15
ATOM     15  C   UNL     1      -0.757  11.440  19.516  0.00  0.00    +0.000 A 
ATOM     16  C   UNL     1      -1.740  10.838  18.704  0.00  0.00    +0.000 A 
ATOM     17  C   UNL     1      -2.025  11.309  17.419  0.00  0.00    +0.000 A 
ATOM     18  C   UNL     1      -1.405  12.458  16.949  0.00  0.00    +0.000 A 
ATOM     19  C   UNL     1      -0.453  13.096  17.737  0.00  0.00    +0.000 A 
ATOM     20  C   UNL     1      -0.096  12.561  18.979  0.00  0.00    +0.000 A 
ENDBRANCH   8  15
BRANCH   9  21
ATOM     21  C   UNL     1      -1.894  12.761  22.117  0.00  0.00    +0.000 A 
ATOM     22  C   UNL     1      -3.295  12.696  21.974  0.00  0.00    +0.000 A 
ATOM     23  C   UNL     1      -4.063  13.843  21.745  0.00  0.00    +0.000 A 
ATOM     24  C   UNL     1      -3.461  15.095  21.753  0.00  0.00    +0.000 A 
ATOM     25  C   UNL     1      -2.097  15.199  22.017  0.00  0.00    +0.000 A 
ATOM     26  C   UNL     1      -1.323  14.045  22.193  0.00  0.00    +0.000 A 
ENDBRANCH   9  21
BRANCH   3  27
ATOM     27  C   UNL     1       2.712   5.848  18.228  0.00  0.00    +0.000 C 
ATOM     28  N   UNL     1       1.879   4.917  17.818  0.00  0.00    +0.000 NA
BRANCH  28  29
ATOM     29  N   UNL     1       2.373   3.819  17.150  0.00  0.00    +0.000 N 
ATOM     30  C   UNL     1       2.645   2.636  17.783  0.00  0.00    +0.000 C 
ATOM     31  N   UNL     1       2.336   2.608  19.101  0.00  0.00    +0.000 N 
ATOM     32  O   UNL     1       3.083   1.653  17.196  0.00  0.00    +0.000 OA
ATOM     33  H   UNL     1       2.552   3.863  16.156  0.00  0.00    +0.000 HD
ATOM     34  H   UNL     1       2.302   3.514  19.546  0.00  0.00    +0.000 HD
ATOM     35  H   UNL     1       2.645   1.809  19.635  0.00  0.00    +0.000 HD
ENDBRANCH  28  29
BRANCH  27  36
ATOM     36  C   UNL     1       4.192   5.941  17.826  0.00  0.00    +0.000 A 
ATOM     37  C   UNL     1       4.642   6.518  16.623  0.00  0.00    +0.000 A 
ATOM     38  C   UNL     1       6.001   6.552  16.278  0.00  0.00    +0.000 A 
ATOM     39  C   UNL     1       6.958   6.069  17.157  0.00  0.00    +0.000 A 
ATOM     40  C   UNL     1       6.552   5.520  18.366  0.00  0.00    +0.000 A 
ATOM     41  C   UNL     1       5.186   5.422  18.678  0.00  0.00    +0.000 A 
ENDBRANCH  27  36
ENDBRANCH   3  27
TORSDOF 5
ENDMDL
MODEL 4
REMARK VINA RESULT:      -7.4      6.175      9.549
REMARK  Name = 
REMARK  6 active torsions:
REMARK  status: ('A' for Active; 'I' for Inactive)
REMARK    1  A    between atoms: C_1  and  C_2
REMARK    2  A    between atoms: C_3  and  C_4
REMARK    3  A    between atoms: C_4  and  C_10
REMARK    4  A    between atoms: N_5  and  N_6
REMARK    5  A    between atoms: C_20  and  C_21
REMARK    6  A    between atoms: C_27  and  C_28
REMARK                            x       y       z     vdW  Elec       q    Type
REMARK                         _______ _______ _______ _____ _____    ______ ____
ROOT
ATOM      1  C   UNL     1       0.484  13.486  18.389  0.00  0.00    +0.000 C 
ATOM      2  C   UNL     1       1.234  13.737  19.666  0.00  0.00    +0.000 A 
ATOM      3  C   UNL     1       0.834  13.490  20.943  0.00  0.00    +0.000 A 
ATOM      4  N   UNL     1       1.616  13.897  21.999  0.00  0.00    +0.000 NA
ATOM      5  N   UNL     1       2.753  14.393  21.876  0.00  0.00    +0.000 NA
ATOM      6  C   UNL     1       3.310  14.521  20.650  0.00  0.00    +0.000 A 
ATOM      7  C   UNL     1       4.579  14.819  20.214  0.00  0.00    +0.000 A 
ATOM      8  C   UNL     1       5.740  15.018  20.990  0.00  0.00    +0.000 A 
ATOM      9  C   UNL     1       6.810  15.375  20.124  0.00  0.00    +0.000 A 
ATOM     10  N   UNL     1       6.669  15.510  18.755  0.00  0.00    +0.000 NA
ATOM     11  N   UNL     1       5.505  15.279  18.043  0.00  0.00    +0.000 NA
ATOM     12  C   UNL     1       4.441  14.915  18.804  0.00  0.00    +0.000 A 
ATOM     13  N   UNL     1       3.211  14.599  18.384  0.00  0.00    +0.000 NA
ATOM     14  N   UNL     1       2.532  14.283  19.522  0.00  0.00    +0.000 N 
ENDROOT
BRANCH   8  15
ATOM     15  C   UNL     1       5.809  14.826  22.454  0.00  0.00    +0.000 A 
ATOM     16  C   UNL     1       6.060  13.558  23.015  0.00  0.00    +0.000 A 
ATOM     17  C   UNL     1       6.191  13.375  24.395  0.00  0.00    +0.000 A 
ATOM     18  C   UNL     1       6.175  14.473  25.244  0.00  0.00    +0.000 A 
ATOM     19  C   UNL     1       5.961  15.743  24.720  0.00  0.00    +0.000 A 
ATOM     20  C   UNL     1       5.726  15.908  23.350  0.00  0.00    +0.000 A 
ENDBRANCH   8  15
BRANCH   9  21
ATOM     21  C   UNL     1       8.189  15.676  20.606  0.00  0.00    +0.000 A 
ATOM     22  C   UNL     1       9.149  14.663  20.808  0.00  0.00    +0.000 A 
ATOM     23  C   UNL     1      10.344  14.910  21.492  0.00  0.00    +0.000 A 
ATOM     24  C   UNL     1      10.655  16.200  21.903  0.00  0.00    +0.000 A 
ATOM     25  C   UNL     1       9.782  17.244  21.607  0.00  0.00    +0.000 A 
ATOM     26  C   UNL     1       8.562  16.983  20.969  0.00  0.00    +0.000 A 
ENDBRANCH   9  21
BRANCH   3  27
ATOM     27  C   UNL     1      -0.504  12.849  21.356  0.00  0.00    +0.000 C 
ATOM     28  N   UNL     1      -1.570  13.619  21.355  0.00  0.00    +0.000 NA
BRANCH  28  29
ATOM     29  N   UNL     1      -2.743  13.142  21.897  0.00  0.00    +0.000 N 
ATOM     30  C   UNL     1      -3.829  12.821  21.128  0.00  0.00    +0.000 C 
ATOM     31  N   UNL     1      -3.643  12.950  19.792  0.00  0.00    +0.000 N 
ATOM     32  O   UNL     1      -4.876  12.395  21.600  0.00  0.00    +0.000 OA
ATOM     33  H   UNL     1      -2.832  13.017  22.896  0.00  0.00    +0.000 HD
ATOM     34  H   UNL     1      -2.910  13.593  19.529  0.00  0.00    +0.000 HD
ATOM     35  H   UNL     1      -4.454  12.858  19.198  0.00  0.00    +0.000 HD
ENDBRANCH  28  29
BRANCH  27  36
ATOM     36  C   UNL     1      -0.500  11.354  21.705  0.00  0.00    +0.000 A 
ATOM     37  C   UNL     1      -0.740  10.851  22.999  0.00  0.00    +0.000 A 
ATOM     38  C   UNL     1      -0.692   9.478  23.283  0.00  0.00    +0.000 A 
ATOM     39  C   UNL     1      -0.469   8.561  22.268  0.00  0.00    +0.000 A 
ATOM     40  C   UNL     1      -0.258   9.020  20.974  0.00  0.00    +0.000 A 
ATOM     41  C   UNL     1      -0.235  10.398  20.705  0.00  0.00    +0.000 A 
ENDBRANCH  27  36
ENDBRANCH   3  27
TORSDOF 5
ENDMDL
MODEL 5
REMARK VINA RESULT:      -7.3      6.207      9.725
REMARK  Name = 
REMARK  6 active torsions:
REMARK  status: ('A' for Active; 'I' for Inactive)
REMARK    1  A    between atoms: C_1  and  C_2
REMARK    2  A    between atoms: C_3  and  C_4
REMARK    3  A    between atoms: C_4  and  C_10
REMARK    4  A    between atoms: N_5  and  N_6
REMARK    5  A    between atoms: C_20  and  C_21
REMARK    6  A    between atoms: C_27  and  C_28
REMARK                            x       y       z     vdW  Elec       q    Type
REMARK                         _______ _______ _______ _____ _____    ______ ____
ROOT
ATOM      1  C   UNL     1      -0.427  14.927  18.837  0.00  0.00    +0.000 C 
ATOM      2  C   UNL     1       0.490  14.807  20.020  0.00  0.00    +0.000 A 
ATOM      3  C   UNL     1       0.301  14.098  21.166  0.00  0.00    +0.000 A 
ATOM      4  N   UNL     1       1.209  14.202  22.195  0.00  0.00    +0.000 NA
ATOM      5  N   UNL     1       2.283  14.828  22.119  0.00  0.00    +0.000 NA
ATOM      6  C   UNL     1       2.641  15.426  20.959  0.00  0.00    +0.000 A 
ATOM      7  C   UNL     1       3.811  15.988  20.507  0.00  0.00    +0.000 A 
ATOM      8  C   UNL     1       5.062  16.035  21.158  0.00  0.00    +0.000 A 
ATOM      9  C   UNL     1       5.967  16.777  20.352  0.00  0.00    +0.000 A 
ATOM     10  N   UNL     1       5.614  17.355  19.145  0.00  0.00    +0.000 NA
ATOM     11  N   UNL     1       4.372  17.257  18.543  0.00  0.00    +0.000 NA
ATOM     12  C   UNL     1       3.458  16.544  19.249  0.00  0.00    +0.000 A 
ATOM     13  N   UNL     1       2.199  16.260  18.896  0.00  0.00    +0.000 NA
ATOM     14  N   UNL     1       1.718  15.505  19.922  0.00  0.00    +0.000 N 
ENDROOT
BRANCH   8  15
ATOM     15  C   UNL     1       5.361  15.363  22.441  0.00  0.00    +0.000 A 
ATOM     16  C   UNL     1       5.174  16.021  23.673  0.00  0.00    +0.000 A 
ATOM     17  C   UNL     1       5.392  15.376  24.894  0.00  0.00    +0.000 A 
ATOM     18  C   UNL     1       5.706  14.024  24.916  0.00  0.00    +0.000 A 
ATOM     19  C   UNL     1       5.867  13.337  23.719  0.00  0.00    +0.000 A 
ATOM     20  C   UNL     1       5.750  14.013  22.499  0.00  0.00    +0.000 A 
ENDBRANCH   8  15
BRANCH   9  21
ATOM     21  C   UNL     1       7.383  17.042  20.739  0.00  0.00    +0.000 A 
ATOM     22  C   UNL     1       8.440  16.206  20.325  0.00  0.00    +0.000 A 
ATOM     23  C   UNL     1       9.718  16.305  20.888  0.00  0.00    +0.000 A 
ATOM     24  C   UNL     1       9.995  17.309  21.808  0.00  0.00    +0.000 A 
ATOM     25  C   UNL     1       9.003  18.228  22.142  0.00  0.00    +0.000 A 
ATOM     26  C   UNL     1       7.711  18.092  21.616  0.00  0.00    +0.000 A 
ENDBRANCH   9  21
BRANCH   3  27
ATOM     27  C   UNL     1      -0.920  13.215  21.484  0.00  0.00    +0.000 C 
ATOM     28  N   UNL     1      -2.092  13.807  21.557  0.00  0.00    +0.000 NA
BRANCH  28  29
ATOM     29  N   UNL     1      -3.175  13.096  22.024  0.00  0.00    +0.000 N 
ATOM     30  C   UNL     1      -4.274  12.840  21.250  0.00  0.00    +0.000 C 
ATOM     31  N   UNL     1      -4.190  13.286  19.973  0.00  0.00    +0.000 N 
ATOM     32  O   UNL     1      -5.242  12.207  21.656  0.00  0.00    +0.000 OA
ATOM     33  H   UNL     1      -3.184  12.740  22.971  0.00  0.00    +0.000 HD
ATOM     34  H   UNL     1      -3.542  14.048  19.834  0.00  0.00    +0.000 HD
ATOM     35  H   UNL     1      -5.028  13.243  19.409  0.00  0.00    +0.000 HD
ENDBRANCH  28  29
BRANCH  27  36
ATOM     36  C   UNL     1      -0.684  11.708  21.659  0.00  0.00    +0.000 A 
ATOM     37  C   UNL     1      -0.792  11.036  22.893  0.00  0.00    +0.000 A 
ATOM     38  C   UNL     1      -0.533   9.663  23.016  0.00  0.00    +0.000 A 
ATOM     39  C   UNL     1      -0.222   8.907  21.896  0.00  0.00    +0.000 A 
ATOM     40  C   UNL     1      -0.136   9.531  20.659  0.00  0.00    +0.000 A 
ATOM     41  C   UNL     1      -0.325  10.918  20.549  0.00  0.00    +0.000 A 
ENDBRANCH  27  36
ENDBRANCH   3  27
TORSDOF 5
ENDMDL
MODEL 6
REMARK VINA RESULT:      -7.3      6.398      9.377
REMARK  Name = 
REMARK  6 active torsions:
REMARK  status: ('A' for Active; 'I' for Inactive)
REMARK    1  A    between atoms: C_1  and  C_2
REMARK    2  A    between atoms: C_3  and  C_4
REMARK    3  A    between atoms: C_4  and  C_10
REMARK    4  A    between atoms: N_5  and  N_6
REMARK    5  A    between atoms: C_20  and  C_21
REMARK    6  A    between atoms: C_27  and  C_28
REMARK                            x       y       z     vdW  Elec       q    Type
REMARK                         _______ _______ _______ _____ _____    ______ ____
ROOT
ATOM      1  C   UNL     1       0.580  15.558  18.624  0.00  0.00    +0.000 C 
ATOM      2  C   UNL     1       1.324  14.977  19.792  0.00  0.00    +0.000 A 
ATOM      3  C   UNL     1       1.012  13.877  20.530  0.00  0.00    +0.000 A 
ATOM      4  N   UNL     1       1.757  13.563  21.643  0.00  0.00    +0.000 NA
ATOM      5  N   UNL     1       2.797  14.161  21.980  0.00  0.00    +0.000 NA
ATOM      6  C   UNL     1       3.284  15.163  21.213  0.00  0.00    +0.000 A 
ATOM      7  C   UNL     1       4.475  15.849  21.198  0.00  0.00    +0.000 A 
ATOM      8  C   UNL     1       5.616  15.628  21.997  0.00  0.00    +0.000 A 
ATOM      9  C   UNL     1       6.586  16.621  21.690  0.00  0.00    +0.000 A 
ATOM     10  N   UNL     1       6.378  17.628  20.764  0.00  0.00    +0.000 NA
ATOM     11  N   UNL     1       5.242  17.782  19.990  0.00  0.00    +0.000 NA
ATOM     12  C   UNL     1       4.275  16.856  20.217  0.00  0.00    +0.000 A 
ATOM     13  N   UNL     1       3.096  16.742  19.594  0.00  0.00    +0.000 NA
ATOM     14  N   UNL     1       2.515  15.648  20.161  0.00  0.00    +0.000 N 
ENDROOT
BRANCH   8  15
ATOM     15  C   UNL     1       5.765  14.505  22.947  0.00  0.00    +0.000 A 
ATOM     16  C   UNL     1       6.317  13.273  22.545  0.00  0.00    +0.000 A 
ATOM     17  C   UNL     1       6.522  12.226  23.449  0.00  0.00    +0.000 A 
ATOM     18  C   UNL     1       6.272  12.420  24.801  0.00  0.00    +0.000 A 
ATOM     19  C   UNL     1       5.757  13.635  25.236  0.00  0.00    +0.000 A 
ATOM     20  C   UNL     1       5.455  14.642  24.313  0.00  0.00    +0.000 A 
ENDBRANCH   8  15
BRANCH   9  21
ATOM     21  C   UNL     1       7.917  16.702  22.359  0.00  0.00    +0.000 A 
ATOM     22  C   UNL     1       9.049  16.028  21.858  0.00  0.00    +0.000 A 
ATOM     23  C   UNL     1      10.220  15.898  22.613  0.00  0.00    +0.000 A 
ATOM     24  C   UNL     1      10.322  16.526  23.848  0.00  0.00    +0.000 A 
ATOM     25  C   UNL     1       9.265  17.303  24.313  0.00  0.00    +0.000 A 
ATOM     26  C   UNL     1       8.075  17.387  23.578  0.00  0.00    +0.000 A 
ENDBRANCH   9  21
BRANCH   3  27
ATOM     27  C   UNL     1      -0.193  12.949  20.291  0.00  0.00    +0.000 C 
ATOM     28  N   UNL     1      -1.053  13.301  19.361  0.00  0.00    +0.000 NA
BRANCH  28  29
ATOM     29  N   UNL     1      -2.238  12.608  19.245  0.00  0.00    +0.000 N 
ATOM     30  C   UNL     1      -2.570  11.906  18.118  0.00  0.00    +0.000 C 
ATOM     31  N   UNL     1      -1.621  11.895  17.151  0.00  0.00    +0.000 N 
ATOM     32  O   UNL     1      -3.621  11.286  18.005  0.00  0.00    +0.000 OA
ATOM     33  H   UNL     1      -2.905  12.603  20.005  0.00  0.00    +0.000 HD
ATOM     34  H   UNL     1      -0.972  12.667  17.188  0.00  0.00    +0.000 HD
ATOM     35  H   UNL     1      -1.876  11.508  16.253  0.00  0.00    +0.000 HD
ENDBRANCH  28  29
BRANCH  27  36
ATOM     36  C   UNL     1      -0.284  11.668  21.133  0.00  0.00    +0.000 A 
ATOM     37  C   UNL     1      -0.896  11.605  22.401  0.00  0.00    +0.000 A 
ATOM     38  C   UNL     1      -0.928  10.422  23.153  0.00  0.00    +0.000 A 
ATOM     39  C   UNL     1      -0.405   9.248  22.632  0.00  0.00    +0.000 A 
ATOM     40  C   UNL     1       0.180   9.266  21.372  0.00  0.00    +0.000 A 
ATOM     41  C   UNL     1       0.273  10.468  20.651  0.00  0.00    +0.000 A 
ENDBRANCH  27  36
ENDBRANCH   3  27
TORSDOF 5
ENDMDL
MODEL 7
REMARK VINA RESULT:      -7.3      6.419      9.658
REMARK  Name = 
REMARK  6 active torsions:
REMARK  status: ('A' for Active; 'I' for Inactive)
REMARK    1  A    between atoms: C_1  and  C_2
REMARK    2  A    between atoms: C_3  and  C_4
REMARK    3  A    between atoms: C_4  and  C_10
REMARK    4  A    between atoms: N_5  and  N_6
REMARK    5  A    between atoms: C_20  and  C_21
REMARK    6  A    between atoms: C_27  and  C_28
REMARK                            x       y       z     vdW  Elec       q    Type
REMARK                         _______ _______ _______ _____ _____    ______ ____
ROOT
ATOM      1  C   UNL     1       0.854  15.183  18.603  0.00  0.00    +0.000 C 
ATOM      2  C   UNL     1       1.761  14.605  19.650  0.00  0.00    +0.000 A 
ATOM      3  C   UNL     1       1.635  13.427  20.320  0.00  0.00    +0.000 A 
ATOM      4  N   UNL     1       2.510  13.117  21.335  0.00  0.00    +0.000 NA
ATOM      5  N   UNL     1       3.510  13.799  21.629  0.00  0.00    +0.000 NA
ATOM      6  C   UNL     1       3.817  14.901  20.906  0.00  0.00    +0.000 A 
ATOM      7  C   UNL     1       4.925  15.713  20.844  0.00  0.00    +0.000 A 
ATOM      8  C   UNL     1       6.153  15.560  21.521  0.00  0.00    +0.000 A 
ATOM      9  C   UNL     1       6.982  16.673  21.213  0.00  0.00    +0.000 A 
ATOM     10  N   UNL     1       6.586  17.715  20.394  0.00  0.00    +0.000 NA
ATOM     11  N   UNL     1       5.371  17.800  19.737  0.00  0.00    +0.000 NA
ATOM     12  C   UNL     1       4.531  16.759  19.970  0.00  0.00    +0.000 A 
ATOM     13  N   UNL     1       3.316  16.563  19.445  0.00  0.00    +0.000 NA
ATOM     14  N   UNL     1       2.906  15.374  19.968  0.00  0.00    +0.000 N 
ENDROOT
BRANCH   8  15
ATOM     15  C   UNL     1       6.505  14.396  22.360  0.00  0.00    +0.000 A 
ATOM     16  C   UNL     1       7.364  13.384  21.885  0.00  0.00    +0.000 A 
ATOM     17  C   UNL     1       7.756  12.311  22.691  0.00  0.00    +0.000 A 
ATOM     18  C   UNL     1       7.378  12.274  24.027  0.00  0.00    +0.000 A 
ATOM     19  C   UNL     1       6.557  13.273  24.536  0.00  0.00    +0.000 A 
ATOM     20  C   UNL     1       6.083  14.289  23.698  0.00  0.00    +0.000 A 
ENDBRANCH   8  15
BRANCH   9  21
ATOM     21  C   UNL     1       8.356  16.851  21.769  0.00  0.00    +0.000 A 
ATOM     22  C   UNL     1       9.507  16.441  21.066  0.00  0.00    +0.000 A 
ATOM     23  C   UNL     1      10.760  16.376  21.684  0.00  0.00    +0.000 A 
ATOM     24  C   UNL     1      10.911  16.815  22.994  0.00  0.00    +0.000 A 
ATOM     25  C   UNL     1       9.816  17.343  23.672  0.00  0.00    +0.000 A 
ATOM     26  C   UNL     1       8.552  17.357  23.067  0.00  0.00    +0.000 A 
ENDBRANCH   9  21
BRANCH   3  27
ATOM     27  C   UNL     1       0.513  12.392  20.111  0.00  0.00    +0.000 C 
ATOM     28  N   UNL     1       0.586  11.627  19.045  0.00  0.00    +0.000 NA
BRANCH  28  29
ATOM     29  N   UNL     1      -0.486  10.825  18.719  0.00  0.00    +0.000 N 
ATOM     30  C   UNL     1      -1.496  11.250  17.899  0.00  0.00    +0.000 C 
ATOM     31  N   UNL     1      -1.333  12.493  17.386  0.00  0.00    +0.000 N 
ATOM     32  O   UNL     1      -2.452  10.543  17.601  0.00  0.00    +0.000 OA
ATOM     33  H   UNL     1      -0.553   9.886  19.086  0.00  0.00    +0.000 HD
ATOM     34  H   UNL     1      -0.726  13.094  17.923  0.00  0.00    +0.000 HD
ATOM     35  H   UNL     1      -2.115  12.898  16.890  0.00  0.00    +0.000 HD
ENDBRANCH  28  29
BRANCH  27  36
ATOM     36  C   UNL     1      -0.588  12.310  21.179  0.00  0.00    +0.000 A 
ATOM     37  C   UNL     1      -1.694  13.180  21.233  0.00  0.00    +0.000 A 
ATOM     38  C   UNL     1      -2.660  13.093  22.246  0.00  0.00    +0.000 A 
ATOM     39  C   UNL     1      -2.584  12.089  23.200  0.00  0.00    +0.000 A 
ATOM     40  C   UNL     1      -1.523  11.194  23.159  0.00  0.00    +0.000 A 
ATOM     41  C   UNL     1      -0.519  11.328  22.187  0.00  0.00    +0.000 A 
ENDBRANCH  27  36
ENDBRANCH   3  27
TORSDOF 5
ENDMDL
MODEL 8
REMARK VINA RESULT:      -7.2      5.213      7.777
REMARK  Name = 
REMARK  6 active torsions:
REMARK  status: ('A' for Active; 'I' for Inactive)
REMARK    1  A    between atoms: C_1  and  C_2
REMARK    2  A    between atoms: C_3  and  C_4
REMARK    3  A    between atoms: C_4  and  C_10
REMARK    4  A    between atoms: N_5  and  N_6
REMARK    5  A    between atoms: C_20  and  C_21
REMARK    6  A    between atoms: C_27  and  C_28
REMARK                            x       y       z     vdW  Elec       q    Type
REMARK                         _______ _______ _______ _____ _____    ______ ____
ROOT
ATOM      1  C   UNL     1       3.783  17.077  21.442  0.00  0.00    +0.000 C 
ATOM      2  C   UNL     1       3.273  15.664  21.441  0.00  0.00    +0.000 A 
ATOM      3  C   UNL     1       3.959  14.519  21.708  0.00  0.00    +0.000 A 
ATOM      4  N   UNL     1       3.346  13.298  21.545  0.00  0.00    +0.000 NA
ATOM      5  N   UNL     1       2.140  13.152  21.269  0.00  0.00    +0.000 NA
ATOM      6  C   UNL     1       1.334  14.233  21.152  0.00  0.00    +0.000 A 
ATOM      7  C   UNL     1      -0.029  14.391  21.070  0.00  0.00    +0.000 A 
ATOM      8  C   UNL     1      -1.026  13.398  21.160  0.00  0.00    +0.000 A 
ATOM      9  C   UNL     1      -2.294  14.006  20.948  0.00  0.00    +0.000 A 
ATOM     10  N   UNL     1      -2.456  15.353  20.679  0.00  0.00    +0.000 NA
ATOM     11  N   UNL     1      -1.438  16.288  20.625  0.00  0.00    +0.000 NA
ATOM     12  C   UNL     1      -0.196  15.782  20.838  0.00  0.00    +0.000 A 
ATOM     13  N   UNL     1       0.960  16.454  20.876  0.00  0.00    +0.000 NA
ATOM     14  N   UNL     1       1.898  15.503  21.146  0.00  0.00    +0.000 N 
ENDROOT
BRANCH   8  15
ATOM     15  C   UNL     1      -0.765  11.979  21.478  0.00  0.00    +0.000 A 
ATOM     16  C   UNL     1      -0.911  11.483  22.789  0.00  0.00    +0.000 A 
ATOM     17  C   UNL     1      -0.729  10.130  23.090  0.00  0.00    +0.000 A 
ATOM     18  C   UNL     1      -0.494   9.218  22.070  0.00  0.00    +0.000 A 
ATOM     19  C   UNL     1      -0.376   9.669  20.760  0.00  0.00    +0.000 A 
ATOM     20  C   UNL     1      -0.455  11.038  20.478  0.00  0.00    +0.000 A 
ENDBRANCH   8  15
BRANCH   9  21
ATOM     21  C   UNL     1      -3.579  13.248  20.957  0.00  0.00    +0.000 A 
ATOM     22  C   UNL     1      -4.055  12.568  19.817  0.00  0.00    +0.000 A 
ATOM     23  C   UNL     1      -5.363  12.077  19.750  0.00  0.00    +0.000 A 
ATOM     24  C   UNL     1      -6.196  12.165  20.858  0.00  0.00    +0.000 A 
ATOM     25  C   UNL     1      -5.711  12.720  22.040  0.00  0.00    +0.000 A 
ATOM     26  C   UNL     1      -4.418  13.258  22.086  0.00  0.00    +0.000 A 
ENDBRANCH   9  21
BRANCH   3  27
ATOM     27  C   UNL     1       5.443  14.435  22.111  0.00  0.00    +0.000 C 
ATOM     28  N   UNL     1       6.309  15.097  21.375  0.00  0.00    +0.000 NA
BRANCH  28  29
ATOM     29  N   UNL     1       7.656  14.898  21.581  0.00  0.00    +0.000 N 
ATOM     30  C   UNL     1       8.491  14.457  20.591  0.00  0.00    +0.000 C 
ATOM     31  N   UNL     1       7.906  14.287  19.381  0.00  0.00    +0.000 N 
ATOM     32  O   UNL     1       9.692  14.279  20.764  0.00  0.00    +0.000 OA
ATOM     33  H   UNL     1       8.067  15.077  22.487  0.00  0.00    +0.000 HD
ATOM     34  H   UNL     1       6.908  14.137  19.412  0.00  0.00    +0.000 HD
ATOM     35  H   UNL     1       8.450  13.834  18.660  0.00  0.00    +0.000 HD
ENDBRANCH  28  29
BRANCH  27  36
ATOM     36  C   UNL     1       5.798  13.613  23.358  0.00  0.00    +0.000 A 
ATOM     37  C   UNL     1       6.326  12.308  23.313  0.00  0.00    +0.000 A 
ATOM     38  C   UNL     1       6.604  11.577  24.477  0.00  0.00    +0.000 A 
ATOM     39  C   UNL     1       6.423  12.155  25.725  0.00  0.00    +0.000 A 
ATOM     40  C   UNL     1       5.931  13.451  25.807  0.00  0.00    +0.000 A 
ATOM     41  C   UNL     1       5.587  14.154  24.642  0.00  0.00    +0.000 A 
ENDBRANCH  27  36
ENDBRANCH   3  27
TORSDOF 5
ENDMDL
MODEL 9
REMARK VINA RESULT:      -7.2      6.545      9.740
REMARK  Name = 
REMARK  6 active torsions:
REMARK  status: ('A' for Active; 'I' for Inactive)
REMARK    1  A    between atoms: C_1  and  C_2
REMARK    2  A    between atoms: C_3  and  C_4
REMARK    3  A    between atoms: C_4  and  C_10
REMARK    4  A    between atoms: N_5  and  N_6
REMARK    5  A    between atoms: C_20  and  C_21
REMARK    6  A    between atoms: C_27  and  C_28
REMARK                            x       y       z     vdW  Elec       q    Type
REMARK                         _______ _______ _______ _____ _____    ______ ____
ROOT
ATOM      1  C   UNL     1       1.152  15.188  18.578  0.00  0.00    +0.000 C 
ATOM      2  C   UNL     1       2.037  14.637  19.658  0.00  0.00    +0.000 A 
ATOM      3  C   UNL     1       1.899  13.474  20.351  0.00  0.00    +0.000 A 
ATOM      4  N   UNL     1       2.753  13.190  21.392  0.00  0.00    +0.000 NA
ATOM      5  N   UNL     1       3.745  13.881  21.692  0.00  0.00    +0.000 NA
ATOM      6  C   UNL     1       4.065  14.967  20.951  0.00  0.00    +0.000 A 
ATOM      7  C   UNL     1       5.172  15.780  20.894  0.00  0.00    +0.000 A 
ATOM      8  C   UNL     1       6.386  15.647  21.601  0.00  0.00    +0.000 A 
ATOM      9  C   UNL     1       7.219  16.754  21.285  0.00  0.00    +0.000 A 
ATOM     10  N   UNL     1       6.838  17.776  20.434  0.00  0.00    +0.000 NA
ATOM     11  N   UNL     1       5.638  17.843  19.749  0.00  0.00    +0.000 NA
ATOM     12  C   UNL     1       4.795  16.805  19.987  0.00  0.00    +0.000 A 
ATOM     13  N   UNL     1       3.592  16.594  19.441  0.00  0.00    +0.000 NA
ATOM     14  N   UNL     1       3.174  15.416  19.983  0.00  0.00    +0.000 N 
ENDROOT
BRANCH   8  15
ATOM     15  C   UNL     1       6.722  14.503  22.473  0.00  0.00    +0.000 A 
ATOM     16  C   UNL     1       6.269  14.440  23.806  0.00  0.00    +0.000 A 
ATOM     17  C   UNL     1       6.527  13.334  24.622  0.00  0.00    +0.000 A 
ATOM     18  C   UNL     1       7.159  12.216  24.094  0.00  0.00    +0.000 A 
ATOM     19  C   UNL     1       7.591  12.232  22.773  0.00  0.00    +0.000 A 
ATOM     20  C   UNL     1       7.424  13.382  21.992  0.00  0.00    +0.000 A 
ENDBRANCH   8  15
BRANCH   9  21
ATOM     21  C   UNL     1       8.580  16.949  21.867  0.00  0.00    +0.000 A 
ATOM     22  C   UNL     1       9.731  16.382  21.283  0.00  0.00    +0.000 A 
ATOM     23  C   UNL     1      10.956  16.351  21.957  0.00  0.00    +0.000 A 
ATOM     24  C   UNL     1      11.085  16.976  23.192  0.00  0.00    +0.000 A 
ATOM     25  C   UNL     1       9.996  17.652  23.736  0.00  0.00    +0.000 A 
ATOM     26  C   UNL     1       8.757  17.635  23.082  0.00  0.00    +0.000 A 
ENDBRANCH   9  21
BRANCH   3  27
ATOM     27  C   UNL     1       0.785  12.432  20.142  0.00  0.00    +0.000 C 
ATOM     28  N   UNL     1       0.790  11.758  19.014  0.00  0.00    +0.000 NA
BRANCH  28  29
ATOM     29  N   UNL     1      -0.289  10.959  18.703  0.00  0.00    +0.000 N 
ATOM     30  C   UNL     1      -1.325  11.396  17.924  0.00  0.00    +0.000 C 
ATOM     31  N   UNL     1      -1.183  12.651  17.434  0.00  0.00    +0.000 N 
ATOM     32  O   UNL     1      -2.288  10.692  17.641  0.00  0.00    +0.000 OA
ATOM     33  H   UNL     1      -0.341  10.011  19.052  0.00  0.00    +0.000 HD
ATOM     34  H   UNL     1      -0.561  13.243  17.965  0.00  0.00    +0.000 HD
ATOM     35  H   UNL     1      -1.981  13.063  16.971  0.00  0.00    +0.000 HD
ENDBRANCH  28  29
BRANCH  27  36
ATOM     36  C   UNL     1      -0.229  12.235  21.279  0.00  0.00    +0.000 A 
ATOM     37  C   UNL     1      -0.294  11.078  22.080  0.00  0.00    +0.000 A 
ATOM     38  C   UNL     1      -1.259  10.924  23.086  0.00  0.00    +0.000 A 
ATOM     39  C   UNL     1      -2.147  11.951  23.366  0.00  0.00    +0.000 A 
ATOM     40  C   UNL     1      -2.093  13.118  22.616  0.00  0.00    +0.000 A 
ATOM     41  C   UNL     1      -1.173  13.242  21.562  0.00  0.00    +0.000 A 
ENDBRANCH  27  36
ENDBRANCH   3  27
TORSDOF 5
ENDMDL
